MODEL 1
REMARK VINA RESULT:    -7.973      0.000      0.000
REMARK INTER + INTRA:          -9.775
REMARK INTER:                  -9.372
REMARK INTRA:                  -0.404
REMARK UNBOUND:                -0.404
REMARK  Name = 
REMARK  3 active torsions:
REMARK  status: ('A' for Active; 'I' for Inactive)
REMARK    1  A    between atoms: C_2  and  C_4
REMARK    2  A    between atoms: N_8  and  C_9
REMARK    3  A    between atoms: C_9  and  C_10
REMARK                            x       y       z     vdW  Elec       q    Type
REMARK                         _______ _______ _______ _____ _____    ______ ____
ROOT
ATOM      1  C   UNL     1      46.628   4.685  13.685  0.00  0.00    +0.000 A 
ATOM      2  C   UNL     1      46.881   5.848  12.965  0.00  0.00    +0.000 A 
ATOM      3  C   UNL     1      46.207   6.058  11.764  0.00  0.00    +0.000 A 
ATOM      4  C   UNL     1      45.317   5.096  11.286  0.00  0.00    +0.000 A 
ATOM      5  N   UNL     1      44.765   5.304  10.030  0.00  0.00    +0.000 N 
ATOM      6  N   UNL     1      45.074   3.962  11.971  0.00  0.00    +0.000 NA
ATOM      7  C   UNL     1      45.728   3.778  13.148  0.00  0.00    +0.000 A 
ATOM      8  H   UNL     1      44.268   6.182   9.953  0.00  0.00    +0.000 HD
ENDROOT
BRANCH   1  10
ATOM      9  N   UNL     1      47.527   5.402  15.824  0.00  0.00    +0.000 N 
ATOM     10  C   UNL     1      47.296   4.366  14.964  0.00  0.00    +0.000 C 
ATOM     11  O   UNL     1      47.605   3.219  15.257  0.00  0.00    +0.000 OA
ATOM     12  H   UNL     1      47.900   5.157  16.734  0.00  0.00    +0.000 HD
ATOM     13  H   UNL     1      47.091   6.308  15.727  0.00  0.00    +0.000 HD
ENDBRANCH   1  10
BRANCH   5  14
ATOM     14  C   UNL     1      44.121   4.191   9.356  0.00  0.00    +0.000 C 
BRANCH  14  15
ATOM     15  C   UNL     1      45.197   3.428   8.610  0.00  0.00    +0.000 A 
ATOM     16  C   UNL     1      46.047   4.118   7.723  0.00  0.00    +0.000 A 
ATOM     17  C   UNL     1      47.042   3.444   7.018  0.00  0.00    +0.000 A 
ATOM     18  C   UNL     1      47.200   2.080   7.208  0.00  0.00    +0.000 A 
ATOM     19  F   UNL     1      48.157   1.427   6.533  0.00  0.00    +0.000 F 
ATOM     20  C   UNL     1      46.382   1.377   8.087  0.00  0.00    +0.000 A 
ATOM     21  C   UNL     1      45.377   2.050   8.789  0.00  0.00    +0.000 A 
ENDBRANCH  14  15
ENDBRANCH   5  14
TORSDOF 3
ENDMDL
MODEL 2
REMARK VINA RESULT:    -7.944      3.534      6.416
REMARK INTER + INTRA:          -9.740
REMARK INTER:                  -9.342
REMARK INTRA:                  -0.398
REMARK UNBOUND:                -0.404
REMARK  Name = 
REMARK  3 active torsions:
REMARK  status: ('A' for Active; 'I' for Inactive)
REMARK    1  A    between atoms: C_2  and  C_4
REMARK    2  A    between atoms: N_8  and  C_9
REMARK    3  A    between atoms: C_9  and  C_10
REMARK                            x       y       z     vdW  Elec       q    Type
REMARK                         _______ _______ _______ _____ _____    ______ ____
ROOT
ATOM      1  C   UNL     1      46.520   2.616   7.429  0.00  0.00    +0.000 A 
ATOM      2  C   UNL     1      45.956   1.664   8.273  0.00  0.00    +0.000 A 
ATOM      3  C   UNL     1      45.044   2.079   9.243  0.00  0.00    +0.000 A 
ATOM      4  C   UNL     1      44.733   3.432   9.375  0.00  0.00    +0.000 A 
ATOM      5  N   UNL     1      43.912   3.799  10.431  0.00  0.00    +0.000 N 
ATOM      6  N   UNL     1      45.282   4.360   8.569  0.00  0.00    +0.000 NA
ATOM      7  C   UNL     1      46.159   3.940   7.619  0.00  0.00    +0.000 A 
ATOM      8  H   UNL     1      43.019   3.323  10.426  0.00  0.00    +0.000 HD
ENDROOT
BRANCH   1  10
ATOM      9  N   UNL     1      47.485   3.040   5.242  0.00  0.00    +0.000 N 
ATOM     10  C   UNL     1      47.500   2.280   6.377  0.00  0.00    +0.000 C 
ATOM     11  O   UNL     1      48.314   1.378   6.524  0.00  0.00    +0.000 OA
ATOM     12  H   UNL     1      48.221   2.860   4.569  0.00  0.00    +0.000 HD
ATOM     13  H   UNL     1      46.996   3.921   5.173  0.00  0.00    +0.000 HD
ENDBRANCH   1  10
BRANCH   5  14
ATOM     14  C   UNL     1      43.842   5.198  10.811  0.00  0.00    +0.000 C 
BRANCH  14  15
ATOM     15  C   UNL     1      45.008   5.475  11.740  0.00  0.00    +0.000 A 
ATOM     16  C   UNL     1      45.161   4.703  12.908  0.00  0.00    +0.000 A 
ATOM     17  C   UNL     1      46.219   4.937  13.785  0.00  0.00    +0.000 A 
ATOM     18  C   UNL     1      47.135   5.934  13.488  0.00  0.00    +0.000 A 
ATOM     19  F   UNL     1      48.155   6.162  14.328  0.00  0.00    +0.000 F 
ATOM     20  C   UNL     1      47.013   6.702  12.335  0.00  0.00    +0.000 A 
ATOM     21  C   UNL     1      45.948   6.475  11.458  0.00  0.00    +0.000 A 
ENDBRANCH  14  15
ENDBRANCH   5  14
TORSDOF 3
ENDMDL
MODEL 3
REMARK VINA RESULT:    -7.753      2.152      2.639
REMARK INTER + INTRA:          -9.516
REMARK INTER:                  -9.240
REMARK INTRA:                  -0.276
REMARK UNBOUND:                -0.404
REMARK  Name = 
REMARK  3 active torsions:
REMARK  status: ('A' for Active; 'I' for Inactive)
REMARK    1  A    between atoms: C_2  and  C_4
REMARK    2  A    between atoms: N_8  and  C_9
REMARK    3  A    between atoms: C_9  and  C_10
REMARK                            x       y       z     vdW  Elec       q    Type
REMARK                         _______ _______ _______ _____ _____    ______ ____
ROOT
ATOM      1  C   UNL     1      45.587   6.702  12.399  0.00  0.00    +0.000 A 
ATOM      2  C   UNL     1      45.771   5.577  13.198  0.00  0.00    +0.000 A 
ATOM      3  C   UNL     1      45.622   4.314  12.628  0.00  0.00    +0.000 A 
ATOM      4  C   UNL     1      45.265   4.192  11.285  0.00  0.00    +0.000 A 
ATOM      5  N   UNL     1      45.016   2.914  10.804  0.00  0.00    +0.000 N 
ATOM      6  N   UNL     1      45.075   5.274  10.508  0.00  0.00    +0.000 NA
ATOM      7  C   UNL     1      45.237   6.500  11.073  0.00  0.00    +0.000 A 
ATOM      8  H   UNL     1      45.798   2.283  10.927  0.00  0.00    +0.000 HD
ENDROOT
BRANCH   1  10
ATOM      9  N   UNL     1      44.733   8.969  12.564  0.00  0.00    +0.000 N 
ATOM     10  C   UNL     1      45.714   8.082  12.908  0.00  0.00    +0.000 C 
ATOM     11  O   UNL     1      46.641   8.415  13.634  0.00  0.00    +0.000 OA
ATOM     12  H   UNL     1      44.782   9.884  12.995  0.00  0.00    +0.000 HD
ATOM     13  H   UNL     1      43.848   8.687  12.168  0.00  0.00    +0.000 HD
ENDBRANCH   1  10
BRANCH   5  14
ATOM     14  C   UNL     1      44.320   2.765   9.539  0.00  0.00    +0.000 C 
BRANCH  14  15
ATOM     15  C   UNL     1      45.368   2.527   8.470  0.00  0.00    +0.000 A 
ATOM     16  C   UNL     1      45.678   3.558   7.562  0.00  0.00    +0.000 A 
ATOM     17  C   UNL     1      46.632   3.367   6.564  0.00  0.00    +0.000 A 
ATOM     18  C   UNL     1      47.289   2.149   6.481  0.00  0.00    +0.000 A 
ATOM     19  F   UNL     1      48.209   1.962   5.523  0.00  0.00    +0.000 F 
ATOM     20  C   UNL     1      47.010   1.119   7.373  0.00  0.00    +0.000 A 
ATOM     21  C   UNL     1      46.047   1.305   8.369  0.00  0.00    +0.000 A 
ENDBRANCH  14  15
ENDBRANCH   5  14
TORSDOF 3
ENDMDL
MODEL 4
REMARK VINA RESULT:    -7.474      1.238      1.748
REMARK INTER + INTRA:          -9.188
REMARK INTER:                  -8.792
REMARK INTRA:                  -0.397
REMARK UNBOUND:                -0.404
REMARK  Name = 
REMARK  3 active torsions:
REMARK  status: ('A' for Active; 'I' for Inactive)
REMARK    1  A    between atoms: C_2  and  C_4
REMARK    2  A    between atoms: N_8  and  C_9
REMARK    3  A    between atoms: C_9  and  C_10
REMARK                            x       y       z     vdW  Elec       q    Type
REMARK                         _______ _______ _______ _____ _____    ______ ____
ROOT
ATOM      1  C   UNL     1      47.306   6.129  13.462  0.00  0.00    +0.000 A 
ATOM      2  C   UNL     1      47.261   7.089  12.456  0.00  0.00    +0.000 A 
ATOM      3  C   UNL     1      46.361   6.922  11.405  0.00  0.00    +0.000 A 
ATOM      4  C   UNL     1      45.545   5.793  11.358  0.00  0.00    +0.000 A 
ATOM      5  N   UNL     1      44.754   5.622  10.230  0.00  0.00    +0.000 N 
ATOM      6  N   UNL     1      45.589   4.854  12.322  0.00  0.00    +0.000 NA
ATOM      7  C   UNL     1      46.461   5.036  13.348  0.00  0.00    +0.000 A 
ATOM      8  H   UNL     1      44.134   6.402  10.057  0.00  0.00    +0.000 HD
ENDROOT
BRANCH   1  10
ATOM      9  N   UNL     1      47.799   5.684  15.798  0.00  0.00    +0.000 N 
ATOM     10  C   UNL     1      48.229   6.209  14.613  0.00  0.00    +0.000 C 
ATOM     11  O   UNL     1      49.345   6.699  14.506  0.00  0.00    +0.000 OA
ATOM     12  H   UNL     1      48.475   5.661  16.553  0.00  0.00    +0.000 HD
ATOM     13  H   UNL     1      46.995   5.077  15.874  0.00  0.00    +0.000 HD
ENDBRANCH   1  10
BRANCH   5  14
ATOM     14  C   UNL     1      44.163   4.320   9.980  0.00  0.00    +0.000 C 
BRANCH  14  15
ATOM     15  C   UNL     1      45.081   3.581   9.027  0.00  0.00    +0.000 A 
ATOM     16  C   UNL     1      45.166   2.176   9.097  0.00  0.00    +0.000 A 
ATOM     17  C   UNL     1      46.006   1.469   8.239  0.00  0.00    +0.000 A 
ATOM     18  C   UNL     1      46.753   2.162   7.299  0.00  0.00    +0.000 A 
ATOM     19  F   UNL     1      47.561   1.485   6.470  0.00  0.00    +0.000 F 
ATOM     20  C   UNL     1      46.678   3.548   7.201  0.00  0.00    +0.000 A 
ATOM     21  C   UNL     1      45.843   4.260   8.067  0.00  0.00    +0.000 A 
ENDBRANCH  14  15
ENDBRANCH   5  14
TORSDOF 3
ENDMDL
MODEL 5
REMARK VINA RESULT:    -6.055      4.095      7.485
REMARK INTER + INTRA:          -7.520
REMARK INTER:                  -7.216
REMARK INTRA:                  -0.304
REMARK UNBOUND:                -0.404
REMARK  Name = 
REMARK  3 active torsions:
REMARK  status: ('A' for Active; 'I' for Inactive)
REMARK    1  A    between atoms: C_2  and  C_4
REMARK    2  A    between atoms: N_8  and  C_9
REMARK    3  A    between atoms: C_9  and  C_10
REMARK                            x       y       z     vdW  Elec       q    Type
REMARK                         _______ _______ _______ _____ _____    ______ ____
ROOT
ATOM      1  C   UNL     1      45.558   5.226  11.857  0.00  0.00    +0.000 A 
ATOM      2  C   UNL     1      46.195   6.402  12.245  0.00  0.00    +0.000 A 
ATOM      3  C   UNL     1      46.900   6.421  13.447  0.00  0.00    +0.000 A 
ATOM      4  C   UNL     1      46.935   5.284  14.254  0.00  0.00    +0.000 A 
ATOM      5  N   UNL     1      47.553   5.398  15.491  0.00  0.00    +0.000 N 
ATOM      6  N   UNL     1      46.313   4.146  13.891  0.00  0.00    +0.000 NA
ATOM      7  C   UNL     1      45.641   4.137  12.710  0.00  0.00    +0.000 A 
ATOM      8  H   UNL     1      48.514   5.707  15.430  0.00  0.00    +0.000 HD
ENDROOT
BRANCH   1  10
ATOM      9  N   UNL     1      43.492   5.565  10.626  0.00  0.00    +0.000 N 
ATOM     10  C   UNL     1      44.779   5.106  10.608  0.00  0.00    +0.000 C 
ATOM     11  O   UNL     1      45.271   4.643   9.588  0.00  0.00    +0.000 OA
ATOM     12  H   UNL     1      43.000   5.562   9.740  0.00  0.00    +0.000 HD
ATOM     13  H   UNL     1      43.125   6.152  11.361  0.00  0.00    +0.000 HD
ENDBRANCH   1  10
BRANCH   5  14
ATOM     14  C   UNL     1      47.316   4.370  16.489  0.00  0.00    +0.000 C 
BRANCH  14  15
ATOM     15  C   UNL     1      48.664   3.795  16.875  0.00  0.00    +0.000 A 
ATOM     16  C   UNL     1      48.926   2.429  16.648  0.00  0.00    +0.000 A 
ATOM     17  C   UNL     1      50.154   1.870  16.998  0.00  0.00    +0.000 A 
ATOM     18  C   UNL     1      51.129   2.677  17.563  0.00  0.00    +0.000 A 
ATOM     19  F   UNL     1      52.312   2.144  17.900  0.00  0.00    +0.000 F 
ATOM     20  C   UNL     1      50.900   4.031  17.787  0.00  0.00    +0.000 A 
ATOM     21  C   UNL     1      49.666   4.592  17.444  0.00  0.00    +0.000 A 
ENDBRANCH  14  15
ENDBRANCH   5  14
TORSDOF 3
ENDMDL
MODEL 6
REMARK VINA RESULT:    -5.902      3.091      5.144
REMARK INTER + INTRA:          -7.340
REMARK INTER:                  -7.055
REMARK INTRA:                  -0.285
REMARK UNBOUND:                -0.404
REMARK  Name = 
REMARK  3 active torsions:
REMARK  status: ('A' for Active; 'I' for Inactive)
REMARK    1  A    between atoms: C_2  and  C_4
REMARK    2  A    between atoms: N_8  and  C_9
REMARK    3  A    between atoms: C_9  and  C_10
REMARK                            x       y       z     vdW  Elec       q    Type
REMARK                         _______ _______ _______ _____ _____    ______ ____
ROOT
ATOM      1  C   UNL     1      49.045   4.463  18.170  0.00  0.00    +0.000 A 
ATOM      2  C   UNL     1      47.935   3.624  18.136  0.00  0.00    +0.000 A 
ATOM      3  C   UNL     1      47.151   3.588  16.984  0.00  0.00    +0.000 A 
ATOM      4  C   UNL     1      47.467   4.407  15.900  0.00  0.00    +0.000 A 
ATOM      5  N   UNL     1      46.585   4.416  14.829  0.00  0.00    +0.000 N 
ATOM      6  N   UNL     1      48.532   5.230  15.928  0.00  0.00    +0.000 NA
ATOM      7  C   UNL     1      49.296   5.244  17.052  0.00  0.00    +0.000 A 
ATOM      8  H   UNL     1      46.433   3.499  14.430  0.00  0.00    +0.000 HD
ENDROOT
BRANCH   1  10
ATOM      9  N   UNL     1      49.376   4.365  20.573  0.00  0.00    +0.000 N 
ATOM     10  C   UNL     1      49.933   4.579  19.344  0.00  0.00    +0.000 C 
ATOM     11  O   UNL     1      51.125   4.825  19.225  0.00  0.00    +0.000 OA
ATOM     12  H   UNL     1      50.012   4.355  21.361  0.00  0.00    +0.000 HD
ATOM     13  H   UNL     1      48.468   3.941  20.702  0.00  0.00    +0.000 HD
ENDBRANCH   1  10
BRANCH   5  14
ATOM     14  C   UNL     1      46.682   5.485  13.852  0.00  0.00    +0.000 C 
BRANCH  14  15
ATOM     15  C   UNL     1      46.001   5.005  12.585  0.00  0.00    +0.000 A 
ATOM     16  C   UNL     1      45.426   3.720  12.553  0.00  0.00    +0.000 A 
ATOM     17  C   UNL     1      44.798   3.247  11.402  0.00  0.00    +0.000 A 
ATOM     18  C   UNL     1      44.731   4.065  10.284  0.00  0.00    +0.000 A 
ATOM     19  F   UNL     1      44.127   3.615   9.174  0.00  0.00    +0.000 F 
ATOM     20  C   UNL     1      45.280   5.343  10.294  0.00  0.00    +0.000 A 
ATOM     21  C   UNL     1      45.918   5.815  11.445  0.00  0.00    +0.000 A 
ENDBRANCH  14  15
ENDBRANCH   5  14
TORSDOF 3
ENDMDL
MODEL 7
REMARK VINA RESULT:    -5.882      2.322      2.980
REMARK INTER + INTRA:          -7.317
REMARK INTER:                  -7.087
REMARK INTRA:                  -0.230
REMARK UNBOUND:                -0.404
REMARK  Name = 
REMARK  3 active torsions:
REMARK  status: ('A' for Active; 'I' for Inactive)
REMARK    1  A    between atoms: C_2  and  C_4
REMARK    2  A    between atoms: N_8  and  C_9
REMARK    3  A    between atoms: C_9  and  C_10
REMARK                            x       y       z     vdW  Elec       q    Type
REMARK                         _______ _______ _______ _____ _____    ______ ____
ROOT
ATOM      1  C   UNL     1      47.758   7.293  13.689  0.00  0.00    +0.000 A 
ATOM      2  C   UNL     1      46.812   8.090  13.052  0.00  0.00    +0.000 A 
ATOM      3  C   UNL     1      45.646   7.498  12.570  0.00  0.00    +0.000 A 
ATOM      4  C   UNL     1      45.455   6.123  12.703  0.00  0.00    +0.000 A 
ATOM      5  N   UNL     1      44.332   5.573  12.102  0.00  0.00    +0.000 N 
ATOM      6  N   UNL     1      46.370   5.343  13.309  0.00  0.00    +0.000 NA
ATOM      7  C   UNL     1      47.496   5.935  13.787  0.00  0.00    +0.000 A 
ATOM      8  H   UNL     1      43.466   5.991  12.417  0.00  0.00    +0.000 HD
ENDROOT
BRANCH   1  10
ATOM      9  N   UNL     1      50.183   7.402  13.629  0.00  0.00    +0.000 N 
ATOM     10  C   UNL     1      49.028   7.822  14.227  0.00  0.00    +0.000 C 
ATOM     11  O   UNL     1      49.048   8.626  15.148  0.00  0.00    +0.000 OA
ATOM     12  H   UNL     1      51.039   7.843  13.945  0.00  0.00    +0.000 HD
ATOM     13  H   UNL     1      50.204   6.930  12.737  0.00  0.00    +0.000 HD
ENDBRANCH   1  10
BRANCH   5  14
ATOM     14  C   UNL     1      44.271   4.134  11.917  0.00  0.00    +0.000 C 
BRANCH  14  15
ATOM     15  C   UNL     1      44.722   3.839  10.500  0.00  0.00    +0.000 A 
ATOM     16  C   UNL     1      44.580   2.536   9.985  0.00  0.00    +0.000 A 
ATOM     17  C   UNL     1      44.991   2.232   8.689  0.00  0.00    +0.000 A 
ATOM     18  C   UNL     1      45.532   3.234   7.898  0.00  0.00    +0.000 A 
ATOM     19  F   UNL     1      45.927   2.947   6.649  0.00  0.00    +0.000 F 
ATOM     20  C   UNL     1      45.671   4.532   8.378  0.00  0.00    +0.000 A 
ATOM     21  C   UNL     1      45.268   4.837   9.681  0.00  0.00    +0.000 A 
ENDBRANCH  14  15
ENDBRANCH   5  14
TORSDOF 3
ENDMDL
MODEL 8
REMARK VINA RESULT:    -5.771      3.948      6.109
REMARK INTER + INTRA:          -7.187
REMARK INTER:                  -6.891
REMARK INTRA:                  -0.296
REMARK UNBOUND:                -0.404
REMARK  Name = 
REMARK  3 active torsions:
REMARK  status: ('A' for Active; 'I' for Inactive)
REMARK    1  A    between atoms: C_2  and  C_4
REMARK    2  A    between atoms: N_8  and  C_9
REMARK    3  A    between atoms: C_9  and  C_10
REMARK                            x       y       z     vdW  Elec       q    Type
REMARK                         _______ _______ _______ _____ _____    ______ ____
ROOT
ATOM      1  C   UNL     1      44.586   4.070  11.711  0.00  0.00    +0.000 A 
ATOM      2  C   UNL     1      45.336   3.969  12.879  0.00  0.00    +0.000 A 
ATOM      3  C   UNL     1      45.896   5.124  13.423  0.00  0.00    +0.000 A 
ATOM      4  C   UNL     1      45.725   6.350  12.781  0.00  0.00    +0.000 A 
ATOM      5  N   UNL     1      46.401   7.444  13.303  0.00  0.00    +0.000 N 
ATOM      6  N   UNL     1      45.010   6.455  11.645  0.00  0.00    +0.000 NA
ATOM      7  C   UNL     1      44.458   5.323  11.134  0.00  0.00    +0.000 A 
ATOM      8  H   UNL     1      46.181   7.622  14.275  0.00  0.00    +0.000 HD
ENDROOT
BRANCH   1  10
ATOM      9  N   UNL     1      44.615   2.365   9.982  0.00  0.00    +0.000 N 
ATOM     10  C   UNL     1      43.960   2.905  11.052  0.00  0.00    +0.000 C 
ATOM     11  O   UNL     1      42.914   2.423  11.463  0.00  0.00    +0.000 OA
ATOM     12  H   UNL     1      44.224   1.512   9.598  0.00  0.00    +0.000 HD
ATOM     13  H   UNL     1      45.575   2.581   9.755  0.00  0.00    +0.000 HD
ENDBRANCH   1  10
BRANCH   5  14
ATOM     14  C   UNL     1      46.533   8.639  12.490  0.00  0.00    +0.000 C 
BRANCH  14  15
ATOM     15  C   UNL     1      47.984   8.741  12.065  0.00  0.00    +0.000 A 
ATOM     16  C   UNL     1      48.527  10.002  11.751  0.00  0.00    +0.000 A 
ATOM     17  C   UNL     1      49.856  10.127  11.350  0.00  0.00    +0.000 A 
ATOM     18  C   UNL     1      50.650   8.993  11.277  0.00  0.00    +0.000 A 
ATOM     19  F   UNL     1      51.930   9.108  10.894  0.00  0.00    +0.000 F 
ATOM     20  C   UNL     1      50.142   7.737  11.594  0.00  0.00    +0.000 A 
ATOM     21  C   UNL     1      48.806   7.608  11.987  0.00  0.00    +0.000 A 
ENDBRANCH  14  15
ENDBRANCH   5  14
TORSDOF 3
ENDMDL
MODEL 9
REMARK VINA RESULT:    -5.737      2.598      3.143
REMARK INTER + INTRA:          -7.147
REMARK INTER:                  -6.802
REMARK INTRA:                  -0.345
REMARK UNBOUND:                -0.404
REMARK  Name = 
REMARK  3 active torsions:
REMARK  status: ('A' for Active; 'I' for Inactive)
REMARK    1  A    between atoms: C_2  and  C_4
REMARK    2  A    between atoms: N_8  and  C_9
REMARK    3  A    between atoms: C_9  and  C_10
REMARK                            x       y       z     vdW  Elec       q    Type
REMARK                         _______ _______ _______ _____ _____    ______ ____
ROOT
ATOM      1  C   UNL     1      47.882   8.024  13.192  0.00  0.00    +0.000 A 
ATOM      2  C   UNL     1      47.864   6.903  14.017  0.00  0.00    +0.000 A 
ATOM      3  C   UNL     1      47.149   5.778  13.609  0.00  0.00    +0.000 A 
ATOM      4  C   UNL     1      46.444   5.797  12.406  0.00  0.00    +0.000 A 
ATOM      5  N   UNL     1      45.658   4.693  12.109  0.00  0.00    +0.000 N 
ATOM      6  N   UNL     1      46.448   6.880  11.607  0.00  0.00    +0.000 NA
ATOM      7  C   UNL     1      47.160   7.966  12.010  0.00  0.00    +0.000 A 
ATOM      8  H   UNL     1      46.178   3.825  12.095  0.00  0.00    +0.000 HD
ENDROOT
BRANCH   1  10
ATOM      9  N   UNL     1      48.340   9.823  14.757  0.00  0.00    +0.000 N 
ATOM     10  C   UNL     1      48.601   9.267  13.537  0.00  0.00    +0.000 C 
ATOM     11  O   UNL     1      49.421   9.765  12.777  0.00  0.00    +0.000 OA
ATOM     12  H   UNL     1      48.907  10.620  15.020  0.00  0.00    +0.000 HD
ATOM     13  H   UNL     1      47.856   9.332  15.495  0.00  0.00    +0.000 HD
ENDBRANCH   1  10
BRANCH   5  14
ATOM     14  C   UNL     1      44.657   4.807  11.064  0.00  0.00    +0.000 C 
BRANCH  14  15
ATOM     15  C   UNL     1      45.157   4.021   9.869  0.00  0.00    +0.000 A 
ATOM     16  C   UNL     1      45.758   4.703   8.793  0.00  0.00    +0.000 A 
ATOM     17  C   UNL     1      46.222   4.008   7.677  0.00  0.00    +0.000 A 
ATOM     18  C   UNL     1      46.100   2.628   7.640  0.00  0.00    +0.000 A 
ATOM     19  F   UNL     1      46.546   1.955   6.570  0.00  0.00    +0.000 F 
ATOM     20  C   UNL     1      45.521   1.929   8.695  0.00  0.00    +0.000 A 
ATOM     21  C   UNL     1      45.047   2.625   9.811  0.00  0.00    +0.000 A 
ENDBRANCH  14  15
ENDBRANCH   5  14
TORSDOF 3
ENDMDL
