MODEL 1
REMARK VINA RESULT:    -8.029      0.000      0.000
REMARK INTER + INTRA:         -11.585
REMARK INTER:                 -10.845
REMARK INTRA:                  -0.740
REMARK UNBOUND:                -0.740
REMARK  Name = 
REMARK  6 active torsions:
REMARK  status: ('A' for Active; 'I' for Inactive)
REMARK    1  A    between atoms: C_2  and  C_25
REMARK    2  A    between atoms: N_3  and  C_4
REMARK    3  A    between atoms: C_4  and  C_5
REMARK    4  A    between atoms: C_8  and  C_9
REMARK    5  A    between atoms: C_9  and  N_10
REMARK    6  A    between atoms: C_11  and  C_13
REMARK                            x       y       z     vdW  Elec       q    Type
REMARK                         _______ _______ _______ _____ _____    ______ ____
ROOT
ATOM      1  C   UNL     1      44.652   5.614  11.298  0.00  0.00    +0.000 A 
ATOM      2  C   UNL     1      45.667   5.019  12.049  0.00  0.00    +0.000 A 
ATOM      3  C   UNL     1      46.504   5.810  12.833  0.00  0.00    +0.000 A 
ATOM      4  C   UNL     1      46.323   7.189  12.827  0.00  0.00    +0.000 A 
ATOM      5  N   UNL     1      45.332   7.790  12.119  0.00  0.00    +0.000 NA
ATOM      6  C   UNL     1      44.525   6.996  11.380  0.00  0.00    +0.000 A 
ENDROOT
BRANCH   1   7
ATOM      7  C   UNL     1      43.741   4.802  10.432  0.00  0.00    +0.000 C 
BRANCH   7  10
ATOM      8  O   UNL     1      45.590   5.136   8.384  0.00  0.00    +0.000 OA
ATOM      9  C   UNL     1      45.339   3.995   8.768  0.00  0.00    +0.000 C 
ATOM     10  N   UNL     1      44.426   3.723   9.763  0.00  0.00    +0.000 N 
ATOM     11  H   UNL     1      44.298   2.754  10.042  0.00  0.00    +0.000 HD
BRANCH   9  12
ATOM     12  C   UNL     1      46.035   2.826   8.170  0.00  0.00    +0.000 A 
ATOM     13  C   UNL     1      45.708   1.547   8.600  0.00  0.00    +0.000 A 
ATOM     14  N   UNL     1      46.295   0.436   8.087  0.00  0.00    +0.000 NA
ATOM     15  C   UNL     1      47.224   0.664   7.132  0.00  0.00    +0.000 A 
ATOM     16  C   UNL     1      47.554   1.943   6.704  0.00  0.00    +0.000 A 
ATOM     17  N   UNL     1      46.971   3.061   7.202  0.00  0.00    +0.000 NA
ENDBRANCH   9  12
ENDBRANCH   7  10
ENDBRANCH   1   7
BRANCH   4  18
ATOM     18  C   UNL     1      47.252   8.081  13.615  0.00  0.00    +0.000 C 
BRANCH  18  19
ATOM     19  N   UNL     1      47.718   7.466  14.834  0.00  0.00    +0.000 N 
ATOM     20  C   UNL     1      48.981   6.964  14.973  0.00  0.00    +0.000 C 
ATOM     21  O   UNL     1      49.799   6.982  14.058  0.00  0.00    +0.000 OA
ATOM     22  H   UNL     1      46.997   7.227  15.510  0.00  0.00    +0.000 HD
BRANCH  20  23
ATOM     23  C   UNL     1      49.341   6.469  16.310  0.00  0.00    +0.000 A 
ATOM     24  C   UNL     1      50.354   7.090  17.027  0.00  0.00    +0.000 A 
ATOM     25  S   UNL     1      50.619   6.413  18.569  0.00  0.00    +0.000 S 
ATOM     26  C   UNL     1      49.416   5.236  18.318  0.00  0.00    +0.000 A 
ATOM     27  N   UNL     1      49.151   4.293  19.263  0.00  0.00    +0.000 NA
ATOM     28  C   UNL     1      48.241   3.441  18.925  0.00  0.00    +0.000 A 
ATOM     29  N   UNL     1      47.563   3.455  17.735  0.00  0.00    +0.000 N 
ATOM     30  C   UNL     1      47.754   4.422  16.779  0.00  0.00    +0.000 A 
ATOM     31  O   UNL     1      47.056   4.467  15.772  0.00  0.00    +0.000 OA
ATOM     32  C   UNL     1      48.800   5.377  17.088  0.00  0.00    +0.000 A 
ATOM     33  H   UNL     1      46.841   2.777  17.541  0.00  0.00    +0.000 HD
ENDBRANCH  20  23
ENDBRANCH  18  19
ENDBRANCH   4  18
TORSDOF 6
ENDMDL
MODEL 2
REMARK VINA RESULT:    -7.539      1.823      2.251
REMARK INTER + INTRA:         -10.924
REMARK INTER:                 -10.140
REMARK INTRA:                  -0.783
REMARK UNBOUND:                -0.740
REMARK  Name = 
REMARK  6 active torsions:
REMARK  status: ('A' for Active; 'I' for Inactive)
REMARK    1  A    between atoms: C_2  and  C_25
REMARK    2  A    between atoms: N_3  and  C_4
REMARK    3  A    between atoms: C_4  and  C_5
REMARK    4  A    between atoms: C_8  and  C_9
REMARK    5  A    between atoms: C_9  and  N_10
REMARK    6  A    between atoms: C_11  and  C_13
REMARK                            x       y       z     vdW  Elec       q    Type
REMARK                         _______ _______ _______ _____ _____    ______ ____
ROOT
ATOM      1  C   UNL     1      44.670   4.651  11.711  0.00  0.00    +0.000 A 
ATOM      2  C   UNL     1      45.657   4.761  12.692  0.00  0.00    +0.000 A 
ATOM      3  C   UNL     1      46.040   6.017  13.154  0.00  0.00    +0.000 A 
ATOM      4  C   UNL     1      45.442   7.146  12.602  0.00  0.00    +0.000 A 
ATOM      5  N   UNL     1      44.468   7.066  11.659  0.00  0.00    +0.000 NA
ATOM      6  C   UNL     1      44.106   5.832  11.241  0.00  0.00    +0.000 A 
ENDROOT
BRANCH   1   7
ATOM      7  C   UNL     1      44.241   3.321  11.177  0.00  0.00    +0.000 C 
BRANCH   7  10
ATOM      8  O   UNL     1      44.072   4.074   8.507  0.00  0.00    +0.000 OA
ATOM      9  C   UNL     1      44.953   3.284   8.839  0.00  0.00    +0.000 C 
ATOM     10  N   UNL     1      45.109   2.835  10.132  0.00  0.00    +0.000 N 
ATOM     11  H   UNL     1      45.881   2.205  10.330  0.00  0.00    +0.000 HD
BRANCH   9  12
ATOM     12  C   UNL     1      45.924   2.770   7.838  0.00  0.00    +0.000 A 
ATOM     13  C   UNL     1      46.438   1.488   7.985  0.00  0.00    +0.000 A 
ATOM     14  N   UNL     1      47.318   0.952   7.101  0.00  0.00    +0.000 NA
ATOM     15  C   UNL     1      47.662   1.757   6.072  0.00  0.00    +0.000 A 
ATOM     16  C   UNL     1      47.151   3.040   5.926  0.00  0.00    +0.000 A 
ATOM     17  N   UNL     1      46.267   3.585   6.797  0.00  0.00    +0.000 NA
ENDBRANCH   9  12
ENDBRANCH   7  10
ENDBRANCH   1   7
BRANCH   4  18
ATOM     18  C   UNL     1      45.878   8.525  13.034  0.00  0.00    +0.000 C 
BRANCH  18  19
ATOM     19  N   UNL     1      46.748   8.502  14.185  0.00  0.00    +0.000 N 
ATOM     20  C   UNL     1      47.973   9.108  14.198  0.00  0.00    +0.000 C 
ATOM     21  O   UNL     1      48.425   9.694  13.219  0.00  0.00    +0.000 OA
ATOM     22  H   UNL     1      46.503   7.832  14.908  0.00  0.00    +0.000 HD
BRANCH  20  23
ATOM     23  C   UNL     1      48.693   9.091  15.479  0.00  0.00    +0.000 A 
ATOM     24  C   UNL     1      48.937  10.282  16.150  0.00  0.00    +0.000 A 
ATOM     25  S   UNL     1      49.751  10.079  17.634  0.00  0.00    +0.000 S 
ATOM     26  C   UNL     1      49.845   8.395  17.414  0.00  0.00    +0.000 A 
ATOM     27  N   UNL     1      50.469   7.603  18.329  0.00  0.00    +0.000 NA
ATOM     28  C   UNL     1      50.498   6.350  18.017  0.00  0.00    +0.000 A 
ATOM     29  N   UNL     1      49.949   5.815  16.882  0.00  0.00    +0.000 N 
ATOM     30  C   UNL     1      49.259   6.567  15.963  0.00  0.00    +0.000 A 
ATOM     31  O   UNL     1      48.688   6.042  15.012  0.00  0.00    +0.000 OA
ATOM     32  C   UNL     1      49.236   7.989  16.241  0.00  0.00    +0.000 A 
ATOM     33  H   UNL     1      49.981   4.822  16.708  0.00  0.00    +0.000 HD
ENDBRANCH  20  23
ENDBRANCH  18  19
ENDBRANCH   4  18
TORSDOF 6
ENDMDL
MODEL 3
REMARK VINA RESULT:    -7.278      3.153      8.760
REMARK INTER + INTRA:         -10.571
REMARK INTER:                  -9.613
REMARK INTRA:                  -0.958
REMARK UNBOUND:                -0.740
REMARK  Name = 
REMARK  6 active torsions:
REMARK  status: ('A' for Active; 'I' for Inactive)
REMARK    1  A    between atoms: C_2  and  C_25
REMARK    2  A    between atoms: N_3  and  C_4
REMARK    3  A    between atoms: C_4  and  C_5
REMARK    4  A    between atoms: C_8  and  C_9
REMARK    5  A    between atoms: C_9  and  N_10
REMARK    6  A    between atoms: C_11  and  C_13
REMARK                            x       y       z     vdW  Elec       q    Type
REMARK                         _______ _______ _______ _____ _____    ______ ____
ROOT
ATOM      1  C   UNL     1      50.151   7.241  15.377  0.00  0.00    +0.000 A 
ATOM      2  C   UNL     1      50.646   7.829  14.212  0.00  0.00    +0.000 A 
ATOM      3  C   UNL     1      49.817   7.976  13.102  0.00  0.00    +0.000 A 
ATOM      4  C   UNL     1      48.510   7.504  13.174  0.00  0.00    +0.000 A 
ATOM      5  N   UNL     1      48.000   6.944  14.301  0.00  0.00    +0.000 NA
ATOM      6  C   UNL     1      48.824   6.829  15.367  0.00  0.00    +0.000 A 
ENDROOT
BRANCH   1   7
ATOM      7  C   UNL     1      51.013   7.052  16.585  0.00  0.00    +0.000 C 
BRANCH   7  10
ATOM      8  O   UNL     1      50.049   5.245  18.464  0.00  0.00    +0.000 OA
ATOM      9  C   UNL     1      50.922   4.870  17.684  0.00  0.00    +0.000 C 
ATOM     10  N   UNL     1      51.477   5.693  16.729  0.00  0.00    +0.000 N 
ATOM     11  H   UNL     1      52.174   5.298  16.103  0.00  0.00    +0.000 HD
BRANCH   9  12
ATOM     12  C   UNL     1      51.425   3.472  17.726  0.00  0.00    +0.000 A 
ATOM     13  C   UNL     1      50.629   2.448  17.231  0.00  0.00    +0.000 A 
ATOM     14  N   UNL     1      51.032   1.151  17.228  0.00  0.00    +0.000 NA
ATOM     15  C   UNL     1      52.261   0.930  17.744  0.00  0.00    +0.000 A 
ATOM     16  C   UNL     1      53.056   1.953  18.243  0.00  0.00    +0.000 A 
ATOM     17  N   UNL     1      52.669   3.252  18.246  0.00  0.00    +0.000 NA
ENDBRANCH   9  12
ENDBRANCH   7  10
ENDBRANCH   1   7
BRANCH   4  18
ATOM     18  C   UNL     1      47.604   7.590  11.970  0.00  0.00    +0.000 C 
BRANCH  18  19
ATOM     19  N   UNL     1      46.850   6.379  11.751  0.00  0.00    +0.000 N 
ATOM     20  C   UNL     1      45.485   6.362  11.678  0.00  0.00    +0.000 C 
ATOM     21  O   UNL     1      44.808   7.376  11.819  0.00  0.00    +0.000 OA
ATOM     22  H   UNL     1      47.365   5.512  11.870  0.00  0.00    +0.000 HD
BRANCH  20  23
ATOM     23  C   UNL     1      44.869   5.071  11.340  0.00  0.00    +0.000 A 
ATOM     24  C   UNL     1      44.059   4.429  12.268  0.00  0.00    +0.000 A 
ATOM     25  S   UNL     1      43.398   2.962  11.703  0.00  0.00    +0.000 S 
ATOM     26  C   UNL     1      44.205   3.111  10.212  0.00  0.00    +0.000 A 
ATOM     27  N   UNL     1      44.092   2.148   9.256  0.00  0.00    +0.000 NA
ATOM     28  C   UNL     1      44.786   2.372   8.190  0.00  0.00    +0.000 A 
ATOM     29  N   UNL     1      45.570   3.477   7.987  0.00  0.00    +0.000 N 
ATOM     30  C   UNL     1      45.665   4.501   8.898  0.00  0.00    +0.000 A 
ATOM     31  O   UNL     1      46.290   5.524   8.641  0.00  0.00    +0.000 OA
ATOM     32  C   UNL     1      44.942   4.278  10.134  0.00  0.00    +0.000 A 
ATOM     33  H   UNL     1      46.068   3.609   7.119  0.00  0.00    +0.000 HD
ENDBRANCH  20  23
ENDBRANCH  18  19
ENDBRANCH   4  18
TORSDOF 6
ENDMDL
MODEL 4
REMARK VINA RESULT:    -7.086      3.612      8.437
REMARK INTER + INTRA:         -10.311
REMARK INTER:                  -9.485
REMARK INTRA:                  -0.825
REMARK UNBOUND:                -0.740
REMARK  Name = 
REMARK  6 active torsions:
REMARK  status: ('A' for Active; 'I' for Inactive)
REMARK    1  A    between atoms: C_2  and  C_25
REMARK    2  A    between atoms: N_3  and  C_4
REMARK    3  A    between atoms: C_4  and  C_5
REMARK    4  A    between atoms: C_8  and  C_9
REMARK    5  A    between atoms: C_9  and  N_10
REMARK    6  A    between atoms: C_11  and  C_13
REMARK                            x       y       z     vdW  Elec       q    Type
REMARK                         _______ _______ _______ _____ _____    ______ ____
ROOT
ATOM      1  C   UNL     1      50.455   7.234  15.613  0.00  0.00    +0.000 A 
ATOM      2  C   UNL     1      49.125   6.825  15.497  0.00  0.00    +0.000 A 
ATOM      3  C   UNL     1      48.429   7.052  14.313  0.00  0.00    +0.000 A 
ATOM      4  C   UNL     1      49.074   7.712  13.271  0.00  0.00    +0.000 A 
ATOM      5  N   UNL     1      50.372   8.104  13.352  0.00  0.00    +0.000 NA
ATOM      6  C   UNL     1      51.027   7.856  14.509  0.00  0.00    +0.000 A 
ENDROOT
BRANCH   1   7
ATOM      7  C   UNL     1      51.232   7.021  16.873  0.00  0.00    +0.000 C 
BRANCH   7  10
ATOM      8  O   UNL     1      49.997   5.005  18.335  0.00  0.00    +0.000 OA
ATOM      9  C   UNL     1      51.037   4.741  17.733  0.00  0.00    +0.000 C 
ATOM     10  N   UNL     1      51.733   5.674  16.996  0.00  0.00    +0.000 N 
ATOM     11  H   UNL     1      52.568   5.368  16.505  0.00  0.00    +0.000 HD
BRANCH   9  12
ATOM     12  C   UNL     1      51.599   3.366  17.763  0.00  0.00    +0.000 A 
ATOM     13  C   UNL     1      50.817   2.302  17.336  0.00  0.00    +0.000 A 
ATOM     14  N   UNL     1      51.273   1.023  17.325  0.00  0.00    +0.000 NA
ATOM     15  C   UNL     1      52.541   0.861  17.764  0.00  0.00    +0.000 A 
ATOM     16  C   UNL     1      53.323   1.925  18.195  0.00  0.00    +0.000 A 
ATOM     17  N   UNL     1      52.882   3.206  18.204  0.00  0.00    +0.000 NA
ENDBRANCH   9  12
ENDBRANCH   7  10
ENDBRANCH   1   7
BRANCH   4  18
ATOM     18  C   UNL     1      48.331   8.031  11.997  0.00  0.00    +0.000 C 
BRANCH  18  19
ATOM     19  N   UNL     1      47.589   6.904  11.485  0.00  0.00    +0.000 N 
ATOM     20  C   UNL     1      46.223   6.863  11.471  0.00  0.00    +0.000 C 
ATOM     21  O   UNL     1      45.535   7.777  11.916  0.00  0.00    +0.000 OA
ATOM     22  H   UNL     1      48.126   6.054  11.337  0.00  0.00    +0.000 HD
BRANCH  20  23
ATOM     23  C   UNL     1      45.614   5.696  10.817  0.00  0.00    +0.000 A 
ATOM     24  C   UNL     1      45.754   5.521   9.447  0.00  0.00    +0.000 A 
ATOM     25  S   UNL     1      45.018   4.100   8.858  0.00  0.00    +0.000 S 
ATOM     26  C   UNL     1      44.448   3.689  10.408  0.00  0.00    +0.000 A 
ATOM     27  N   UNL     1      43.694   2.573  10.602  0.00  0.00    +0.000 NA
ATOM     28  C   UNL     1      43.299   2.402  11.820  0.00  0.00    +0.000 A 
ATOM     29  N   UNL     1      43.601   3.238  12.863  0.00  0.00    +0.000 N 
ATOM     30  C   UNL     1      44.408   4.341  12.724  0.00  0.00    +0.000 A 
ATOM     31  O   UNL     1      44.747   5.007  13.696  0.00  0.00    +0.000 OA
ATOM     32  C   UNL     1      44.841   4.605  11.366  0.00  0.00    +0.000 A 
ATOM     33  H   UNL     1      43.285   3.036  13.800  0.00  0.00    +0.000 HD
ENDBRANCH  20  23
ENDBRANCH  18  19
ENDBRANCH   4  18
TORSDOF 6
ENDMDL
MODEL 5
REMARK VINA RESULT:    -7.034      1.726      2.057
REMARK INTER + INTRA:         -10.241
REMARK INTER:                  -9.440
REMARK INTRA:                  -0.801
REMARK UNBOUND:                -0.740
REMARK  Name = 
REMARK  6 active torsions:
REMARK  status: ('A' for Active; 'I' for Inactive)
REMARK    1  A    between atoms: C_2  and  C_25
REMARK    2  A    between atoms: N_3  and  C_4
REMARK    3  A    between atoms: C_4  and  C_5
REMARK    4  A    between atoms: C_8  and  C_9
REMARK    5  A    between atoms: C_9  and  N_10
REMARK    6  A    between atoms: C_11  and  C_13
REMARK                            x       y       z     vdW  Elec       q    Type
REMARK                         _______ _______ _______ _____ _____    ______ ____
ROOT
ATOM      1  C   UNL     1      45.074   5.878  11.442  0.00  0.00    +0.000 A 
ATOM      2  C   UNL     1      45.668   5.134  12.463  0.00  0.00    +0.000 A 
ATOM      3  C   UNL     1      46.495   5.764  13.389  0.00  0.00    +0.000 A 
ATOM      4  C   UNL     1      46.733   7.129  13.259  0.00  0.00    +0.000 A 
ATOM      5  N   UNL     1      46.153   7.878  12.286  0.00  0.00    +0.000 NA
ATOM      6  C   UNL     1      45.342   7.242  11.410  0.00  0.00    +0.000 A 
ENDROOT
BRANCH   1   7
ATOM      7  C   UNL     1      44.191   5.237  10.419  0.00  0.00    +0.000 C 
BRANCH   7  10
ATOM      8  O   UNL     1      44.624   2.497  10.248  0.00  0.00    +0.000 OA
ATOM      9  C   UNL     1      45.082   3.219   9.365  0.00  0.00    +0.000 C 
ATOM     10  N   UNL     1      44.938   4.589   9.368  0.00  0.00    +0.000 N 
ATOM     11  H   UNL     1      45.322   5.112   8.586  0.00  0.00    +0.000 HD
BRANCH   9  12
ATOM     12  C   UNL     1      45.823   2.634   8.218  0.00  0.00    +0.000 A 
ATOM     13  C   UNL     1      46.052   3.409   7.089  0.00  0.00    +0.000 A 
ATOM     14  N   UNL     1      46.732   2.942   6.011  0.00  0.00    +0.000 NA
ATOM     15  C   UNL     1      47.166   1.666   6.114  0.00  0.00    +0.000 A 
ATOM     16  C   UNL     1      46.935   0.889   7.241  0.00  0.00    +0.000 A 
ATOM     17  N   UNL     1      46.264   1.345   8.327  0.00  0.00    +0.000 NA
ENDBRANCH   9  12
ENDBRANCH   7  10
ENDBRANCH   1   7
BRANCH   4  18
ATOM     18  C   UNL     1      47.673   7.831  14.207  0.00  0.00    +0.000 C 
BRANCH  18  19
ATOM     19  N   UNL     1      48.191   6.957  15.232  0.00  0.00    +0.000 N 
ATOM     20  C   UNL     1      48.951   7.408  16.274  0.00  0.00    +0.000 C 
ATOM     21  O   UNL     1      49.264   8.589  16.395  0.00  0.00    +0.000 OA
ATOM     22  H   UNL     1      48.148   5.963  15.026  0.00  0.00    +0.000 HD
BRANCH  20  23
ATOM     23  C   UNL     1      49.310   6.413  17.295  0.00  0.00    +0.000 A 
ATOM     24  C   UNL     1      50.294   5.472  17.026  0.00  0.00    +0.000 A 
ATOM     25  S   UNL     1      50.610   4.418  18.329  0.00  0.00    +0.000 S 
ATOM     26  C   UNL     1      49.412   5.156  19.286  0.00  0.00    +0.000 A 
ATOM     27  N   UNL     1      49.140   4.700  20.540  0.00  0.00    +0.000 NA
ATOM     28  C   UNL     1      48.184   5.329  21.139  0.00  0.00    +0.000 A 
ATOM     29  N   UNL     1      47.486   6.380  20.605  0.00  0.00    +0.000 N 
ATOM     30  C   UNL     1      47.768   6.910  19.369  0.00  0.00    +0.000 A 
ATOM     31  O   UNL     1      47.196   7.918  18.965  0.00  0.00    +0.000 OA
ATOM     32  C   UNL     1      48.803   6.211  18.634  0.00  0.00    +0.000 A 
ATOM     33  H   UNL     1      46.767   6.849  21.134  0.00  0.00    +0.000 HD
ENDBRANCH  20  23
ENDBRANCH  18  19
ENDBRANCH   4  18
TORSDOF 6
ENDMDL
MODEL 6
REMARK VINA RESULT:    -6.960      2.571      3.109
REMARK INTER + INTRA:         -10.141
REMARK INTER:                  -9.158
REMARK INTRA:                  -0.983
REMARK UNBOUND:                -0.740
REMARK  Name = 
REMARK  6 active torsions:
REMARK  status: ('A' for Active; 'I' for Inactive)
REMARK    1  A    between atoms: C_2  and  C_25
REMARK    2  A    between atoms: N_3  and  C_4
REMARK    3  A    between atoms: C_4  and  C_5
REMARK    4  A    between atoms: C_8  and  C_9
REMARK    5  A    between atoms: C_9  and  N_10
REMARK    6  A    between atoms: C_11  and  C_13
REMARK                            x       y       z     vdW  Elec       q    Type
REMARK                         _______ _______ _______ _____ _____    ______ ____
ROOT
ATOM      1  C   UNL     1      45.156   4.669  11.872  0.00  0.00    +0.000 A 
ATOM      2  C   UNL     1      45.552   3.488  12.501  0.00  0.00    +0.000 A 
ATOM      3  C   UNL     1      46.391   3.541  13.611  0.00  0.00    +0.000 A 
ATOM      4  C   UNL     1      46.840   4.781  14.055  0.00  0.00    +0.000 A 
ATOM      5  N   UNL     1      46.456   5.945  13.471  0.00  0.00    +0.000 NA
ATOM      6  C   UNL     1      45.629   5.863  12.404  0.00  0.00    +0.000 A 
ENDROOT
BRANCH   1   7
ATOM      7  C   UNL     1      44.268   4.655  10.668  0.00  0.00    +0.000 C 
BRANCH   7  10
ATOM      8  O   UNL     1      46.134   5.467   8.774  0.00  0.00    +0.000 OA
ATOM      9  C   UNL     1      45.717   4.311   8.729  0.00  0.00    +0.000 C 
ATOM     10  N   UNL     1      44.780   3.818   9.610  0.00  0.00    +0.000 N 
ATOM     11  H   UNL     1      44.509   2.842   9.523  0.00  0.00    +0.000 HD
BRANCH   9  12
ATOM     12  C   UNL     1      46.226   3.363   7.704  0.00  0.00    +0.000 A 
ATOM     13  C   UNL     1      46.429   2.034   8.048  0.00  0.00    +0.000 A 
ATOM     14  N   UNL     1      46.879   1.113   7.158  0.00  0.00    +0.000 NA
ATOM     15  C   UNL     1      47.120   1.585   5.915  0.00  0.00    +0.000 A 
ATOM     16  C   UNL     1      46.921   2.915   5.571  0.00  0.00    +0.000 A 
ATOM     17  N   UNL     1      46.465   3.843   6.447  0.00  0.00    +0.000 NA
ENDBRANCH   9  12
ENDBRANCH   7  10
ENDBRANCH   1   7
BRANCH   4  18
ATOM     18  C   UNL     1      47.801   4.871  15.215  0.00  0.00    +0.000 C 
BRANCH  18  19
ATOM     19  N   UNL     1      47.827   6.181  15.820  0.00  0.00    +0.000 N 
ATOM     20  C   UNL     1      48.977   6.903  15.970  0.00  0.00    +0.000 C 
ATOM     21  O   UNL     1      50.072   6.473  15.620  0.00  0.00    +0.000 OA
ATOM     22  H   UNL     1      46.987   6.449  16.325  0.00  0.00    +0.000 HD
BRANCH  20  23
ATOM     23  C   UNL     1      48.825   8.265  16.503  0.00  0.00    +0.000 A 
ATOM     24  C   UNL     1      49.278   9.349  15.764  0.00  0.00    +0.000 A 
ATOM     25  S   UNL     1      48.993  10.855  16.511  0.00  0.00    +0.000 S 
ATOM     26  C   UNL     1      48.292  10.109  17.870  0.00  0.00    +0.000 A 
ATOM     27  N   UNL     1      47.853  10.848  18.926  0.00  0.00    +0.000 NA
ATOM     28  C   UNL     1      47.377  10.150  19.903  0.00  0.00    +0.000 A 
ATOM     29  N   UNL     1      47.287   8.783  19.915  0.00  0.00    +0.000 N 
ATOM     30  C   UNL     1      47.661   8.003  18.848  0.00  0.00    +0.000 A 
ATOM     31  O   UNL     1      47.469   6.791  18.849  0.00  0.00    +0.000 OA
ATOM     32  C   UNL     1      48.247   8.733  17.741  0.00  0.00    +0.000 A 
ATOM     33  H   UNL     1      46.879   8.296  20.699  0.00  0.00    +0.000 HD
ENDBRANCH  20  23
ENDBRANCH  18  19
ENDBRANCH   4  18
TORSDOF 6
ENDMDL
MODEL 7
REMARK VINA RESULT:    -6.951      3.898      8.706
REMARK INTER + INTRA:         -10.129
REMARK INTER:                  -9.160
REMARK INTRA:                  -0.969
REMARK UNBOUND:                -0.740
REMARK  Name = 
REMARK  6 active torsions:
REMARK  status: ('A' for Active; 'I' for Inactive)
REMARK    1  A    between atoms: C_2  and  C_25
REMARK    2  A    between atoms: N_3  and  C_4
REMARK    3  A    between atoms: C_4  and  C_5
REMARK    4  A    between atoms: C_8  and  C_9
REMARK    5  A    between atoms: C_9  and  N_10
REMARK    6  A    between atoms: C_11  and  C_13
REMARK                            x       y       z     vdW  Elec       q    Type
REMARK                         _______ _______ _______ _____ _____    ______ ____
ROOT
ATOM      1  C   UNL     1      49.504   5.020  17.382  0.00  0.00    +0.000 A 
ATOM      2  C   UNL     1      50.248   6.108  16.924  0.00  0.00    +0.000 A 
ATOM      3  C   UNL     1      49.854   6.781  15.770  0.00  0.00    +0.000 A 
ATOM      4  C   UNL     1      48.733   6.331  15.080  0.00  0.00    +0.000 A 
ATOM      5  N   UNL     1      47.983   5.286  15.514  0.00  0.00    +0.000 NA
ATOM      6  C   UNL     1      48.380   4.661  16.646  0.00  0.00    +0.000 A 
ENDROOT
BRANCH   1   7
ATOM      7  C   UNL     1      49.901   4.261  18.609  0.00  0.00    +0.000 C 
BRANCH   7  10
ATOM      8  O   UNL     1      50.526   1.896  17.290  0.00  0.00    +0.000 OA
ATOM      9  C   UNL     1      51.436   2.530  17.820  0.00  0.00    +0.000 C 
ATOM     10  N   UNL     1      51.228   3.703  18.512  0.00  0.00    +0.000 N 
ATOM     11  H   UNL     1      52.038   4.181  18.896  0.00  0.00    +0.000 HD
BRANCH   9  12
ATOM     12  C   UNL     1      52.842   2.056  17.727  0.00  0.00    +0.000 A 
ATOM     13  C   UNL     1      53.094   0.752  17.326  0.00  0.00    +0.000 A 
ATOM     14  N   UNL     1      54.354   0.258  17.208  0.00  0.00    +0.000 NA
ATOM     15  C   UNL     1      55.342   1.127  17.514  0.00  0.00    +0.000 A 
ATOM     16  C   UNL     1      55.090   2.431  17.919  0.00  0.00    +0.000 A 
ATOM     17  N   UNL     1      53.839   2.938  18.034  0.00  0.00    +0.000 NA
ENDBRANCH   9  12
ENDBRANCH   7  10
ENDBRANCH   1   7
BRANCH   4  18
ATOM     18  C   UNL     1      48.315   6.997  13.792  0.00  0.00    +0.000 C 
BRANCH  18  19
ATOM     19  N   UNL     1      47.451   6.167  12.987  0.00  0.00    +0.000 N 
ATOM     20  C   UNL     1      46.635   6.674  12.015  0.00  0.00    +0.000 C 
ATOM     21  O   UNL     1      46.567   7.876  11.777  0.00  0.00    +0.000 OA
ATOM     22  H   UNL     1      47.315   5.218  13.323  0.00  0.00    +0.000 HD
BRANCH  20  23
ATOM     23  C   UNL     1      45.897   5.692  11.208  0.00  0.00    +0.000 A 
ATOM     24  C   UNL     1      45.972   5.740   9.822  0.00  0.00    +0.000 A 
ATOM     25  S   UNL     1      45.086   4.510   9.043  0.00  0.00    +0.000 S 
ATOM     26  C   UNL     1      44.535   3.892  10.530  0.00  0.00    +0.000 A 
ATOM     27  N   UNL     1      43.687   2.828  10.574  0.00  0.00    +0.000 NA
ATOM     28  C   UNL     1      43.320   2.488  11.765  0.00  0.00    +0.000 A 
ATOM     29  N   UNL     1      43.736   3.105  12.916  0.00  0.00    +0.000 N 
ATOM     30  C   UNL     1      44.638   4.142  12.921  0.00  0.00    +0.000 A 
ATOM     31  O   UNL     1      45.071   4.602  13.973  0.00  0.00    +0.000 OA
ATOM     32  C   UNL     1      45.045   4.594  11.606  0.00  0.00    +0.000 A 
ATOM     33  H   UNL     1      43.436   2.775  13.821  0.00  0.00    +0.000 HD
ENDBRANCH  20  23
ENDBRANCH  18  19
ENDBRANCH   4  18
TORSDOF 6
ENDMDL
MODEL 8
REMARK VINA RESULT:    -6.677      4.712      7.679
REMARK INTER + INTRA:          -9.758
REMARK INTER:                  -8.828
REMARK INTRA:                  -0.931
REMARK UNBOUND:                -0.740
REMARK  Name = 
REMARK  6 active torsions:
REMARK  status: ('A' for Active; 'I' for Inactive)
REMARK    1  A    between atoms: C_2  and  C_25
REMARK    2  A    between atoms: N_3  and  C_4
REMARK    3  A    between atoms: C_4  and  C_5
REMARK    4  A    between atoms: C_8  and  C_9
REMARK    5  A    between atoms: C_9  and  N_10
REMARK    6  A    between atoms: C_11  and  C_13
REMARK                            x       y       z     vdW  Elec       q    Type
REMARK                         _______ _______ _______ _____ _____    ______ ____
ROOT
ATOM      1  C   UNL     1      50.167   9.040  11.468  0.00  0.00    +0.000 A 
ATOM      2  C   UNL     1      49.738   7.714  11.546  0.00  0.00    +0.000 A 
ATOM      3  C   UNL     1      48.449   7.426  11.988  0.00  0.00    +0.000 A 
ATOM      4  C   UNL     1      47.620   8.477  12.369  0.00  0.00    +0.000 A 
ATOM      5  N   UNL     1      48.007   9.776  12.286  0.00  0.00    +0.000 NA
ATOM      6  C   UNL     1      49.259  10.025  11.839  0.00  0.00    +0.000 A 
ENDROOT
BRANCH   1   7
ATOM      7  C   UNL     1      51.549   9.390  11.014  0.00  0.00    +0.000 C 
BRANCH   7  10
ATOM      8  O   UNL     1      53.549   7.474  11.242  0.00  0.00    +0.000 OA
ATOM      9  C   UNL     1      52.996   7.618  10.153  0.00  0.00    +0.000 C 
ATOM     10  N   UNL     1      52.008   8.552   9.933  0.00  0.00    +0.000 N 
ATOM     11  H   UNL     1      51.581   8.587   9.011  0.00  0.00    +0.000 HD
BRANCH   9  12
ATOM     12  C   UNL     1      53.369   6.763   8.997  0.00  0.00    +0.000 A 
ATOM     13  C   UNL     1      52.476   6.615   7.944  0.00  0.00    +0.000 A 
ATOM     14  N   UNL     1      52.759   5.860   6.852  0.00  0.00    +0.000 NA
ATOM     15  C   UNL     1      53.969   5.259   6.865  0.00  0.00    +0.000 A 
ATOM     16  C   UNL     1      54.861   5.404   7.919  0.00  0.00    +0.000 A 
ATOM     17  N   UNL     1      54.595   6.160   9.012  0.00  0.00    +0.000 NA
ENDBRANCH   9  12
ENDBRANCH   7  10
ENDBRANCH   1   7
BRANCH   4  18
ATOM     18  C   UNL     1      46.240   8.198  12.911  0.00  0.00    +0.000 C 
BRANCH  18  19
ATOM     19  N   UNL     1      45.769   6.873  12.587  0.00  0.00    +0.000 N 
ATOM     20  C   UNL     1      44.710   6.649  11.752  0.00  0.00    +0.000 C 
ATOM     21  O   UNL     1      44.073   7.565  11.241  0.00  0.00    +0.000 OA
ATOM     22  H   UNL     1      46.121   6.124  13.176  0.00  0.00    +0.000 HD
BRANCH  20  23
ATOM     23  C   UNL     1      44.420   5.244  11.433  0.00  0.00    +0.000 A 
ATOM     24  C   UNL     1      43.639   4.486  12.295  0.00  0.00    +0.000 A 
ATOM     25  S   UNL     1      43.373   2.890  11.757  0.00  0.00    +0.000 S 
ATOM     26  C   UNL     1      44.328   3.141  10.371  0.00  0.00    +0.000 A 
ATOM     27  N   UNL     1      44.544   2.136   9.479  0.00  0.00    +0.000 NA
ATOM     28  C   UNL     1      45.317   2.454   8.495  0.00  0.00    +0.000 A 
ATOM     29  N   UNL     1      45.881   3.690   8.313  0.00  0.00    +0.000 N 
ATOM     30  C   UNL     1      45.640   4.749   9.154  0.00  0.00    +0.000 A 
ATOM     31  O   UNL     1      46.074   5.869   8.905  0.00  0.00    +0.000 OA
ATOM     32  C   UNL     1      44.816   4.433  10.304  0.00  0.00    +0.000 A 
ATOM     33  H   UNL     1      46.455   3.886   7.507  0.00  0.00    +0.000 HD
ENDBRANCH  20  23
ENDBRANCH  18  19
ENDBRANCH   4  18
TORSDOF 6
ENDMDL
MODEL 9
REMARK VINA RESULT:    -6.600      3.313      4.640
REMARK INTER + INTRA:          -9.654
REMARK INTER:                  -8.514
REMARK INTRA:                  -1.141
REMARK UNBOUND:                -0.740
REMARK  Name = 
REMARK  6 active torsions:
REMARK  status: ('A' for Active; 'I' for Inactive)
REMARK    1  A    between atoms: C_2  and  C_25
REMARK    2  A    between atoms: N_3  and  C_4
REMARK    3  A    between atoms: C_4  and  C_5
REMARK    4  A    between atoms: C_8  and  C_9
REMARK    5  A    between atoms: C_9  and  N_10
REMARK    6  A    between atoms: C_11  and  C_13
REMARK                            x       y       z     vdW  Elec       q    Type
REMARK                         _______ _______ _______ _____ _____    ______ ____
ROOT
ATOM      1  C   UNL     1      45.282   6.504  11.633  0.00  0.00    +0.000 A 
ATOM      2  C   UNL     1      46.332   5.897  12.324  0.00  0.00    +0.000 A 
ATOM      3  C   UNL     1      47.115   6.648  13.195  0.00  0.00    +0.000 A 
ATOM      4  C   UNL     1      46.847   8.006  13.338  0.00  0.00    +0.000 A 
ATOM      5  N   UNL     1      45.822   8.617  12.690  0.00  0.00    +0.000 NA
ATOM      6  C   UNL     1      45.068   7.858  11.862  0.00  0.00    +0.000 A 
ENDROOT
BRANCH   1   7
ATOM      7  C   UNL     1      44.426   5.735  10.676  0.00  0.00    +0.000 C 
BRANCH   7  10
ATOM      8  O   UNL     1      44.039   3.079   9.954  0.00  0.00    +0.000 OA
ATOM      9  C   UNL     1      44.916   3.721   9.380  0.00  0.00    +0.000 C 
ATOM     10  N   UNL     1      45.198   5.037   9.678  0.00  0.00    +0.000 N 
ATOM     11  H   UNL     1      45.920   5.505   9.137  0.00  0.00    +0.000 HD
BRANCH   9  12
ATOM     12  C   UNL     1      45.728   3.097   8.303  0.00  0.00    +0.000 A 
ATOM     13  C   UNL     1      46.083   1.759   8.407  0.00  0.00    +0.000 A 
ATOM     14  N   UNL     1      46.812   1.124   7.454  0.00  0.00    +0.000 NA
ATOM     15  C   UNL     1      47.170   1.889   6.400  0.00  0.00    +0.000 A 
ATOM     16  C   UNL     1      46.819   3.229   6.297  0.00  0.00    +0.000 A 
ATOM     17  N   UNL     1      46.086   3.873   7.237  0.00  0.00    +0.000 NA
ENDBRANCH   9  12
ENDBRANCH   7  10
ENDBRANCH   1   7
BRANCH   4  18
ATOM     18  C   UNL     1      47.716   8.864  14.225  0.00  0.00    +0.000 C 
BRANCH  18  19
ATOM     19  N   UNL     1      49.061   9.008  13.721  0.00  0.00    +0.000 N 
ATOM     20  C   UNL     1      50.144   8.438  14.329  0.00  0.00    +0.000 C 
ATOM     21  O   UNL     1      50.046   7.781  15.362  0.00  0.00    +0.000 OA
ATOM     22  H   UNL     1      49.193   9.731  13.019  0.00  0.00    +0.000 HD
BRANCH  20  23
ATOM     23  C   UNL     1      51.431   8.583  13.635  0.00  0.00    +0.000 A 
ATOM     24  C   UNL     1      52.534   9.073  14.322  0.00  0.00    +0.000 A 
ATOM     25  S   UNL     1      53.953   9.145  13.378  0.00  0.00    +0.000 S 
ATOM     26  C   UNL     1      53.133   8.564  12.005  0.00  0.00    +0.000 A 
ATOM     27  N   UNL     1      53.778   8.418  10.815  0.00  0.00    +0.000 NA
ATOM     28  C   UNL     1      53.027   8.003   9.849  0.00  0.00    +0.000 A 
ATOM     29  N   UNL     1      51.695   7.708   9.969  0.00  0.00    +0.000 N 
ATOM     30  C   UNL     1      51.019   7.783  11.162  0.00  0.00    +0.000 A 
ATOM     31  O   UNL     1      49.854   7.410  11.258  0.00  0.00    +0.000 OA
ATOM     32  C   UNL     1      51.804   8.288  12.270  0.00  0.00    +0.000 A 
ATOM     33  H   UNL     1      51.167   7.361   9.182  0.00  0.00    +0.000 HD
ENDBRANCH  20  23
ENDBRANCH  18  19
ENDBRANCH   4  18
TORSDOF 6
ENDMDL
