MODEL 1
REMARK VINA RESULT:    -8.088      0.000      0.000
REMARK INTER + INTRA:         -12.513
REMARK INTER:                 -11.398
REMARK INTRA:                  -1.115
REMARK UNBOUND:                -1.115
REMARK  Name = 
REMARK  8 active torsions:
REMARK  status: ('A' for Active; 'I' for Inactive)
REMARK    1  A    between atoms: C_1  and  C_2
REMARK    2  A    between atoms: C_2  and  N_3
REMARK    3  A    between atoms: C_2  and  C_25
REMARK    4  A    between atoms: N_3  and  C_4
REMARK    5  A    between atoms: C_4  and  C_5
REMARK    6  A    between atoms: C_8  and  C_9
REMARK    7  A    between atoms: C_9  and  N_10
REMARK    8  A    between atoms: C_11  and  C_13
REMARK                            x       y       z     vdW  Elec       q    Type
REMARK                         _______ _______ _______ _____ _____    ______ ____
ROOT
ATOM      1  C   UNL     1      43.658   6.194  11.763  0.00  0.00    +0.000 C 
ATOM      2  C   UNL     1      44.131   5.770  13.165  0.00  0.00    +0.000 C 
ATOM      3  C   UNL     1      45.436   4.981  13.135  0.00  0.00    +0.000 C 
ATOM      4  C   UNL     1      46.570   5.742  12.424  0.00  0.00    +0.000 C 
ATOM      5  C   UNL     1      46.114   6.107  11.005  0.00  0.00    +0.000 C 
ATOM      6  C   UNL     1      44.798   6.889  10.991  0.00  0.00    +0.000 C 
ENDROOT
BRANCH   1   7
ATOM      7  C   UNL     1      43.061   5.029  10.935  0.00  0.00    +0.000 C 
BRANCH   7   8
ATOM      8  N   UNL     1      43.913   4.717   9.786  0.00  0.00    +0.000 NA
ATOM      9  H   UNL     1      43.467   5.049   8.932  0.00  0.00    +0.000 HD
BRANCH   8  11
ATOM     10  C   UNL     1      44.412   2.525  10.902  0.00  0.00    +0.000 C 
ATOM     11  C   UNL     1      44.142   3.272   9.591  0.00  0.00    +0.000 C 
BRANCH  11  12
ATOM     12  C   UNL     1      45.307   3.051   8.623  0.00  0.00    +0.000 A 
ATOM     13  C   UNL     1      45.840   1.774   8.431  0.00  0.00    +0.000 A 
ATOM     14  C   UNL     1      46.881   1.602   7.524  0.00  0.00    +0.000 A 
ATOM     15  C   UNL     1      47.377   2.706   6.845  0.00  0.00    +0.000 A 
ATOM     16  C   UNL     1      46.814   3.944   7.110  0.00  0.00    +0.000 A 
ATOM     17  N   UNL     1      45.798   4.142   7.978  0.00  0.00    +0.000 NA
ENDBRANCH  11  12
ENDBRANCH   8  11
ENDBRANCH   7   8
ENDBRANCH   1   7
BRANCH   4  18
ATOM     18  C   UNL     1      47.063   6.990  13.189  0.00  0.00    +0.000 C 
BRANCH  18  19
ATOM     19  N   UNL     1      47.560   6.647  14.503  0.00  0.00    +0.000 N 
ATOM     20  C   UNL     1      48.880   6.662  14.862  0.00  0.00    +0.000 C 
ATOM     21  O   UNL     1      49.781   6.982  14.092  0.00  0.00    +0.000 OA
ATOM     22  H   UNL     1      46.878   6.408  15.208  0.00  0.00    +0.000 HD
BRANCH  20  23
ATOM     23  C   UNL     1      49.137   6.345  16.272  0.00  0.00    +0.000 A 
ATOM     24  C   UNL     1      49.792   7.254  17.090  0.00  0.00    +0.000 A 
ATOM     25  S   UNL     1      49.904   6.747  18.715  0.00  0.00    +0.000 S 
ATOM     26  C   UNL     1      49.118   5.278  18.372  0.00  0.00    +0.000 A 
ATOM     27  N   UNL     1      48.867   4.369  19.353  0.00  0.00    +0.000 NA
ATOM     28  C   UNL     1      48.280   3.293  18.946  0.00  0.00    +0.000 A 
ATOM     29  N   UNL     1      47.937   3.032  17.645  0.00  0.00    +0.000 N 
ATOM     30  C   UNL     1      48.180   3.914  16.621  0.00  0.00    +0.000 A 
ATOM     31  O   UNL     1      47.858   3.643  15.469  0.00  0.00    +0.000 OA
ATOM     32  C   UNL     1      48.799   5.163  17.032  0.00  0.00    +0.000 A 
ATOM     33  H   UNL     1      47.489   2.165  17.389  0.00  0.00    +0.000 HD
ENDBRANCH  20  23
ENDBRANCH  18  19
ENDBRANCH   4  18
TORSDOF 7
ENDMDL
MODEL 2
REMARK VINA RESULT:    -8.046      1.970      2.380
REMARK INTER + INTRA:         -12.454
REMARK INTER:                 -12.062
REMARK INTRA:                  -0.392
REMARK UNBOUND:                -1.115
REMARK  Name = 
REMARK  8 active torsions:
REMARK  status: ('A' for Active; 'I' for Inactive)
REMARK    1  A    between atoms: C_1  and  C_2
REMARK    2  A    between atoms: C_2  and  N_3
REMARK    3  A    between atoms: C_2  and  C_25
REMARK    4  A    between atoms: N_3  and  C_4
REMARK    5  A    between atoms: C_4  and  C_5
REMARK    6  A    between atoms: C_8  and  C_9
REMARK    7  A    between atoms: C_9  and  N_10
REMARK    8  A    between atoms: C_11  and  C_13
REMARK                            x       y       z     vdW  Elec       q    Type
REMARK                         _______ _______ _______ _____ _____    ______ ____
ROOT
ATOM      1  C   UNL     1      43.949   5.028  12.089  0.00  0.00    +0.000 C 
ATOM      2  C   UNL     1      44.346   3.655  12.662  0.00  0.00    +0.000 C 
ATOM      3  C   UNL     1      45.853   3.421  12.645  0.00  0.00    +0.000 C 
ATOM      4  C   UNL     1      46.631   4.525  13.384  0.00  0.00    +0.000 C 
ATOM      5  C   UNL     1      46.277   5.885  12.766  0.00  0.00    +0.000 C 
ATOM      6  C   UNL     1      44.770   6.152  12.752  0.00  0.00    +0.000 C 
ENDROOT
BRANCH   1   7
ATOM      7  C   UNL     1      44.053   5.104  10.546  0.00  0.00    +0.000 C 
BRANCH   7   8
ATOM      8  N   UNL     1      45.099   4.208  10.049  0.00  0.00    +0.000 NA
ATOM      9  H   UNL     1      45.819   4.755   9.578  0.00  0.00    +0.000 HD
BRANCH   8  11
ATOM     10  C   UNL     1      44.101   1.933   9.697  0.00  0.00    +0.000 C 
ATOM     11  C   UNL     1      44.619   3.226   9.058  0.00  0.00    +0.000 C 
BRANCH  11  12
ATOM     12  C   UNL     1      45.734   2.898   8.063  0.00  0.00    +0.000 A 
ATOM     13  C   UNL     1      46.327   1.632   8.051  0.00  0.00    +0.000 A 
ATOM     14  C   UNL     1      47.320   1.357   7.117  0.00  0.00    +0.000 A 
ATOM     15  C   UNL     1      47.711   2.350   6.229  0.00  0.00    +0.000 A 
ATOM     16  C   UNL     1      47.094   3.587   6.320  0.00  0.00    +0.000 A 
ATOM     17  N   UNL     1      46.122   3.883   7.211  0.00  0.00    +0.000 NA
ENDBRANCH  11  12
ENDBRANCH   8  11
ENDBRANCH   7   8
ENDBRANCH   1   7
BRANCH   4  18
ATOM     18  C   UNL     1      46.408   4.534  14.912  0.00  0.00    +0.000 C 
BRANCH  18  19
ATOM     19  N   UNL     1      47.661   4.546  15.633  0.00  0.00    +0.000 N 
ATOM     20  C   UNL     1      47.774   4.487  16.995  0.00  0.00    +0.000 C 
ATOM     21  O   UNL     1      46.807   4.407  17.746  0.00  0.00    +0.000 OA
ATOM     22  H   UNL     1      48.509   4.574  15.086  0.00  0.00    +0.000 HD
BRANCH  20  23
ATOM     23  C   UNL     1      49.154   4.443  17.496  0.00  0.00    +0.000 A 
ATOM     24  C   UNL     1      49.697   5.534  18.158  0.00  0.00    +0.000 A 
ATOM     25  S   UNL     1      51.272   5.252  18.752  0.00  0.00    +0.000 S 
ATOM     26  C   UNL     1      51.296   3.678  18.107  0.00  0.00    +0.000 A 
ATOM     27  N   UNL     1      52.372   2.864  18.282  0.00  0.00    +0.000 NA
ATOM     28  C   UNL     1      52.260   1.704  17.724  0.00  0.00    +0.000 A 
ATOM     29  N   UNL     1      51.178   1.289  16.991  0.00  0.00    +0.000 N 
ATOM     30  C   UNL     1      50.076   2.080  16.780  0.00  0.00    +0.000 A 
ATOM     31  O   UNL     1      49.128   1.672  16.117  0.00  0.00    +0.000 OA
ATOM     32  C   UNL     1      50.131   3.381  17.425  0.00  0.00    +0.000 A 
ATOM     33  H   UNL     1      51.156   0.372  16.571  0.00  0.00    +0.000 HD
ENDBRANCH  20  23
ENDBRANCH  18  19
ENDBRANCH   4  18
TORSDOF 7
ENDMDL
MODEL 3
REMARK VINA RESULT:    -7.273      3.030      8.269
REMARK INTER + INTRA:         -11.364
REMARK INTER:                 -10.106
REMARK INTRA:                  -1.259
REMARK UNBOUND:                -1.115
REMARK  Name = 
REMARK  8 active torsions:
REMARK  status: ('A' for Active; 'I' for Inactive)
REMARK    1  A    between atoms: C_1  and  C_2
REMARK    2  A    between atoms: C_2  and  N_3
REMARK    3  A    between atoms: C_2  and  C_25
REMARK    4  A    between atoms: N_3  and  C_4
REMARK    5  A    between atoms: C_4  and  C_5
REMARK    6  A    between atoms: C_8  and  C_9
REMARK    7  A    between atoms: C_9  and  N_10
REMARK    8  A    between atoms: C_11  and  C_13
REMARK                            x       y       z     vdW  Elec       q    Type
REMARK                         _______ _______ _______ _____ _____    ______ ____
ROOT
ATOM      1  C   UNL     1      49.094   7.747  15.013  0.00  0.00    +0.000 C 
ATOM      2  C   UNL     1      48.658   9.125  14.482  0.00  0.00    +0.000 C 
ATOM      3  C   UNL     1      48.947   9.304  12.996  0.00  0.00    +0.000 C 
ATOM      4  C   UNL     1      48.308   8.201  12.133  0.00  0.00    +0.000 C 
ATOM      5  C   UNL     1      48.796   6.832  12.629  0.00  0.00    +0.000 C 
ATOM      6  C   UNL     1      48.537   6.619  14.122  0.00  0.00    +0.000 C 
ENDROOT
BRANCH   1   7
ATOM      7  C   UNL     1      50.628   7.610  15.184  0.00  0.00    +0.000 C 
BRANCH   7   8
ATOM      8  N   UNL     1      50.968   6.342  15.831  0.00  0.00    +0.000 NA
ATOM      9  H   UNL     1      50.587   5.569  15.286  0.00  0.00    +0.000 HD
BRANCH   8  11
ATOM     10  C   UNL     1      51.484   6.024  18.266  0.00  0.00    +0.000 C 
ATOM     11  C   UNL     1      50.408   6.199  17.189  0.00  0.00    +0.000 C 
BRANCH  11  12
ATOM     12  C   UNL     1      49.438   5.016  17.233  0.00  0.00    +0.000 A 
ATOM     13  C   UNL     1      48.090   5.213  17.545  0.00  0.00    +0.000 A 
ATOM     14  C   UNL     1      47.228   4.121  17.551  0.00  0.00    +0.000 A 
ATOM     15  C   UNL     1      47.730   2.859  17.264  0.00  0.00    +0.000 A 
ATOM     16  C   UNL     1      49.083   2.741  16.990  0.00  0.00    +0.000 A 
ATOM     17  N   UNL     1      49.944   3.783  16.969  0.00  0.00    +0.000 NA
ENDBRANCH  11  12
ENDBRANCH   8  11
ENDBRANCH   7   8
ENDBRANCH   1   7
BRANCH   4  18
ATOM     18  C   UNL     1      46.765   8.257  12.085  0.00  0.00    +0.000 C 
BRANCH  18  19
ATOM     19  N   UNL     1      46.190   6.941  11.918  0.00  0.00    +0.000 N 
ATOM     20  C   UNL     1      44.889   6.701  11.570  0.00  0.00    +0.000 C 
ATOM     21  O   UNL     1      44.076   7.594  11.354  0.00  0.00    +0.000 OA
ATOM     22  H   UNL     1      46.804   6.148  12.041  0.00  0.00    +0.000 HD
BRANCH  20  23
ATOM     23  C   UNL     1      44.552   5.282  11.391  0.00  0.00    +0.000 A 
ATOM     24  C   UNL     1      43.828   4.604  12.360  0.00  0.00    +0.000 A 
ATOM     25  S   UNL     1      43.450   2.998  11.923  0.00  0.00    +0.000 S 
ATOM     26  C   UNL     1      44.277   3.144  10.445  0.00  0.00    +0.000 A 
ATOM     27  N   UNL     1      44.322   2.111   9.560  0.00  0.00    +0.000 NA
ATOM     28  C   UNL     1      44.998   2.356   8.487  0.00  0.00    +0.000 A 
ATOM     29  N   UNL     1      45.652   3.532   8.225  0.00  0.00    +0.000 N 
ATOM     30  C   UNL     1      45.645   4.596   9.093  0.00  0.00    +0.000 A 
ATOM     31  O   UNL     1      46.242   5.632   8.822  0.00  0.00    +0.000 OA
ATOM     32  C   UNL     1      44.858   4.390  10.297  0.00  0.00    +0.000 A 
ATOM     33  H   UNL     1      46.175   3.657   7.371  0.00  0.00    +0.000 HD
ENDBRANCH  20  23
ENDBRANCH  18  19
ENDBRANCH   4  18
TORSDOF 7
ENDMDL
MODEL 4
REMARK VINA RESULT:    -7.180      1.864      2.746
REMARK INTER + INTRA:         -11.234
REMARK INTER:                 -10.183
REMARK INTRA:                  -1.051
REMARK UNBOUND:                -1.115
REMARK  Name = 
REMARK  8 active torsions:
REMARK  status: ('A' for Active; 'I' for Inactive)
REMARK    1  A    between atoms: C_1  and  C_2
REMARK    2  A    between atoms: C_2  and  N_3
REMARK    3  A    between atoms: C_2  and  C_25
REMARK    4  A    between atoms: N_3  and  C_4
REMARK    5  A    between atoms: C_4  and  C_5
REMARK    6  A    between atoms: C_8  and  C_9
REMARK    7  A    between atoms: C_9  and  N_10
REMARK    8  A    between atoms: C_11  and  C_13
REMARK                            x       y       z     vdW  Elec       q    Type
REMARK                         _______ _______ _______ _____ _____    ______ ____
ROOT
ATOM      1  C   UNL     1      45.784   5.068  11.062  0.00  0.00    +0.000 C 
ATOM      2  C   UNL     1      46.457   6.410  10.719  0.00  0.00    +0.000 C 
ATOM      3  C   UNL     1      45.967   7.558  11.597  0.00  0.00    +0.000 C 
ATOM      4  C   UNL     1      46.145   7.269  13.099  0.00  0.00    +0.000 C 
ATOM      5  C   UNL     1      45.419   5.961  13.445  0.00  0.00    +0.000 C 
ATOM      6  C   UNL     1      45.872   4.786  12.575  0.00  0.00    +0.000 C 
ENDROOT
BRANCH   1   7
ATOM      7  C   UNL     1      44.320   4.969  10.566  0.00  0.00    +0.000 C 
BRANCH   7   8
ATOM      8  N   UNL     1      44.270   4.502   9.179  0.00  0.00    +0.000 NA
ATOM      9  H   UNL     1      43.425   4.854   8.732  0.00  0.00    +0.000 HD
BRANCH   8  11
ATOM     10  C   UNL     1      44.127   2.313  10.399  0.00  0.00    +0.000 C 
ATOM     11  C   UNL     1      44.219   3.032   9.049  0.00  0.00    +0.000 C 
BRANCH  11  12
ATOM     12  C   UNL     1      45.443   2.531   8.280  0.00  0.00    +0.000 A 
ATOM     13  C   UNL     1      46.179   3.400   7.470  0.00  0.00    +0.000 A 
ATOM     14  C   UNL     1      47.303   2.921   6.805  0.00  0.00    +0.000 A 
ATOM     15  C   UNL     1      47.657   1.586   6.948  0.00  0.00    +0.000 A 
ATOM     16  C   UNL     1      46.862   0.781   7.747  0.00  0.00    +0.000 A 
ATOM     17  N   UNL     1      45.770   1.218   8.412  0.00  0.00    +0.000 NA
ENDBRANCH  11  12
ENDBRANCH   8  11
ENDBRANCH   7   8
ENDBRANCH   1   7
BRANCH   4  18
ATOM     18  C   UNL     1      47.618   7.226  13.560  0.00  0.00    +0.000 C 
BRANCH  18  19
ATOM     19  N   UNL     1      47.733   6.802  14.938  0.00  0.00    +0.000 N 
ATOM     20  C   UNL     1      48.917   6.614  15.596  0.00  0.00    +0.000 C 
ATOM     21  O   UNL     1      50.012   6.799  15.073  0.00  0.00    +0.000 OA
ATOM     22  H   UNL     1      46.875   6.663  15.452  0.00  0.00    +0.000 HD
BRANCH  20  23
ATOM     23  C   UNL     1      48.782   6.250  17.012  0.00  0.00    +0.000 A 
ATOM     24  C   UNL     1      49.039   4.953  17.433  0.00  0.00    +0.000 A 
ATOM     25  S   UNL     1      48.927   4.755  19.124  0.00  0.00    +0.000 S 
ATOM     26  C   UNL     1      48.491   6.384  19.345  0.00  0.00    +0.000 A 
ATOM     27  N   UNL     1      48.267   6.889  20.588  0.00  0.00    +0.000 NA
ATOM     28  C   UNL     1      47.928   8.135  20.606  0.00  0.00    +0.000 A 
ATOM     29  N   UNL     1      47.772   8.919  19.492  0.00  0.00    +0.000 N 
ATOM     30  C   UNL     1      47.975   8.450  18.218  0.00  0.00    +0.000 A 
ATOM     31  O   UNL     1      47.825   9.184  17.248  0.00  0.00    +0.000 OA
ATOM     32  C   UNL     1      48.404   7.064  18.145  0.00  0.00    +0.000 A 
ATOM     33  H   UNL     1      47.493   9.886  19.572  0.00  0.00    +0.000 HD
ENDBRANCH  20  23
ENDBRANCH  18  19
ENDBRANCH   4  18
TORSDOF 7
ENDMDL
MODEL 5
REMARK VINA RESULT:    -7.120      1.639      2.238
REMARK INTER + INTRA:         -11.149
REMARK INTER:                 -10.776
REMARK INTRA:                  -0.373
REMARK UNBOUND:                -1.115
REMARK  Name = 
REMARK  8 active torsions:
REMARK  status: ('A' for Active; 'I' for Inactive)
REMARK    1  A    between atoms: C_1  and  C_2
REMARK    2  A    between atoms: C_2  and  N_3
REMARK    3  A    between atoms: C_2  and  C_25
REMARK    4  A    between atoms: N_3  and  C_4
REMARK    5  A    between atoms: C_4  and  C_5
REMARK    6  A    between atoms: C_8  and  C_9
REMARK    7  A    between atoms: C_9  and  N_10
REMARK    8  A    between atoms: C_11  and  C_13
REMARK                            x       y       z     vdW  Elec       q    Type
REMARK                         _______ _______ _______ _____ _____    ______ ____
ROOT
ATOM      1  C   UNL     1      44.924   6.729  12.620  0.00  0.00    +0.000 C 
ATOM      2  C   UNL     1      46.060   5.897  13.244  0.00  0.00    +0.000 C 
ATOM      3  C   UNL     1      47.422   6.204  12.630  0.00  0.00    +0.000 C 
ATOM      4  C   UNL     1      47.783   7.699  12.709  0.00  0.00    +0.000 C 
ATOM      5  C   UNL     1      46.675   8.516  12.030  0.00  0.00    +0.000 C 
ATOM      6  C   UNL     1      45.288   8.227  12.608  0.00  0.00    +0.000 C 
ENDROOT
BRANCH   1   7
ATOM      7  C   UNL     1      44.516   6.249  11.204  0.00  0.00    +0.000 C 
BRANCH   7   8
ATOM      8  N   UNL     1      45.212   5.010  10.853  0.00  0.00    +0.000 NA
ATOM      9  H   UNL     1      46.038   5.231  10.297  0.00  0.00    +0.000 HD
BRANCH   8  11
ATOM     10  C   UNL     1      43.717   2.994  10.864  0.00  0.00    +0.000 C 
ATOM     11  C   UNL     1      44.404   4.085  10.035  0.00  0.00    +0.000 C 
BRANCH  11  12
ATOM     12  C   UNL     1      45.278   3.440   8.956  0.00  0.00    +0.000 A 
ATOM     13  C   UNL     1      45.556   2.071   8.992  0.00  0.00    +0.000 A 
ATOM     14  C   UNL     1      46.331   1.510   7.983  0.00  0.00    +0.000 A 
ATOM     15  C   UNL     1      46.825   2.325   6.973  0.00  0.00    +0.000 A 
ATOM     16  C   UNL     1      46.527   3.677   7.022  0.00  0.00    +0.000 A 
ATOM     17  N   UNL     1      45.771   4.251   7.984  0.00  0.00    +0.000 NA
ENDBRANCH  11  12
ENDBRANCH   8  11
ENDBRANCH   7   8
ENDBRANCH   1   7
BRANCH   4  18
ATOM     18  C   UNL     1      48.048   8.205  14.143  0.00  0.00    +0.000 C 
BRANCH  18  19
ATOM     19  N   UNL     1      47.916   7.142  15.116  0.00  0.00    +0.000 N 
ATOM     20  C   UNL     1      48.966   6.469  15.676  0.00  0.00    +0.000 C 
ATOM     21  O   UNL     1      50.139   6.713  15.410  0.00  0.00    +0.000 OA
ATOM     22  H   UNL     1      46.983   6.905  15.418  0.00  0.00    +0.000 HD
BRANCH  20  23
ATOM     23  C   UNL     1      48.589   5.478  16.693  0.00  0.00    +0.000 A 
ATOM     24  C   UNL     1      47.877   4.342  16.337  0.00  0.00    +0.000 A 
ATOM     25  S   UNL     1      47.624   3.266  17.637  0.00  0.00    +0.000 S 
ATOM     26  C   UNL     1      48.420   4.302  18.726  0.00  0.00    +0.000 A 
ATOM     27  N   UNL     1      48.578   3.960  20.033  0.00  0.00    +0.000 NA
ATOM     28  C   UNL     1      49.186   4.848  20.748  0.00  0.00    +0.000 A 
ATOM     29  N   UNL     1      49.634   6.055  20.280  0.00  0.00    +0.000 N 
ATOM     30  C   UNL     1      49.487   6.448  18.973  0.00  0.00    +0.000 A 
ATOM     31  O   UNL     1      49.902   7.538  18.594  0.00  0.00    +0.000 OA
ATOM     32  C   UNL     1      48.849   5.465  18.114  0.00  0.00    +0.000 A 
ATOM     33  H   UNL     1      50.093   6.713  20.894  0.00  0.00    +0.000 HD
ENDBRANCH  20  23
ENDBRANCH  18  19
ENDBRANCH   4  18
TORSDOF 7
ENDMDL
MODEL 6
REMARK VINA RESULT:    -6.924      3.109      8.174
REMARK INTER + INTRA:         -10.872
REMARK INTER:                  -9.628
REMARK INTRA:                  -1.245
REMARK UNBOUND:                -1.115
REMARK  Name = 
REMARK  8 active torsions:
REMARK  status: ('A' for Active; 'I' for Inactive)
REMARK    1  A    between atoms: C_1  and  C_2
REMARK    2  A    between atoms: C_2  and  N_3
REMARK    3  A    between atoms: C_2  and  C_25
REMARK    4  A    between atoms: N_3  and  C_4
REMARK    5  A    between atoms: C_4  and  C_5
REMARK    6  A    between atoms: C_8  and  C_9
REMARK    7  A    between atoms: C_9  and  N_10
REMARK    8  A    between atoms: C_11  and  C_13
REMARK                            x       y       z     vdW  Elec       q    Type
REMARK                         _______ _______ _______ _____ _____    ______ ____
ROOT
ATOM      1  C   UNL     1      49.553   7.723  12.900  0.00  0.00    +0.000 C 
ATOM      2  C   UNL     1      48.423   6.686  13.034  0.00  0.00    +0.000 C 
ATOM      3  C   UNL     1      47.181   7.251  13.717  0.00  0.00    +0.000 C 
ATOM      4  C   UNL     1      46.638   8.506  13.010  0.00  0.00    +0.000 C 
ATOM      5  C   UNL     1      47.753   9.559  12.934  0.00  0.00    +0.000 C 
ATOM      6  C   UNL     1      49.024   9.026  12.268  0.00  0.00    +0.000 C 
ENDROOT
BRANCH   1   7
ATOM      7  C   UNL     1      50.284   8.013  14.234  0.00  0.00    +0.000 C 
BRANCH   7   8
ATOM      8  N   UNL     1      50.411   6.794  15.035  0.00  0.00    +0.000 NA
ATOM      9  H   UNL     1      50.041   6.003  14.508  0.00  0.00    +0.000 HD
BRANCH   8  11
ATOM     10  C   UNL     1      50.459   7.412  17.466  0.00  0.00    +0.000 C 
ATOM     11  C   UNL     1      49.651   6.833  16.300  0.00  0.00    +0.000 C 
BRANCH  11  12
ATOM     12  C   UNL     1      49.160   5.429  16.659  0.00  0.00    +0.000 A 
ATOM     13  C   UNL     1      47.801   5.112  16.593  0.00  0.00    +0.000 A 
ATOM     14  C   UNL     1      47.390   3.819  16.900  0.00  0.00    +0.000 A 
ATOM     15  C   UNL     1      48.337   2.879  17.282  0.00  0.00    +0.000 A 
ATOM     16  C   UNL     1      49.662   3.277  17.350  0.00  0.00    +0.000 A 
ATOM     17  N   UNL     1      50.094   4.522  17.050  0.00  0.00    +0.000 NA
ENDBRANCH  11  12
ENDBRANCH   8  11
ENDBRANCH   7   8
ENDBRANCH   1   7
BRANCH   4  18
ATOM     18  C   UNL     1      46.039   8.230  11.613  0.00  0.00    +0.000 C 
BRANCH  18  19
ATOM     19  N   UNL     1      45.662   6.842  11.461  0.00  0.00    +0.000 N 
ATOM     20  C   UNL     1      44.376   6.397  11.329  0.00  0.00    +0.000 C 
ATOM     21  O   UNL     1      43.404   7.146  11.317  0.00  0.00    +0.000 OA
ATOM     22  H   UNL     1      46.408   6.162  11.423  0.00  0.00    +0.000 HD
BRANCH  20  23
ATOM     23  C   UNL     1      44.246   4.949  11.116  0.00  0.00    +0.000 A 
ATOM     24  C   UNL     1      43.533   4.168  12.014  0.00  0.00    +0.000 A 
ATOM     25  S   UNL     1      43.410   2.534  11.540  0.00  0.00    +0.000 S 
ATOM     26  C   UNL     1      44.338   2.807  10.142  0.00  0.00    +0.000 A 
ATOM     27  N   UNL     1      44.595   1.803   9.261  0.00  0.00    +0.000 NA
ATOM     28  C   UNL     1      45.326   2.149   8.254  0.00  0.00    +0.000 A 
ATOM     29  N   UNL     1      45.840   3.404   8.056  0.00  0.00    +0.000 N 
ATOM     30  C   UNL     1      45.617   4.445   8.922  0.00  0.00    +0.000 A 
ATOM     31  O   UNL     1      46.095   5.554   8.709  0.00  0.00    +0.000 OA
ATOM     32  C   UNL     1      44.761   4.120  10.051  0.00  0.00    +0.000 A 
ATOM     33  H   UNL     1      46.415   3.609   7.251  0.00  0.00    +0.000 HD
ENDBRANCH  20  23
ENDBRANCH  18  19
ENDBRANCH   4  18
TORSDOF 7
ENDMDL
MODEL 7
REMARK VINA RESULT:    -6.687      3.185      8.080
REMARK INTER + INTRA:         -10.538
REMARK INTER:                  -8.673
REMARK INTRA:                  -1.865
REMARK UNBOUND:                -1.115
REMARK  Name = 
REMARK  8 active torsions:
REMARK  status: ('A' for Active; 'I' for Inactive)
REMARK    1  A    between atoms: C_1  and  C_2
REMARK    2  A    between atoms: C_2  and  N_3
REMARK    3  A    between atoms: C_2  and  C_25
REMARK    4  A    between atoms: N_3  and  C_4
REMARK    5  A    between atoms: C_4  and  C_5
REMARK    6  A    between atoms: C_8  and  C_9
REMARK    7  A    between atoms: C_9  and  N_10
REMARK    8  A    between atoms: C_11  and  C_13
REMARK                            x       y       z     vdW  Elec       q    Type
REMARK                         _______ _______ _______ _____ _____    ______ ____
ROOT
ATOM      1  C   UNL     1      51.518   7.467  16.571  0.00  0.00    +0.000 C 
ATOM      2  C   UNL     1      50.350   6.805  15.816  0.00  0.00    +0.000 C 
ATOM      3  C   UNL     1      49.024   6.923  16.560  0.00  0.00    +0.000 C 
ATOM      4  C   UNL     1      48.657   8.383  16.885  0.00  0.00    +0.000 C 
ATOM      5  C   UNL     1      49.799   9.018  17.690  0.00  0.00    +0.000 C 
ATOM      6  C   UNL     1      51.152   8.907  16.984  0.00  0.00    +0.000 C 
ENDROOT
BRANCH   1   7
ATOM      7  C   UNL     1      52.004   6.649  17.793  0.00  0.00    +0.000 C 
BRANCH   7   8
ATOM      8  N   UNL     1      52.296   5.266  17.411  0.00  0.00    +0.000 NA
ATOM      9  H   UNL     1      51.810   5.044  16.543  0.00  0.00    +0.000 HD
BRANCH   8  11
ATOM     10  C   UNL     1      52.803   3.081  18.536  0.00  0.00    +0.000 C 
ATOM     11  C   UNL     1      51.843   4.268  18.399  0.00  0.00    +0.000 C 
BRANCH  11  12
ATOM     12  C   UNL     1      50.446   3.762  18.030  0.00  0.00    +0.000 A 
ATOM     13  C   UNL     1      49.321   4.209  18.727  0.00  0.00    +0.000 A 
ATOM     14  C   UNL     1      48.063   3.751  18.350  0.00  0.00    +0.000 A 
ATOM     15  C   UNL     1      47.957   2.847  17.302  0.00  0.00    +0.000 A 
ATOM     16  C   UNL     1      49.121   2.431  16.677  0.00  0.00    +0.000 A 
ATOM     17  N   UNL     1      50.356   2.863  17.015  0.00  0.00    +0.000 NA
ENDBRANCH  11  12
ENDBRANCH   8  11
ENDBRANCH   7   8
ENDBRANCH   1   7
BRANCH   4  18
ATOM     18  C   UNL     1      48.312   9.234  15.643  0.00  0.00    +0.000 C 
BRANCH  18  19
ATOM     19  N   UNL     1      47.345   8.572  14.795  0.00  0.00    +0.000 N 
ATOM     20  C   UNL     1      47.617   8.069  13.553  0.00  0.00    +0.000 C 
ATOM     21  O   UNL     1      48.728   8.124  13.035  0.00  0.00    +0.000 OA
ATOM     22  H   UNL     1      46.413   8.452  15.164  0.00  0.00    +0.000 HD
BRANCH  20  23
ATOM     23  C   UNL     1      46.492   7.377  12.910  0.00  0.00    +0.000 A 
ATOM     24  C   UNL     1      45.556   8.090  12.176  0.00  0.00    +0.000 A 
ATOM     25  S   UNL     1      44.388   7.099  11.424  0.00  0.00    +0.000 S 
ATOM     26  C   UNL     1      45.069   5.690  12.089  0.00  0.00    +0.000 A 
ATOM     27  N   UNL     1      44.551   4.462  11.816  0.00  0.00    +0.000 NA
ATOM     28  C   UNL     1      45.159   3.483  12.402  0.00  0.00    +0.000 A 
ATOM     29  N   UNL     1      46.225   3.621  13.252  0.00  0.00    +0.000 N 
ATOM     30  C   UNL     1      46.774   4.840  13.565  0.00  0.00    +0.000 A 
ATOM     31  O   UNL     1      47.728   4.921  14.331  0.00  0.00    +0.000 OA
ATOM     32  C   UNL     1      46.156   5.972  12.896  0.00  0.00    +0.000 A 
ATOM     33  H   UNL     1      46.650   2.816  13.688  0.00  0.00    +0.000 HD
ENDBRANCH  20  23
ENDBRANCH  18  19
ENDBRANCH   4  18
TORSDOF 7
ENDMDL
MODEL 8
REMARK VINA RESULT:    -6.537      4.845      7.950
REMARK INTER + INTRA:         -10.327
REMARK INTER:                  -8.998
REMARK INTRA:                  -1.329
REMARK UNBOUND:                -1.115
REMARK  Name = 
REMARK  8 active torsions:
REMARK  status: ('A' for Active; 'I' for Inactive)
REMARK    1  A    between atoms: C_1  and  C_2
REMARK    2  A    between atoms: C_2  and  N_3
REMARK    3  A    between atoms: C_2  and  C_25
REMARK    4  A    between atoms: N_3  and  C_4
REMARK    5  A    between atoms: C_4  and  C_5
REMARK    6  A    between atoms: C_8  and  C_9
REMARK    7  A    between atoms: C_9  and  N_10
REMARK    8  A    between atoms: C_11  and  C_13
REMARK                            x       y       z     vdW  Elec       q    Type
REMARK                         _______ _______ _______ _____ _____    ______ ____
ROOT
ATOM      1  C   UNL     1      49.974   8.894  11.397  0.00  0.00    +0.000 C 
ATOM      2  C   UNL     1      49.326   7.498  11.453  0.00  0.00    +0.000 C 
ATOM      3  C   UNL     1      48.629   7.223  12.781  0.00  0.00    +0.000 C 
ATOM      4  C   UNL     1      47.571   8.288  13.124  0.00  0.00    +0.000 C 
ATOM      5  C   UNL     1      48.237   9.671  13.127  0.00  0.00    +0.000 C 
ATOM      6  C   UNL     1      48.962   9.980  11.815  0.00  0.00    +0.000 C 
ENDROOT
BRANCH   1   7
ATOM      7  C   UNL     1      51.276   9.003  12.229  0.00  0.00    +0.000 C 
BRANCH   7   8
ATOM      8  N   UNL     1      52.079   7.786  12.100  0.00  0.00    +0.000 NA
ATOM      9  H   UNL     1      52.322   7.439  13.028  0.00  0.00    +0.000 HD
BRANCH   8  11
ATOM     10  C   UNL     1      53.611   9.456  11.023  0.00  0.00    +0.000 C 
ATOM     11  C   UNL     1      53.359   7.991  11.394  0.00  0.00    +0.000 C 
BRANCH  11  12
ATOM     12  C   UNL     1      53.405   7.125  10.132  0.00  0.00    +0.000 A 
ATOM     13  C   UNL     1      52.511   7.349   9.083  0.00  0.00    +0.000 A 
ATOM     14  C   UNL     1      52.596   6.562   7.939  0.00  0.00    +0.000 A 
ATOM     15  C   UNL     1      53.556   5.562   7.874  0.00  0.00    +0.000 A 
ATOM     16  C   UNL     1      54.389   5.384   8.966  0.00  0.00    +0.000 A 
ATOM     17  N   UNL     1      54.336   6.136  10.087  0.00  0.00    +0.000 NA
ENDBRANCH  11  12
ENDBRANCH   8  11
ENDBRANCH   7   8
ENDBRANCH   1   7
BRANCH   4  18
ATOM     18  C   UNL     1      46.337   8.268  12.196  0.00  0.00    +0.000 C 
BRANCH  18  19
ATOM     19  N   UNL     1      45.861   6.921  11.971  0.00  0.00    +0.000 N 
ATOM     20  C   UNL     1      44.611   6.604  11.517  0.00  0.00    +0.000 C 
ATOM     21  O   UNL     1      43.762   7.448  11.245  0.00  0.00    +0.000 OA
ATOM     22  H   UNL     1      46.513   6.167  12.136  0.00  0.00    +0.000 HD
BRANCH  20  23
ATOM     23  C   UNL     1      44.381   5.170  11.299  0.00  0.00    +0.000 A 
ATOM     24  C   UNL     1      43.658   4.426  12.219  0.00  0.00    +0.000 A 
ATOM     25  S   UNL     1      43.412   2.807  11.737  0.00  0.00    +0.000 S 
ATOM     26  C   UNL     1      44.299   3.037  10.305  0.00  0.00    +0.000 A 
ATOM     27  N   UNL     1      44.457   2.027   9.407  0.00  0.00    +0.000 NA
ATOM     28  C   UNL     1      45.167   2.338   8.373  0.00  0.00    +0.000 A 
ATOM     29  N   UNL     1      45.751   3.560   8.164  0.00  0.00    +0.000 N 
ATOM     30  C   UNL     1      45.628   4.604   9.047  0.00  0.00    +0.000 A 
ATOM     31  O   UNL     1      46.167   5.683   8.823  0.00  0.00    +0.000 OA
ATOM     32  C   UNL     1      44.800   4.321  10.207  0.00  0.00    +0.000 A 
ATOM     33  H   UNL     1      46.305   3.737   7.339  0.00  0.00    +0.000 HD
ENDBRANCH  20  23
ENDBRANCH  18  19
ENDBRANCH   4  18
TORSDOF 7
ENDMDL
MODEL 9
REMARK VINA RESULT:    -6.259      3.168      8.313
REMARK INTER + INTRA:          -9.935
REMARK INTER:                  -8.656
REMARK INTRA:                  -1.279
REMARK UNBOUND:                -1.115
REMARK  Name = 
REMARK  8 active torsions:
REMARK  status: ('A' for Active; 'I' for Inactive)
REMARK    1  A    between atoms: C_1  and  C_2
REMARK    2  A    between atoms: C_2  and  N_3
REMARK    3  A    between atoms: C_2  and  C_25
REMARK    4  A    between atoms: N_3  and  C_4
REMARK    5  A    between atoms: C_4  and  C_5
REMARK    6  A    between atoms: C_8  and  C_9
REMARK    7  A    between atoms: C_9  and  N_10
REMARK    8  A    between atoms: C_11  and  C_13
REMARK                            x       y       z     vdW  Elec       q    Type
REMARK                         _______ _______ _______ _____ _____    ______ ____
ROOT
ATOM      1  C   UNL     1      49.419   9.660  15.095  0.00  0.00    +0.000 C 
ATOM      2  C   UNL     1      50.160   9.844  13.758  0.00  0.00    +0.000 C 
ATOM      3  C   UNL     1      50.560   8.519  13.117  0.00  0.00    +0.000 C 
ATOM      4  C   UNL     1      49.359   7.579  12.907  0.00  0.00    +0.000 C 
ATOM      5  C   UNL     1      48.662   7.351  14.256  0.00  0.00    +0.000 C 
ATOM      6  C   UNL     1      48.257   8.659  14.939  0.00  0.00    +0.000 C 
ENDROOT
BRANCH   1   7
ATOM      7  C   UNL     1      50.349   9.250  16.263  0.00  0.00    +0.000 C 
BRANCH   7   8
ATOM      8  N   UNL     1      49.717   8.225  17.096  0.00  0.00    +0.000 NA
ATOM      9  H   UNL     1      49.436   8.636  17.986  0.00  0.00    +0.000 HD
BRANCH   8  11
ATOM     10  C   UNL     1      51.595   6.758  16.307  0.00  0.00    +0.000 C 
ATOM     11  C   UNL     1      50.610   7.098  17.432  0.00  0.00    +0.000 C 
BRANCH  11  12
ATOM     12  C   UNL     1      49.782   5.860  17.784  0.00  0.00    +0.000 A 
ATOM     13  C   UNL     1      49.315   5.664  19.086  0.00  0.00    +0.000 A 
ATOM     14  C   UNL     1      48.543   4.543  19.369  0.00  0.00    +0.000 A 
ATOM     15  C   UNL     1      48.268   3.636  18.355  0.00  0.00    +0.000 A 
ATOM     16  C   UNL     1      48.788   3.886  17.096  0.00  0.00    +0.000 A 
ATOM     17  N   UNL     1      49.535   4.970  16.788  0.00  0.00    +0.000 NA
ENDBRANCH  11  12
ENDBRANCH   8  11
ENDBRANCH   7   8
ENDBRANCH   1   7
BRANCH   4  18
ATOM     18  C   UNL     1      48.357   8.069  11.839  0.00  0.00    +0.000 C 
BRANCH  18  19
ATOM     19  N   UNL     1      47.550   6.983  11.327  0.00  0.00    +0.000 N 
ATOM     20  C   UNL     1      46.191   6.899  11.454  0.00  0.00    +0.000 C 
ATOM     21  O   UNL     1      45.515   7.756  12.014  0.00  0.00    +0.000 OA
ATOM     22  H   UNL     1      48.027   6.253  10.818  0.00  0.00    +0.000 HD
BRANCH  20  23
ATOM     23  C   UNL     1      45.583   5.739  10.790  0.00  0.00    +0.000 A 
ATOM     24  C   UNL     1      45.769   5.528   9.432  0.00  0.00    +0.000 A 
ATOM     25  S   UNL     1      45.071   4.075   8.870  0.00  0.00    +0.000 S 
ATOM     26  C   UNL     1      44.462   3.702  10.413  0.00  0.00    +0.000 A 
ATOM     27  N   UNL     1      43.768   2.553  10.636  0.00  0.00    +0.000 NA
ATOM     28  C   UNL     1      43.351   2.408  11.850  0.00  0.00    +0.000 A 
ATOM     29  N   UNL     1      43.547   3.315  12.858  0.00  0.00    +0.000 N 
ATOM     30  C   UNL     1      44.231   4.492  12.678  0.00  0.00    +0.000 A 
ATOM     31  O   UNL     1      44.385   5.278  13.607  0.00  0.00    +0.000 OA
ATOM     32  C   UNL     1      44.762   4.684  11.339  0.00  0.00    +0.000 A 
ATOM     33  H   UNL     1      43.185   3.148  13.786  0.00  0.00    +0.000 HD
ENDBRANCH  20  23
ENDBRANCH  18  19
ENDBRANCH   4  18
TORSDOF 7
ENDMDL
