MODEL 1
REMARK VINA RESULT:    -7.561      0.000      0.000
REMARK INTER + INTRA:         -10.975
REMARK INTER:                 -10.433
REMARK INTRA:                  -0.542
REMARK UNBOUND:                -0.542
REMARK  Name = 
REMARK  8 active torsions:
REMARK  status: ('A' for Active; 'I' for Inactive)
REMARK    1  A    between atoms: C_1  and  O_2
REMARK    2  A    between atoms: O_2  and  C_3
REMARK    3  A    between atoms: C_3  and  C_5
REMARK    4  A    between atoms: C_5  and  N_6
REMARK    5  A    between atoms: C_5  and  C_7
REMARK    6  A    between atoms: C_10  and  C_11
REMARK    7  A    between atoms: C_11  and  O_12
REMARK    8  A    between atoms: O_12  and  C_13
REMARK                            x       y       z     vdW  Elec       q    Type
REMARK                         _______ _______ _______ _____ _____    ______ ____
ROOT
ATOM      1  C   UNL     1      46.165   4.934  12.929  0.00  0.00    +0.000 A 
ATOM      2  C   UNL     1      46.277   5.838  11.864  0.00  0.00    +0.000 A 
ATOM      3  C   UNL     1      45.686   5.561  10.631  0.00  0.00    +0.000 A 
ATOM      4  C   UNL     1      44.962   4.378  10.442  0.00  0.00    +0.000 A 
ATOM      5  C   UNL     1      44.830   3.481  11.508  0.00  0.00    +0.000 A 
ATOM      6  C   UNL     1      45.410   3.765  12.746  0.00  0.00    +0.000 A 
ENDROOT
BRANCH   1   7
ATOM      7  C   UNL     1      46.898   5.203  14.231  0.00  0.00    +0.000 C 
BRANCH   7   8
ATOM      8  N   UNL     1      48.205   5.850  13.952  0.00  0.00    +0.000 NA
ATOM      9  H   UNL     1      48.891   5.113  13.791  0.00  0.00    +0.000 HD
ATOM     10  H   UNL     1      48.522   6.298  14.815  0.00  0.00    +0.000 HD
ENDBRANCH   7   8
BRANCH   7  11
ATOM     11  C   UNL     1      47.087   3.935  15.086  0.00  0.00    +0.000 C 
ATOM     12  O   UNL     1      47.789   2.983  14.761  0.00  0.00    +0.000 OA
BRANCH  11  14
ATOM     13  C   UNL     1      47.267   4.128  17.412  0.00  0.00    +0.000 C 
ATOM     14  O   UNL     1      46.416   4.037  16.270  0.00  0.00    +0.000 OA
ENDBRANCH  11  14
ENDBRANCH   7  11
ENDBRANCH   1   7
BRANCH   4  15
ATOM     15  C   UNL     1      44.329   4.078   9.109  0.00  0.00    +0.000 C 
BRANCH  15  16
ATOM     16  O   UNL     1      45.264   4.296   8.053  0.00  0.00    +0.000 OA
BRANCH  16  17
ATOM     17  C   UNL     1      46.049   3.218   7.729  0.00  0.00    +0.000 A 
ATOM     18  C   UNL     1      45.873   1.920   8.199  0.00  0.00    +0.000 A 
ATOM     19  C   UNL     1      46.752   0.941   7.775  0.00  0.00    +0.000 A 
ATOM     20  N   UNL     1      47.778   1.165   6.930  0.00  0.00    +0.000 NA
ATOM     21  C   UNL     1      47.929   2.433   6.489  0.00  0.00    +0.000 A 
ATOM     22  C   UNL     1      47.101   3.480   6.858  0.00  0.00    +0.000 A 
ENDBRANCH  16  17
ENDBRANCH  15  16
ENDBRANCH   4  15
TORSDOF 7
ENDMDL
MODEL 2
REMARK VINA RESULT:    -6.972      1.632      1.759
REMARK INTER + INTRA:         -10.163
REMARK INTER:                  -9.492
REMARK INTRA:                  -0.671
REMARK UNBOUND:                -0.542
REMARK  Name = 
REMARK  8 active torsions:
REMARK  status: ('A' for Active; 'I' for Inactive)
REMARK    1  A    between atoms: C_1  and  O_2
REMARK    2  A    between atoms: O_2  and  C_3
REMARK    3  A    between atoms: C_3  and  C_5
REMARK    4  A    between atoms: C_5  and  N_6
REMARK    5  A    between atoms: C_5  and  C_7
REMARK    6  A    between atoms: C_10  and  C_11
REMARK    7  A    between atoms: C_11  and  O_12
REMARK    8  A    between atoms: O_12  and  C_13
REMARK                            x       y       z     vdW  Elec       q    Type
REMARK                         _______ _______ _______ _____ _____    ______ ____
ROOT
ATOM      1  C   UNL     1      45.967   5.723  12.459  0.00  0.00    +0.000 A 
ATOM      2  C   UNL     1      45.940   6.232  11.153  0.00  0.00    +0.000 A 
ATOM      3  C   UNL     1      45.433   5.467  10.102  0.00  0.00    +0.000 A 
ATOM      4  C   UNL     1      44.933   4.180  10.338  0.00  0.00    +0.000 A 
ATOM      5  C   UNL     1      44.940   3.674  11.643  0.00  0.00    +0.000 A 
ATOM      6  C   UNL     1      45.434   4.445  12.697  0.00  0.00    +0.000 A 
ENDROOT
BRANCH   1   7
ATOM      7  C   UNL     1      46.613   6.527  13.571  0.00  0.00    +0.000 C 
BRANCH   7   8
ATOM      8  N   UNL     1      46.394   7.977  13.341  0.00  0.00    +0.000 NA
ATOM      9  H   UNL     1      46.278   8.424  14.250  0.00  0.00    +0.000 HD
ATOM     10  H   UNL     1      45.482   8.088  12.893  0.00  0.00    +0.000 HD
ENDBRANCH   7   8
BRANCH   7  11
ATOM     11  C   UNL     1      48.114   6.221  13.740  0.00  0.00    +0.000 C 
ATOM     12  O   UNL     1      48.954   6.389  12.862  0.00  0.00    +0.000 OA
BRANCH  11  14
ATOM     13  C   UNL     1      48.860   6.819  15.877  0.00  0.00    +0.000 C 
ATOM     14  O   UNL     1      48.388   5.791  15.006  0.00  0.00    +0.000 OA
ENDBRANCH  11  14
ENDBRANCH   7  11
ENDBRANCH   1   7
BRANCH   4  15
ATOM     15  C   UNL     1      44.393   3.354   9.201  0.00  0.00    +0.000 C 
BRANCH  15  16
ATOM     16  O   UNL     1      44.980   3.760   7.965  0.00  0.00    +0.000 OA
BRANCH  16  17
ATOM     17  C   UNL     1      45.946   2.923   7.470  0.00  0.00    +0.000 A 
ATOM     18  C   UNL     1      46.306   1.692   8.011  0.00  0.00    +0.000 A 
ATOM     19  C   UNL     1      47.302   0.964   7.389  0.00  0.00    +0.000 A 
ATOM     20  N   UNL     1      47.955   1.373   6.283  0.00  0.00    +0.000 NA
ATOM     21  C   UNL     1      47.590   2.571   5.776  0.00  0.00    +0.000 A 
ATOM     22  C   UNL     1      46.605   3.372   6.329  0.00  0.00    +0.000 A 
ENDBRANCH  16  17
ENDBRANCH  15  16
ENDBRANCH   4  15
TORSDOF 7
ENDMDL
MODEL 3
REMARK VINA RESULT:    -6.913      1.819      2.700
REMARK INTER + INTRA:         -10.082
REMARK INTER:                  -9.390
REMARK INTRA:                  -0.692
REMARK UNBOUND:                -0.542
REMARK  Name = 
REMARK  8 active torsions:
REMARK  status: ('A' for Active; 'I' for Inactive)
REMARK    1  A    between atoms: C_1  and  O_2
REMARK    2  A    between atoms: O_2  and  C_3
REMARK    3  A    between atoms: C_3  and  C_5
REMARK    4  A    between atoms: C_5  and  N_6
REMARK    5  A    between atoms: C_5  and  C_7
REMARK    6  A    between atoms: C_10  and  C_11
REMARK    7  A    between atoms: C_11  and  O_12
REMARK    8  A    between atoms: O_12  and  C_13
REMARK                            x       y       z     vdW  Elec       q    Type
REMARK                         _______ _______ _______ _____ _____    ______ ____
ROOT
ATOM      1  C   UNL     1      46.172   5.618  12.654  0.00  0.00    +0.000 A 
ATOM      2  C   UNL     1      45.952   4.275  12.993  0.00  0.00    +0.000 A 
ATOM      3  C   UNL     1      45.351   3.402  12.087  0.00  0.00    +0.000 A 
ATOM      4  C   UNL     1      44.966   3.851  10.818  0.00  0.00    +0.000 A 
ATOM      5  C   UNL     1      45.201   5.185  10.466  0.00  0.00    +0.000 A 
ATOM      6  C   UNL     1      45.815   6.056  11.368  0.00  0.00    +0.000 A 
ENDROOT
BRANCH   1   7
ATOM      7  C   UNL     1      46.734   6.577  13.686  0.00  0.00    +0.000 C 
BRANCH   7   8
ATOM      8  N   UNL     1      46.433   7.977  13.293  0.00  0.00    +0.000 NA
ATOM      9  H   UNL     1      47.217   8.324  12.742  0.00  0.00    +0.000 HD
ATOM     10  H   UNL     1      46.453   8.550  14.141  0.00  0.00    +0.000 HD
ENDBRANCH   7   8
BRANCH   7  11
ATOM     11  C   UNL     1      48.246   6.389  13.919  0.00  0.00    +0.000 C 
ATOM     12  O   UNL     1      48.764   6.277  15.026  0.00  0.00    +0.000 OA
BRANCH  11  14
ATOM     13  C   UNL     1      49.690   7.473  12.429  0.00  0.00    +0.000 C 
ATOM     14  O   UNL     1      48.920   6.312  12.735  0.00  0.00    +0.000 OA
ENDBRANCH  11  14
ENDBRANCH   7  11
ENDBRANCH   1   7
BRANCH   4  15
ATOM     15  C   UNL     1      44.312   2.908   9.843  0.00  0.00    +0.000 C 
BRANCH  15  16
ATOM     16  O   UNL     1      44.603   3.295   8.501  0.00  0.00    +0.000 OA
BRANCH  16  17
ATOM     17  C   UNL     1      45.718   2.718   7.950  0.00  0.00    +0.000 A 
ATOM     18  C   UNL     1      46.670   3.374   7.175  0.00  0.00    +0.000 A 
ATOM     19  C   UNL     1      47.743   2.647   6.693  0.00  0.00    +0.000 A 
ATOM     20  N   UNL     1      47.928   1.334   6.928  0.00  0.00    +0.000 NA
ATOM     21  C   UNL     1      46.992   0.718   7.682  0.00  0.00    +0.000 A 
ATOM     22  C   UNL     1      45.882   1.360   8.207  0.00  0.00    +0.000 A 
ENDBRANCH  16  17
ENDBRANCH  15  16
ENDBRANCH   4  15
TORSDOF 7
ENDMDL
MODEL 4
REMARK VINA RESULT:    -6.258      1.548      2.602
REMARK INTER + INTRA:          -9.178
REMARK INTER:                  -8.655
REMARK INTRA:                  -0.523
REMARK UNBOUND:                -0.542
REMARK  Name = 
REMARK  8 active torsions:
REMARK  status: ('A' for Active; 'I' for Inactive)
REMARK    1  A    between atoms: C_1  and  O_2
REMARK    2  A    between atoms: O_2  and  C_3
REMARK    3  A    between atoms: C_3  and  C_5
REMARK    4  A    between atoms: C_5  and  N_6
REMARK    5  A    between atoms: C_5  and  C_7
REMARK    6  A    between atoms: C_10  and  C_11
REMARK    7  A    between atoms: C_11  and  O_12
REMARK    8  A    between atoms: O_12  and  C_13
REMARK                            x       y       z     vdW  Elec       q    Type
REMARK                         _______ _______ _______ _____ _____    ______ ____
ROOT
ATOM      1  C   UNL     1      47.267   5.287  14.784  0.00  0.00    +0.000 A 
ATOM      2  C   UNL     1      47.792   6.336  14.016  0.00  0.00    +0.000 A 
ATOM      3  C   UNL     1      47.315   6.582  12.728  0.00  0.00    +0.000 A 
ATOM      4  C   UNL     1      46.295   5.791  12.186  0.00  0.00    +0.000 A 
ATOM      5  C   UNL     1      45.753   4.755  12.956  0.00  0.00    +0.000 A 
ATOM      6  C   UNL     1      46.221   4.517  14.249  0.00  0.00    +0.000 A 
ENDROOT
BRANCH   1   7
ATOM      7  C   UNL     1      47.865   4.969  16.141  0.00  0.00    +0.000 C 
BRANCH   7   8
ATOM      8  N   UNL     1      49.297   5.362  16.169  0.00  0.00    +0.000 NA
ATOM      9  H   UNL     1      49.706   4.992  17.026  0.00  0.00    +0.000 HD
ATOM     10  H   UNL     1      49.340   6.377  16.292  0.00  0.00    +0.000 HD
ENDBRANCH   7   8
BRANCH   7  11
ATOM     11  C   UNL     1      47.697   3.490  16.540  0.00  0.00    +0.000 C 
ATOM     12  O   UNL     1      46.794   3.067  17.254  0.00  0.00    +0.000 OA
BRANCH  11  14
ATOM     13  C   UNL     1      49.519   2.059  16.879  0.00  0.00    +0.000 C 
ATOM     14  O   UNL     1      48.652   2.712  15.952  0.00  0.00    +0.000 OA
ENDBRANCH  11  14
ENDBRANCH   7  11
ENDBRANCH   1   7
BRANCH   4  15
ATOM     15  C   UNL     1      45.787   6.055  10.794  0.00  0.00    +0.000 C 
BRANCH  15  16
ATOM     16  O   UNL     1      44.830   5.066  10.415  0.00  0.00    +0.000 OA
BRANCH  16  17
ATOM     17  C   UNL     1      45.252   4.172   9.464  0.00  0.00    +0.000 A 
ATOM     18  C   UNL     1      45.897   4.500   8.275  0.00  0.00    +0.000 A 
ATOM     19  C   UNL     1      46.262   3.478   7.419  0.00  0.00    +0.000 A 
ATOM     20  N   UNL     1      46.031   2.173   7.664  0.00  0.00    +0.000 NA
ATOM     21  C   UNL     1      45.403   1.879   8.823  0.00  0.00    +0.000 A 
ATOM     22  C   UNL     1      44.998   2.833   9.743  0.00  0.00    +0.000 A 
ENDBRANCH  16  17
ENDBRANCH  15  16
ENDBRANCH   4  15
TORSDOF 7
ENDMDL
MODEL 5
REMARK VINA RESULT:    -5.984      2.204      6.688
REMARK INTER + INTRA:          -8.799
REMARK INTER:                  -8.859
REMARK INTRA:                   0.060
REMARK UNBOUND:                -0.542
REMARK  Name = 
REMARK  8 active torsions:
REMARK  status: ('A' for Active; 'I' for Inactive)
REMARK    1  A    between atoms: C_1  and  O_2
REMARK    2  A    between atoms: O_2  and  C_3
REMARK    3  A    between atoms: C_3  and  C_5
REMARK    4  A    between atoms: C_5  and  N_6
REMARK    5  A    between atoms: C_5  and  C_7
REMARK    6  A    between atoms: C_10  and  C_11
REMARK    7  A    between atoms: C_11  and  O_12
REMARK    8  A    between atoms: O_12  and  C_13
REMARK                            x       y       z     vdW  Elec       q    Type
REMARK                         _______ _______ _______ _____ _____    ______ ____
ROOT
ATOM      1  C   UNL     1      44.884   3.033   9.026  0.00  0.00    +0.000 A 
ATOM      2  C   UNL     1      44.611   4.404   8.919  0.00  0.00    +0.000 A 
ATOM      3  C   UNL     1      43.895   5.066   9.917  0.00  0.00    +0.000 A 
ATOM      4  C   UNL     1      43.448   4.373  11.048  0.00  0.00    +0.000 A 
ATOM      5  C   UNL     1      43.735   3.009  11.170  0.00  0.00    +0.000 A 
ATOM      6  C   UNL     1      44.462   2.349  10.178  0.00  0.00    +0.000 A 
ENDROOT
BRANCH   1   7
ATOM      7  C   UNL     1      45.574   2.308   7.887  0.00  0.00    +0.000 C 
BRANCH   7   8
ATOM      8  N   UNL     1      46.060   0.983   8.349  0.00  0.00    +0.000 NA
ATOM      9  H   UNL     1      46.874   0.735   7.787  0.00  0.00    +0.000 HD
ATOM     10  H   UNL     1      45.358   0.285   8.090  0.00  0.00    +0.000 HD
ENDBRANCH   7   8
BRANCH   7  11
ATOM     11  C   UNL     1      46.724   3.124   7.264  0.00  0.00    +0.000 C 
ATOM     12  O   UNL     1      46.713   4.344   7.138  0.00  0.00    +0.000 OA
BRANCH  11  14
ATOM     13  C   UNL     1      47.996   2.222   5.518  0.00  0.00    +0.000 C 
ATOM     14  O   UNL     1      47.771   2.317   6.924  0.00  0.00    +0.000 OA
ENDBRANCH  11  14
ENDBRANCH   7  11
ENDBRANCH   1   7
BRANCH   4  15
ATOM     15  C   UNL     1      42.671   5.089  12.121  0.00  0.00    +0.000 C 
BRANCH  15  16
ATOM     16  O   UNL     1      43.436   5.169  13.323  0.00  0.00    +0.000 OA
BRANCH  16  17
ATOM     17  C   UNL     1      44.678   5.737  13.194  0.00  0.00    +0.000 A 
ATOM     18  C   UNL     1      44.935   7.019  12.718  0.00  0.00    +0.000 A 
ATOM     19  C   UNL     1      46.249   7.446  12.650  0.00  0.00    +0.000 A 
ATOM     20  N   UNL     1      47.304   6.694  13.018  0.00  0.00    +0.000 NA
ATOM     21  C   UNL     1      47.030   5.452  13.474  0.00  0.00    +0.000 A 
ATOM     22  C   UNL     1      45.749   4.936  13.578  0.00  0.00    +0.000 A 
ENDBRANCH  16  17
ENDBRANCH  15  16
ENDBRANCH   4  15
TORSDOF 7
ENDMDL
MODEL 6
REMARK VINA RESULT:    -5.967      2.434      7.783
REMARK INTER + INTRA:          -8.775
REMARK INTER:                  -8.183
REMARK INTRA:                  -0.593
REMARK UNBOUND:                -0.542
REMARK  Name = 
REMARK  8 active torsions:
REMARK  status: ('A' for Active; 'I' for Inactive)
REMARK    1  A    between atoms: C_1  and  O_2
REMARK    2  A    between atoms: O_2  and  C_3
REMARK    3  A    between atoms: C_3  and  C_5
REMARK    4  A    between atoms: C_5  and  N_6
REMARK    5  A    between atoms: C_5  and  C_7
REMARK    6  A    between atoms: C_10  and  C_11
REMARK    7  A    between atoms: C_11  and  O_12
REMARK    8  A    between atoms: O_12  and  C_13
REMARK                            x       y       z     vdW  Elec       q    Type
REMARK                         _______ _______ _______ _____ _____    ______ ____
ROOT
ATOM      1  C   UNL     1      44.971   4.383  11.520  0.00  0.00    +0.000 A 
ATOM      2  C   UNL     1      45.417   5.698  11.331  0.00  0.00    +0.000 A 
ATOM      3  C   UNL     1      46.332   6.272  12.214  0.00  0.00    +0.000 A 
ATOM      4  C   UNL     1      46.828   5.537  13.299  0.00  0.00    +0.000 A 
ATOM      5  C   UNL     1      46.401   4.217  13.481  0.00  0.00    +0.000 A 
ATOM      6  C   UNL     1      45.495   3.639  12.590  0.00  0.00    +0.000 A 
ENDROOT
BRANCH   1   7
ATOM      7  C   UNL     1      43.900   3.809  10.611  0.00  0.00    +0.000 C 
BRANCH   7   8
ATOM      8  N   UNL     1      43.019   2.894  11.380  0.00  0.00    +0.000 NA
ATOM      9  H   UNL     1      42.620   2.221  10.727  0.00  0.00    +0.000 HD
ATOM     10  H   UNL     1      42.212   3.435  11.702  0.00  0.00    +0.000 HD
ENDBRANCH   7   8
BRANCH   7  11
ATOM     11  C   UNL     1      44.482   3.095   9.375  0.00  0.00    +0.000 C 
ATOM     12  O   UNL     1      44.605   1.879   9.276  0.00  0.00    +0.000 OA
BRANCH  11  14
ATOM     13  C   UNL     1      45.918   3.616   7.602  0.00  0.00    +0.000 C 
ATOM     14  O   UNL     1      44.790   3.990   8.392  0.00  0.00    +0.000 OA
ENDBRANCH  11  14
ENDBRANCH   7  11
ENDBRANCH   1   7
BRANCH   4  15
ATOM     15  C   UNL     1      47.811   6.161  14.253  0.00  0.00    +0.000 C 
BRANCH  15  16
ATOM     16  O   UNL     1      48.344   5.175  15.137  0.00  0.00    +0.000 OA
BRANCH  16  17
ATOM     17  C   UNL     1      48.247   5.468  16.473  0.00  0.00    +0.000 A 
ATOM     18  C   UNL     1      47.488   4.763  17.403  0.00  0.00    +0.000 A 
ATOM     19  C   UNL     1      47.498   5.186  18.719  0.00  0.00    +0.000 A 
ATOM     20  N   UNL     1      48.201   6.247  19.163  0.00  0.00    +0.000 NA
ATOM     21  C   UNL     1      48.929   6.916  18.243  0.00  0.00    +0.000 A 
ATOM     22  C   UNL     1      48.981   6.569  16.902  0.00  0.00    +0.000 A 
ENDBRANCH  16  17
ENDBRANCH  15  16
ENDBRANCH   4  15
TORSDOF 7
ENDMDL
MODEL 7
REMARK VINA RESULT:    -5.834      3.216      6.884
REMARK INTER + INTRA:          -8.593
REMARK INTER:                  -7.963
REMARK INTRA:                  -0.629
REMARK UNBOUND:                -0.542
REMARK  Name = 
REMARK  8 active torsions:
REMARK  status: ('A' for Active; 'I' for Inactive)
REMARK    1  A    between atoms: C_1  and  O_2
REMARK    2  A    between atoms: O_2  and  C_3
REMARK    3  A    between atoms: C_3  and  C_5
REMARK    4  A    between atoms: C_5  and  N_6
REMARK    5  A    between atoms: C_5  and  C_7
REMARK    6  A    between atoms: C_10  and  C_11
REMARK    7  A    between atoms: C_11  and  O_12
REMARK    8  A    between atoms: O_12  and  C_13
REMARK                            x       y       z     vdW  Elec       q    Type
REMARK                         _______ _______ _______ _____ _____    ______ ____
ROOT
ATOM      1  C   UNL     1      44.985   4.200  11.164  0.00  0.00    +0.000 A 
ATOM      2  C   UNL     1      45.437   5.455  10.732  0.00  0.00    +0.000 A 
ATOM      3  C   UNL     1      46.239   6.244  11.557  0.00  0.00    +0.000 A 
ATOM      4  C   UNL     1      46.614   5.790  12.827  0.00  0.00    +0.000 A 
ATOM      5  C   UNL     1      46.183   4.530  13.255  0.00  0.00    +0.000 A 
ATOM      6  C   UNL     1      45.392   3.734  12.425  0.00  0.00    +0.000 A 
ENDROOT
BRANCH   1   7
ATOM      7  C   UNL     1      44.033   3.398  10.297  0.00  0.00    +0.000 C 
BRANCH   7   8
ATOM      8  N   UNL     1      43.341   2.372  11.118  0.00  0.00    +0.000 NA
ATOM      9  H   UNL     1      43.322   2.704  12.082  0.00  0.00    +0.000 HD
ATOM     10  H   UNL     1      43.942   1.545  11.154  0.00  0.00    +0.000 HD
ENDBRANCH   7   8
BRANCH   7  11
ATOM     11  C   UNL     1      44.726   2.750   9.084  0.00  0.00    +0.000 C 
ATOM     12  O   UNL     1      45.194   1.616   9.082  0.00  0.00    +0.000 OA
BRANCH  11  14
ATOM     13  C   UNL     1      45.926   3.615   7.269  0.00  0.00    +0.000 C 
ATOM     14  O   UNL     1      44.703   3.582   8.002  0.00  0.00    +0.000 OA
ENDBRANCH  11  14
ENDBRANCH   7  11
ENDBRANCH   1   7
BRANCH   4  15
ATOM     15  C   UNL     1      47.475   6.647  13.717  0.00  0.00    +0.000 C 
BRANCH  15  16
ATOM     16  O   UNL     1      48.856   6.345  13.517  0.00  0.00    +0.000 OA
BRANCH  16  17
ATOM     17  C   UNL     1      49.620   7.376  13.034  0.00  0.00    +0.000 A 
ATOM     18  C   UNL     1      49.691   7.775  11.702  0.00  0.00    +0.000 A 
ATOM     19  C   UNL     1      50.510   8.839  11.375  0.00  0.00    +0.000 A 
ATOM     20  N   UNL     1      51.252   9.520  12.270  0.00  0.00    +0.000 NA
ATOM     21  C   UNL     1      51.169   9.114  13.556  0.00  0.00    +0.000 A 
ATOM     22  C   UNL     1      50.377   8.059  13.980  0.00  0.00    +0.000 A 
ENDBRANCH  16  17
ENDBRANCH  15  16
ENDBRANCH   4  15
TORSDOF 7
ENDMDL
MODEL 8
REMARK VINA RESULT:    -5.724      3.045      7.605
REMARK INTER + INTRA:          -8.440
REMARK INTER:                  -7.879
REMARK INTRA:                  -0.562
REMARK UNBOUND:                -0.542
REMARK  Name = 
REMARK  8 active torsions:
REMARK  status: ('A' for Active; 'I' for Inactive)
REMARK    1  A    between atoms: C_1  and  O_2
REMARK    2  A    between atoms: O_2  and  C_3
REMARK    3  A    between atoms: C_3  and  C_5
REMARK    4  A    between atoms: C_5  and  N_6
REMARK    5  A    between atoms: C_5  and  C_7
REMARK    6  A    between atoms: C_10  and  C_11
REMARK    7  A    between atoms: C_11  and  O_12
REMARK    8  A    between atoms: O_12  and  C_13
REMARK                            x       y       z     vdW  Elec       q    Type
REMARK                         _______ _______ _______ _____ _____    ______ ____
ROOT
ATOM      1  C   UNL     1      44.836   5.265  11.725  0.00  0.00    +0.000 A 
ATOM      2  C   UNL     1      45.512   4.616  12.768  0.00  0.00    +0.000 A 
ATOM      3  C   UNL     1      46.665   5.171  13.322  0.00  0.00    +0.000 A 
ATOM      4  C   UNL     1      47.161   6.393  12.851  0.00  0.00    +0.000 A 
ATOM      5  C   UNL     1      46.479   7.056  11.824  0.00  0.00    +0.000 A 
ATOM      6  C   UNL     1      45.318   6.507  11.279  0.00  0.00    +0.000 A 
ENDROOT
BRANCH   1   7
ATOM      7  C   UNL     1      43.642   4.599  11.066  0.00  0.00    +0.000 C 
BRANCH   7   8
ATOM      8  N   UNL     1      42.390   5.017  11.746  0.00  0.00    +0.000 NA
ATOM      9  H   UNL     1      41.860   4.175  11.968  0.00  0.00    +0.000 HD
ATOM     10  H   UNL     1      41.808   5.501  11.059  0.00  0.00    +0.000 HD
ENDBRANCH   7   8
BRANCH   7  11
ATOM     11  C   UNL     1      43.757   3.063  11.028  0.00  0.00    +0.000 C 
ATOM     12  O   UNL     1      42.984   2.300  11.597  0.00  0.00    +0.000 OA
BRANCH  11  14
ATOM     13  C   UNL     1      44.548   2.812   8.839  0.00  0.00    +0.000 C 
ATOM     14  O   UNL     1      44.797   2.668  10.236  0.00  0.00    +0.000 OA
ENDBRANCH  11  14
ENDBRANCH   7  11
ENDBRANCH   1   7
BRANCH   4  15
ATOM     15  C   UNL     1      48.409   6.987  13.447  0.00  0.00    +0.000 C 
BRANCH  15  16
ATOM     16  O   UNL     1      48.957   6.113  14.433  0.00  0.00    +0.000 OA
BRANCH  16  17
ATOM     17  C   UNL     1      48.797   6.518  15.734  0.00  0.00    +0.000 A 
ATOM     18  C   UNL     1      48.866   7.833  16.186  0.00  0.00    +0.000 A 
ATOM     19  C   UNL     1      48.678   8.077  17.534  0.00  0.00    +0.000 A 
ATOM     20  N   UNL     1      48.432   7.116  18.445  0.00  0.00    +0.000 NA
ATOM     21  C   UNL     1      48.371   5.848  17.984  0.00  0.00    +0.000 A 
ATOM     22  C   UNL     1      48.546   5.504  16.653  0.00  0.00    +0.000 A 
ENDBRANCH  16  17
ENDBRANCH  15  16
ENDBRANCH   4  15
TORSDOF 7
ENDMDL
