MODEL 1
REMARK VINA RESULT:    -8.195      0.000      0.000
REMARK INTER + INTRA:         -11.856
REMARK INTER:                 -11.308
REMARK INTRA:                  -0.547
REMARK UNBOUND:                -0.547
REMARK  Name = 
REMARK  7 active torsions:
REMARK  status: ('A' for Active; 'I' for Inactive)
REMARK    1  A    between atoms: N_1  and  C_2
REMARK    2  A    between atoms: C_2  and  C_3
REMARK    3  A    between atoms: C_7  and  C_8
REMARK    4  A    between atoms: C_8  and  C_9
REMARK    5  A    between atoms: C_9  and  N_10
REMARK    6  A    between atoms: N_10  and  C_11
REMARK    7  A    between atoms: C_14  and  C_15
REMARK                            x       y       z     vdW  Elec       q    Type
REMARK                         _______ _______ _______ _____ _____    ______ ____
ROOT
ATOM      1  N   UNL     1      43.600   4.672   9.917  0.00  0.00    +0.000 N 
ATOM      2  H   UNL     1      43.697   5.664   9.708  0.00  0.00    +0.000 HD
ENDROOT
BRANCH   1   3
ATOM      3  C   UNL     1      44.583   3.916   9.237  0.00  0.00    +0.000 A 
ATOM      4  C   UNL     1      45.462   4.592   8.372  0.00  0.00    +0.000 A 
ATOM      5  C   UNL     1      46.430   3.901   7.619  0.00  0.00    +0.000 A 
ATOM      6  C   UNL     1      46.536   2.509   7.711  0.00  0.00    +0.000 A 
ATOM      7  C   UNL     1      45.649   1.824   8.542  0.00  0.00    +0.000 A 
ATOM      8  C   UNL     1      44.690   2.514   9.272  0.00  0.00    +0.000 A 
ATOM      9  F   UNL     1      43.880   1.772  10.043  0.00  0.00    +0.000 F 
BRANCH   6  10
ATOM     10  C   UNL     1      47.531   1.682   6.971  0.00  0.00    +0.000 C 
ATOM     11  N   UNL     1      48.609   2.297   6.406  0.00  0.00    +0.000 N 
ATOM     12  O   UNL     1      47.399   0.468   6.866  0.00  0.00    +0.000 OA
ATOM     13  H   UNL     1      48.801   3.283   6.424  0.00  0.00    +0.000 HD
ATOM     14  H   UNL     1      49.256   1.692   5.911  0.00  0.00    +0.000 HD
ENDBRANCH   6  10
ENDBRANCH   1   3
BRANCH   1  15
ATOM     15  C   UNL     1      43.425   4.394  11.351  0.00  0.00    +0.000 C 
BRANCH  15  16
ATOM     16  C   UNL     1      43.631   5.634  12.217  0.00  0.00    +0.000 C 
BRANCH  16  21
ATOM     17  C   UNL     1      46.911   5.319  13.900  0.00  0.00    +0.000 A 
ATOM     18  C   UNL     1      47.759   6.119  13.140  0.00  0.00    +0.000 A 
ATOM     19  C   UNL     1      47.238   6.797  12.044  0.00  0.00    +0.000 A 
ATOM     20  C   UNL     1      45.890   6.650  11.729  0.00  0.00    +0.000 A 
ATOM     21  C   UNL     1      45.102   5.816  12.518  0.00  0.00    +0.000 A 
ATOM     22  N   UNL     1      45.593   5.166  13.602  0.00  0.00    +0.000 NA
BRANCH  17  23
ATOM     23  C   UNL     1      47.445   4.566  15.101  0.00  0.00    +0.000 C 
BRANCH  23  24
ATOM     24  N   UNL     1      47.580   3.123  14.869  0.00  0.00    +0.000 NA
ATOM     25  H   UNL     1      48.351   2.973  14.220  0.00  0.00    +0.000 HD
ATOM     26  H   UNL     1      46.741   2.805  14.383  0.00  0.00    +0.000 HD
ENDBRANCH  23  24
ENDBRANCH  17  23
ENDBRANCH  16  21
ENDBRANCH  15  16
ENDBRANCH   1  15
TORSDOF 7
ENDMDL
MODEL 2
REMARK VINA RESULT:    -8.074      1.787      2.823
REMARK INTER + INTRA:         -11.689
REMARK INTER:                 -10.622
REMARK INTRA:                  -1.067
REMARK UNBOUND:                -0.547
REMARK  Name = 
REMARK  7 active torsions:
REMARK  status: ('A' for Active; 'I' for Inactive)
REMARK    1  A    between atoms: N_1  and  C_2
REMARK    2  A    between atoms: C_2  and  C_3
REMARK    3  A    between atoms: C_7  and  C_8
REMARK    4  A    between atoms: C_8  and  C_9
REMARK    5  A    between atoms: C_9  and  N_10
REMARK    6  A    between atoms: N_10  and  C_11
REMARK    7  A    between atoms: C_14  and  C_15
REMARK                            x       y       z     vdW  Elec       q    Type
REMARK                         _______ _______ _______ _____ _____    ______ ____
ROOT
ATOM      1  N   UNL     1      43.592   3.849  10.580  0.00  0.00    +0.000 N 
ATOM      2  H   UNL     1      43.668   4.837  10.812  0.00  0.00    +0.000 HD
ENDROOT
BRANCH   1   3
ATOM      3  C   UNL     1      44.521   3.496   9.574  0.00  0.00    +0.000 A 
ATOM      4  C   UNL     1      44.685   2.133   9.268  0.00  0.00    +0.000 A 
ATOM      5  C   UNL     1      45.630   1.701   8.319  0.00  0.00    +0.000 A 
ATOM      6  C   UNL     1      46.441   2.628   7.655  0.00  0.00    +0.000 A 
ATOM      7  C   UNL     1      46.309   3.979   7.973  0.00  0.00    +0.000 A 
ATOM      8  C   UNL     1      45.382   4.396   8.919  0.00  0.00    +0.000 A 
ATOM      9  F   UNL     1      45.327   5.714   9.161  0.00  0.00    +0.000 F 
BRANCH   6  10
ATOM     10  C   UNL     1      47.461   2.280   6.626  0.00  0.00    +0.000 C 
ATOM     11  N   UNL     1      47.464   2.961   5.444  0.00  0.00    +0.000 N 
ATOM     12  O   UNL     1      48.292   1.400   6.823  0.00  0.00    +0.000 OA
ATOM     13  H   UNL     1      46.821   3.687   5.182  0.00  0.00    +0.000 HD
ATOM     14  H   UNL     1      48.176   2.686   4.776  0.00  0.00    +0.000 HD
ENDBRANCH   6  10
ENDBRANCH   1   3
BRANCH   1  15
ATOM     15  C   UNL     1      43.531   2.976  11.763  0.00  0.00    +0.000 C 
BRANCH  15  16
ATOM     16  C   UNL     1      43.638   3.755  13.072  0.00  0.00    +0.000 C 
BRANCH  16  21
ATOM     17  C   UNL     1      45.328   6.954  12.303  0.00  0.00    +0.000 A 
ATOM     18  C   UNL     1      46.644   6.748  12.708  0.00  0.00    +0.000 A 
ATOM     19  C   UNL     1      46.995   5.513  13.240  0.00  0.00    +0.000 A 
ATOM     20  C   UNL     1      46.025   4.523  13.366  0.00  0.00    +0.000 A 
ATOM     21  C   UNL     1      44.722   4.803  12.962  0.00  0.00    +0.000 A 
ATOM     22  N   UNL     1      44.370   5.996  12.421  0.00  0.00    +0.000 NA
BRANCH  17  23
ATOM     23  C   UNL     1      44.910   8.288  11.718  0.00  0.00    +0.000 C 
BRANCH  23  24
ATOM     24  N   UNL     1      43.621   8.237  11.019  0.00  0.00    +0.000 NA
ATOM     25  H   UNL     1      43.156   7.366  11.266  0.00  0.00    +0.000 HD
ATOM     26  H   UNL     1      43.811   8.177  10.018  0.00  0.00    +0.000 HD
ENDBRANCH  23  24
ENDBRANCH  17  23
ENDBRANCH  16  21
ENDBRANCH  15  16
ENDBRANCH   1  15
TORSDOF 7
ENDMDL
MODEL 3
REMARK VINA RESULT:    -7.848      1.676      2.789
REMARK INTER + INTRA:         -11.378
REMARK INTER:                 -10.524
REMARK INTRA:                  -0.853
REMARK UNBOUND:                -0.547
REMARK  Name = 
REMARK  7 active torsions:
REMARK  status: ('A' for Active; 'I' for Inactive)
REMARK    1  A    between atoms: N_1  and  C_2
REMARK    2  A    between atoms: C_2  and  C_3
REMARK    3  A    between atoms: C_7  and  C_8
REMARK    4  A    between atoms: C_8  and  C_9
REMARK    5  A    between atoms: C_9  and  N_10
REMARK    6  A    between atoms: N_10  and  C_11
REMARK    7  A    between atoms: C_14  and  C_15
REMARK                            x       y       z     vdW  Elec       q    Type
REMARK                         _______ _______ _______ _____ _____    ______ ____
ROOT
ATOM      1  N   UNL     1      43.755   4.753  10.067  0.00  0.00    +0.000 N 
ATOM      2  H   UNL     1      43.800   5.733   9.796  0.00  0.00    +0.000 HD
ENDROOT
BRANCH   1   3
ATOM      3  C   UNL     1      44.686   3.984   9.332  0.00  0.00    +0.000 A 
ATOM      4  C   UNL     1      45.572   4.657   8.472  0.00  0.00    +0.000 A 
ATOM      5  C   UNL     1      46.490   3.956   7.667  0.00  0.00    +0.000 A 
ATOM      6  C   UNL     1      46.537   2.558   7.700  0.00  0.00    +0.000 A 
ATOM      7  C   UNL     1      45.642   1.878   8.526  0.00  0.00    +0.000 A 
ATOM      8  C   UNL     1      44.732   2.578   9.309  0.00  0.00    +0.000 A 
ATOM      9  F   UNL     1      43.910   1.841  10.070  0.00  0.00    +0.000 F 
BRANCH   6  10
ATOM     10  C   UNL     1      47.476   1.721   6.902  0.00  0.00    +0.000 C 
ATOM     11  N   UNL     1      48.423   2.337   6.138  0.00  0.00    +0.000 N 
ATOM     12  O   UNL     1      47.414   0.496   6.922  0.00  0.00    +0.000 OA
ATOM     13  H   UNL     1      48.548   3.329   6.043  0.00  0.00    +0.000 HD
ATOM     14  H   UNL     1      49.036   1.724   5.612  0.00  0.00    +0.000 HD
ENDBRANCH   6  10
ENDBRANCH   1   3
BRANCH   1  15
ATOM     15  C   UNL     1      43.734   4.553  11.525  0.00  0.00    +0.000 C 
BRANCH  15  16
ATOM     16  C   UNL     1      45.123   4.660  12.151  0.00  0.00    +0.000 C 
BRANCH  16  21
ATOM     17  C   UNL     1      45.064   8.334  11.724  0.00  0.00    +0.000 A 
ATOM     18  C   UNL     1      46.287   8.754  12.239  0.00  0.00    +0.000 A 
ATOM     19  C   UNL     1      47.169   7.800  12.732  0.00  0.00    +0.000 A 
ATOM     20  C   UNL     1      46.805   6.458  12.711  0.00  0.00    +0.000 A 
ATOM     21  C   UNL     1      45.557   6.108  12.202  0.00  0.00    +0.000 A 
ATOM     22  N   UNL     1      44.695   7.026  11.698  0.00  0.00    +0.000 NA
BRANCH  17  23
ATOM     23  C   UNL     1      44.077   9.346  11.178  0.00  0.00    +0.000 C 
BRANCH  23  24
ATOM     24  N   UNL     1      42.821   8.744  10.719  0.00  0.00    +0.000 NA
ATOM     25  H   UNL     1      42.486   9.272   9.915  0.00  0.00    +0.000 HD
ATOM     26  H   UNL     1      42.123   8.880  11.451  0.00  0.00    +0.000 HD
ENDBRANCH  23  24
ENDBRANCH  17  23
ENDBRANCH  16  21
ENDBRANCH  15  16
ENDBRANCH   1  15
TORSDOF 7
ENDMDL
MODEL 4
REMARK VINA RESULT:    -7.821      1.281      1.641
REMARK INTER + INTRA:         -11.340
REMARK INTER:                 -10.615
REMARK INTRA:                  -0.725
REMARK UNBOUND:                -0.547
REMARK  Name = 
REMARK  7 active torsions:
REMARK  status: ('A' for Active; 'I' for Inactive)
REMARK    1  A    between atoms: N_1  and  C_2
REMARK    2  A    between atoms: C_2  and  C_3
REMARK    3  A    between atoms: C_7  and  C_8
REMARK    4  A    between atoms: C_8  and  C_9
REMARK    5  A    between atoms: C_9  and  N_10
REMARK    6  A    between atoms: N_10  and  C_11
REMARK    7  A    between atoms: C_14  and  C_15
REMARK                            x       y       z     vdW  Elec       q    Type
REMARK                         _______ _______ _______ _____ _____    ______ ____
ROOT
ATOM      1  N   UNL     1      43.941   3.615  10.846  0.00  0.00    +0.000 N 
ATOM      2  H   UNL     1      43.423   2.785  11.131  0.00  0.00    +0.000 HD
ENDROOT
BRANCH   1   3
ATOM      3  C   UNL     1      44.749   3.341   9.719  0.00  0.00    +0.000 A 
ATOM      4  C   UNL     1      44.927   1.999   9.338  0.00  0.00    +0.000 A 
ATOM      5  C   UNL     1      45.762   1.644   8.262  0.00  0.00    +0.000 A 
ATOM      6  C   UNL     1      46.446   2.631   7.542  0.00  0.00    +0.000 A 
ATOM      7  C   UNL     1      46.301   3.963   7.930  0.00  0.00    +0.000 A 
ATOM      8  C   UNL     1      45.484   4.302   9.001  0.00  0.00    +0.000 A 
ATOM      9  F   UNL     1      45.409   5.607   9.303  0.00  0.00    +0.000 F 
BRANCH   6  10
ATOM     10  C   UNL     1      47.340   2.367   6.380  0.00  0.00    +0.000 C 
ATOM     11  N   UNL     1      47.170   3.092   5.238  0.00  0.00    +0.000 N 
ATOM     12  O   UNL     1      48.223   1.517   6.434  0.00  0.00    +0.000 OA
ATOM     13  H   UNL     1      46.472   3.799   5.088  0.00  0.00    +0.000 HD
ATOM     14  H   UNL     1      47.802   2.874   4.475  0.00  0.00    +0.000 HD
ENDBRANCH   6  10
ENDBRANCH   1   3
BRANCH   1  15
ATOM     15  C   UNL     1      43.109   4.827  10.786  0.00  0.00    +0.000 C 
BRANCH  15  16
ATOM     16  C   UNL     1      43.084   5.587  12.110  0.00  0.00    +0.000 C 
BRANCH  16  21
ATOM     17  C   UNL     1      46.408   5.505  13.733  0.00  0.00    +0.000 A 
ATOM     18  C   UNL     1      47.034   6.663  13.279  0.00  0.00    +0.000 A 
ATOM     19  C   UNL     1      46.341   7.508  12.421  0.00  0.00    +0.000 A 
ATOM     20  C   UNL     1      45.049   7.172  12.030  0.00  0.00    +0.000 A 
ATOM     21  C   UNL     1      44.489   5.988  12.503  0.00  0.00    +0.000 A 
ATOM     22  N   UNL     1      45.146   5.164  13.357  0.00  0.00    +0.000 NA
BRANCH  17  23
ATOM     23  C   UNL     1      47.134   4.561  14.669  0.00  0.00    +0.000 C 
BRANCH  23  24
ATOM     24  N   UNL     1      47.253   3.197  14.141  0.00  0.00    +0.000 NA
ATOM     25  H   UNL     1      46.858   3.180  13.202  0.00  0.00    +0.000 HD
ATOM     26  H   UNL     1      46.658   2.590  14.705  0.00  0.00    +0.000 HD
ENDBRANCH  23  24
ENDBRANCH  17  23
ENDBRANCH  16  21
ENDBRANCH  15  16
ENDBRANCH   1  15
TORSDOF 7
ENDMDL
MODEL 5
REMARK VINA RESULT:    -7.583      1.674      2.220
REMARK INTER + INTRA:         -11.011
REMARK INTER:                 -10.490
REMARK INTRA:                  -0.521
REMARK UNBOUND:                -0.547
REMARK  Name = 
REMARK  7 active torsions:
REMARK  status: ('A' for Active; 'I' for Inactive)
REMARK    1  A    between atoms: N_1  and  C_2
REMARK    2  A    between atoms: C_2  and  C_3
REMARK    3  A    between atoms: C_7  and  C_8
REMARK    4  A    between atoms: C_8  and  C_9
REMARK    5  A    between atoms: C_9  and  N_10
REMARK    6  A    between atoms: N_10  and  C_11
REMARK    7  A    between atoms: C_14  and  C_15
REMARK                            x       y       z     vdW  Elec       q    Type
REMARK                         _______ _______ _______ _____ _____    ______ ____
ROOT
ATOM      1  N   UNL     1      43.839   3.901  10.780  0.00  0.00    +0.000 N 
ATOM      2  H   UNL     1      43.030   4.427  10.453  0.00  0.00    +0.000 HD
ENDROOT
BRANCH   1   3
ATOM      3  C   UNL     1      44.684   3.555   9.701  0.00  0.00    +0.000 A 
ATOM      4  C   UNL     1      44.839   2.193   9.387  0.00  0.00    +0.000 A 
ATOM      5  C   UNL     1      45.706   1.768   8.363  0.00  0.00    +0.000 A 
ATOM      6  C   UNL     1      46.446   2.702   7.629  0.00  0.00    +0.000 A 
ATOM      7  C   UNL     1      46.323   4.054   7.951  0.00  0.00    +0.000 A 
ATOM      8  C   UNL     1      45.474   4.463   8.972  0.00  0.00    +0.000 A 
ATOM      9  F   UNL     1      45.423   5.782   9.212  0.00  0.00    +0.000 F 
BRANCH   6  10
ATOM     10  C   UNL     1      47.378   2.362   6.518  0.00  0.00    +0.000 C 
ATOM     11  N   UNL     1      47.268   3.033   5.336  0.00  0.00    +0.000 N 
ATOM     12  O   UNL     1      48.239   1.498   6.649  0.00  0.00    +0.000 OA
ATOM     13  H   UNL     1      46.593   3.745   5.124  0.00  0.00    +0.000 HD
ATOM     14  H   UNL     1      47.924   2.764   4.610  0.00  0.00    +0.000 HD
ENDBRANCH   6  10
ENDBRANCH   1   3
BRANCH   1  15
ATOM     15  C   UNL     1      44.482   4.501  11.961  0.00  0.00    +0.000 C 
BRANCH  15  16
ATOM     16  C   UNL     1      45.538   3.588  12.580  0.00  0.00    +0.000 C 
BRANCH  16  21
ATOM     17  C   UNL     1      47.316   4.615  15.656  0.00  0.00    +0.000 A 
ATOM     18  C   UNL     1      47.984   5.779  15.288  0.00  0.00    +0.000 A 
ATOM     19  C   UNL     1      47.838   6.254  13.990  0.00  0.00    +0.000 A 
ATOM     20  C   UNL     1      47.042   5.550  13.092  0.00  0.00    +0.000 A 
ATOM     21  C   UNL     1      46.420   4.380  13.519  0.00  0.00    +0.000 A 
ATOM     22  N   UNL     1      46.536   3.917  14.789  0.00  0.00    +0.000 NA
BRANCH  17  23
ATOM     23  C   UNL     1      47.453   4.069  17.063  0.00  0.00    +0.000 C 
BRANCH  23  24
ATOM     24  N   UNL     1      46.681   4.823  18.057  0.00  0.00    +0.000 NA
ATOM     25  H   UNL     1      47.290   5.527  18.470  0.00  0.00    +0.000 HD
ATOM     26  H   UNL     1      46.439   4.185  18.815  0.00  0.00    +0.000 HD
ENDBRANCH  23  24
ENDBRANCH  17  23
ENDBRANCH  16  21
ENDBRANCH  15  16
ENDBRANCH   1  15
TORSDOF 7
ENDMDL
MODEL 6
REMARK VINA RESULT:    -7.266      3.157      6.204
REMARK INTER + INTRA:         -10.574
REMARK INTER:                  -9.782
REMARK INTRA:                  -0.792
REMARK UNBOUND:                -0.547
REMARK  Name = 
REMARK  7 active torsions:
REMARK  status: ('A' for Active; 'I' for Inactive)
REMARK    1  A    between atoms: N_1  and  C_2
REMARK    2  A    between atoms: C_2  and  C_3
REMARK    3  A    between atoms: C_7  and  C_8
REMARK    4  A    between atoms: C_8  and  C_9
REMARK    5  A    between atoms: C_9  and  N_10
REMARK    6  A    between atoms: N_10  and  C_11
REMARK    7  A    between atoms: C_14  and  C_15
REMARK                            x       y       z     vdW  Elec       q    Type
REMARK                         _______ _______ _______ _____ _____    ______ ____
ROOT
ATOM      1  N   UNL     1      44.238   3.383  12.825  0.00  0.00    +0.000 N 
ATOM      2  H   UNL     1      44.733   2.512  13.008  0.00  0.00    +0.000 HD
ENDROOT
BRANCH   1   3
ATOM      3  C   UNL     1      45.104   4.492  12.957  0.00  0.00    +0.000 A 
ATOM      4  C   UNL     1      44.611   5.766  12.625  0.00  0.00    +0.000 A 
ATOM      5  C   UNL     1      45.430   6.909  12.678  0.00  0.00    +0.000 A 
ATOM      6  C   UNL     1      46.772   6.801  13.062  0.00  0.00    +0.000 A 
ATOM      7  C   UNL     1      47.281   5.539  13.364  0.00  0.00    +0.000 A 
ATOM      8  C   UNL     1      46.467   4.414  13.298  0.00  0.00    +0.000 A 
ATOM      9  F   UNL     1      47.044   3.242  13.604  0.00  0.00    +0.000 F 
BRANCH   6  10
ATOM     10  C   UNL     1      47.720   7.946  13.165  0.00  0.00    +0.000 C 
ATOM     11  N   UNL     1      48.965   7.823  12.624  0.00  0.00    +0.000 N 
ATOM     12  O   UNL     1      47.400   8.990  13.723  0.00  0.00    +0.000 OA
ATOM     13  H   UNL     1      49.326   7.008  12.159  0.00  0.00    +0.000 HD
ATOM     14  H   UNL     1      49.574   8.628  12.722  0.00  0.00    +0.000 HD
ENDBRANCH   6  10
ENDBRANCH   1   3
BRANCH   1  15
ATOM     15  C   UNL     1      43.405   3.333  11.612  0.00  0.00    +0.000 C 
BRANCH  15  16
ATOM     16  C   UNL     1      43.772   2.168  10.696  0.00  0.00    +0.000 C 
BRANCH  16  21
ATOM     17  C   UNL     1      46.288   2.117   7.984  0.00  0.00    +0.000 A 
ATOM     18  C   UNL     1      46.392   3.449   7.594  0.00  0.00    +0.000 A 
ATOM     19  C   UNL     1      45.621   4.401   8.250  0.00  0.00    +0.000 A 
ATOM     20  C   UNL     1      44.760   4.000   9.267  0.00  0.00    +0.000 A 
ATOM     21  C   UNL     1      44.687   2.648   9.592  0.00  0.00    +0.000 A 
ATOM     22  N   UNL     1      45.449   1.711   8.975  0.00  0.00    +0.000 NA
BRANCH  17  23
ATOM     23  C   UNL     1      47.113   1.051   7.291  0.00  0.00    +0.000 C 
BRANCH  23  24
ATOM     24  N   UNL     1      46.833  -0.306   7.773  0.00  0.00    +0.000 NA
ATOM     25  H   UNL     1      46.181  -0.748   7.127  0.00  0.00    +0.000 HD
ATOM     26  H   UNL     1      46.335  -0.226   8.660  0.00  0.00    +0.000 HD
ENDBRANCH  23  24
ENDBRANCH  17  23
ENDBRANCH  16  21
ENDBRANCH  15  16
ENDBRANCH   1  15
TORSDOF 7
ENDMDL
MODEL 7
REMARK VINA RESULT:    -6.851      3.194      5.171
REMARK INTER + INTRA:         -10.002
REMARK INTER:                  -9.060
REMARK INTRA:                  -0.942
REMARK UNBOUND:                -0.547
REMARK  Name = 
REMARK  7 active torsions:
REMARK  status: ('A' for Active; 'I' for Inactive)
REMARK    1  A    between atoms: N_1  and  C_2
REMARK    2  A    between atoms: C_2  and  C_3
REMARK    3  A    between atoms: C_7  and  C_8
REMARK    4  A    between atoms: C_8  and  C_9
REMARK    5  A    between atoms: C_9  and  N_10
REMARK    6  A    between atoms: N_10  and  C_11
REMARK    7  A    between atoms: C_14  and  C_15
REMARK                            x       y       z     vdW  Elec       q    Type
REMARK                         _______ _______ _______ _____ _____    ______ ____
ROOT
ATOM      1  N   UNL     1      47.446   6.990  13.929  0.00  0.00    +0.000 N 
ATOM      2  H   UNL     1      47.057   7.920  14.079  0.00  0.00    +0.000 HD
ENDROOT
BRANCH   1   3
ATOM      3  C   UNL     1      46.638   6.245  13.039  0.00  0.00    +0.000 A 
ATOM      4  C   UNL     1      46.413   6.764  11.752  0.00  0.00    +0.000 A 
ATOM      5  C   UNL     1      45.576   6.108  10.830  0.00  0.00    +0.000 A 
ATOM      6  C   UNL     1      44.937   4.913  11.181  0.00  0.00    +0.000 A 
ATOM      7  C   UNL     1      45.128   4.404  12.465  0.00  0.00    +0.000 A 
ATOM      8  C   UNL     1      45.947   5.066  13.372  0.00  0.00    +0.000 A 
ATOM      9  F   UNL     1      46.070   4.504  14.584  0.00  0.00    +0.000 F 
BRANCH   6  10
ATOM     10  C   UNL     1      44.044   4.131  10.279  0.00  0.00    +0.000 C 
ATOM     11  N   UNL     1      44.050   4.406   8.944  0.00  0.00    +0.000 N 
ATOM     12  O   UNL     1      43.311   3.249  10.715  0.00  0.00    +0.000 OA
ATOM     13  H   UNL     1      44.601   5.113   8.491  0.00  0.00    +0.000 HD
ATOM     14  H   UNL     1      43.423   3.849   8.373  0.00  0.00    +0.000 HD
ENDBRANCH   6  10
ENDBRANCH   1   3
BRANCH   1  15
ATOM     15  C   UNL     1      48.893   7.002  13.659  0.00  0.00    +0.000 C 
BRANCH  15  16
ATOM     16  C   UNL     1      49.719   7.300  14.908  0.00  0.00    +0.000 C 
BRANCH  16  21
ATOM     17  C   UNL     1      48.200   4.726  17.087  0.00  0.00    +0.000 A 
ATOM     18  C   UNL     1      47.902   5.410  18.262  0.00  0.00    +0.000 A 
ATOM     19  C   UNL     1      48.196   6.766  18.341  0.00  0.00    +0.000 A 
ATOM     20  C   UNL     1      48.790   7.400  17.254  0.00  0.00    +0.000 A 
ATOM     21  C   UNL     1      49.082   6.651  16.116  0.00  0.00    +0.000 A 
ATOM     22  N   UNL     1      48.781   5.332  16.018  0.00  0.00    +0.000 NA
BRANCH  17  23
ATOM     23  C   UNL     1      47.892   3.247  16.966  0.00  0.00    +0.000 C 
BRANCH  23  24
ATOM     24  N   UNL     1      46.667   2.849  17.668  0.00  0.00    +0.000 NA
ATOM     25  H   UNL     1      46.399   3.602  18.299  0.00  0.00    +0.000 HD
ATOM     26  H   UNL     1      46.893   2.053  18.264  0.00  0.00    +0.000 HD
ENDBRANCH  23  24
ENDBRANCH  17  23
ENDBRANCH  16  21
ENDBRANCH  15  16
ENDBRANCH   1  15
TORSDOF 7
ENDMDL
MODEL 8
REMARK VINA RESULT:    -6.591      3.350      5.374
REMARK INTER + INTRA:          -9.643
REMARK INTER:                  -8.774
REMARK INTRA:                  -0.869
REMARK UNBOUND:                -0.547
REMARK  Name = 
REMARK  7 active torsions:
REMARK  status: ('A' for Active; 'I' for Inactive)
REMARK    1  A    between atoms: N_1  and  C_2
REMARK    2  A    between atoms: C_2  and  C_3
REMARK    3  A    between atoms: C_7  and  C_8
REMARK    4  A    between atoms: C_8  and  C_9
REMARK    5  A    between atoms: C_9  and  N_10
REMARK    6  A    between atoms: N_10  and  C_11
REMARK    7  A    between atoms: C_14  and  C_15
REMARK                            x       y       z     vdW  Elec       q    Type
REMARK                         _______ _______ _______ _____ _____    ______ ____
ROOT
ATOM      1  N   UNL     1      47.365   7.049  14.074  0.00  0.00    +0.000 N 
ATOM      2  H   UNL     1      46.951   7.938  14.348  0.00  0.00    +0.000 HD
ENDROOT
BRANCH   1   3
ATOM      3  C   UNL     1      46.506   6.344  13.199  0.00  0.00    +0.000 A 
ATOM      4  C   UNL     1      46.130   5.035  13.548  0.00  0.00    +0.000 A 
ATOM      5  C   UNL     1      45.324   4.251  12.702  0.00  0.00    +0.000 A 
ATOM      6  C   UNL     1      44.878   4.761  11.477  0.00  0.00    +0.000 A 
ATOM      7  C   UNL     1      45.271   6.047  11.106  0.00  0.00    +0.000 A 
ATOM      8  C   UNL     1      46.076   6.808  11.943  0.00  0.00    +0.000 A 
ATOM      9  F   UNL     1      46.405   8.032  11.502  0.00  0.00    +0.000 F 
BRANCH   6  10
ATOM     10  C   UNL     1      44.012   4.023  10.514  0.00  0.00    +0.000 C 
ATOM     11  N   UNL     1      43.996   4.413   9.208  0.00  0.00    +0.000 N 
ATOM     12  O   UNL     1      43.321   3.076  10.875  0.00  0.00    +0.000 OA
ATOM     13  H   UNL     1      44.513   5.180   8.817  0.00  0.00    +0.000 HD
ATOM     14  H   UNL     1      43.389   3.882   8.593  0.00  0.00    +0.000 HD
ENDBRANCH   6  10
ENDBRANCH   1   3
BRANCH   1  15
ATOM     15  C   UNL     1      48.775   7.164  13.669  0.00  0.00    +0.000 C 
BRANCH  15  16
ATOM     16  C   UNL     1      49.725   7.209  14.863  0.00  0.00    +0.000 C 
BRANCH  16  21
ATOM     17  C   UNL     1      48.100   4.692  17.033  0.00  0.00    +0.000 A 
ATOM     18  C   UNL     1      47.845   5.380  18.216  0.00  0.00    +0.000 A 
ATOM     19  C   UNL     1      48.206   6.719  18.304  0.00  0.00    +0.000 A 
ATOM     20  C   UNL     1      48.821   7.333  17.217  0.00  0.00    +0.000 A 
ATOM     21  C   UNL     1      49.067   6.581  16.071  0.00  0.00    +0.000 A 
ATOM     22  N   UNL     1      48.701   5.279  15.964  0.00  0.00    +0.000 NA
BRANCH  17  23
ATOM     23  C   UNL     1      47.720   3.231  16.902  0.00  0.00    +0.000 C 
BRANCH  23  24
ATOM     24  N   UNL     1      46.569   2.854  17.730  0.00  0.00    +0.000 NA
ATOM     25  H   UNL     1      45.752   3.362  17.395  0.00  0.00    +0.000 HD
ATOM     26  H   UNL     1      46.740   3.194  18.676  0.00  0.00    +0.000 HD
ENDBRANCH  23  24
ENDBRANCH  17  23
ENDBRANCH  16  21
ENDBRANCH  15  16
ENDBRANCH   1  15
TORSDOF 7
ENDMDL
MODEL 9
REMARK VINA RESULT:    -6.227      3.493      6.933
REMARK INTER + INTRA:          -9.141
REMARK INTER:                  -8.015
REMARK INTRA:                  -1.126
REMARK UNBOUND:                -0.547
REMARK  Name = 
REMARK  7 active torsions:
REMARK  status: ('A' for Active; 'I' for Inactive)
REMARK    1  A    between atoms: N_1  and  C_2
REMARK    2  A    between atoms: C_2  and  C_3
REMARK    3  A    between atoms: C_7  and  C_8
REMARK    4  A    between atoms: C_8  and  C_9
REMARK    5  A    between atoms: C_9  and  N_10
REMARK    6  A    between atoms: N_10  and  C_11
REMARK    7  A    between atoms: C_14  and  C_15
REMARK                            x       y       z     vdW  Elec       q    Type
REMARK                         _______ _______ _______ _____ _____    ______ ____
ROOT
ATOM      1  N   UNL     1      47.219   6.276  12.549  0.00  0.00    +0.000 N 
ATOM      2  H   UNL     1      48.103   6.410  12.062  0.00  0.00    +0.000 HD
ENDROOT
BRANCH   1   3
ATOM      3  C   UNL     1      47.433   5.753  13.845  0.00  0.00    +0.000 A 
ATOM      4  C   UNL     1      48.230   6.492  14.737  0.00  0.00    +0.000 A 
ATOM      5  C   UNL     1      48.533   6.010  16.025  0.00  0.00    +0.000 A 
ATOM      6  C   UNL     1      48.048   4.767  16.448  0.00  0.00    +0.000 A 
ATOM      7  C   UNL     1      47.282   4.012  15.560  0.00  0.00    +0.000 A 
ATOM      8  C   UNL     1      46.998   4.491  14.288  0.00  0.00    +0.000 A 
ATOM      9  F   UNL     1      46.256   3.694  13.503  0.00  0.00    +0.000 F 
BRANCH   6  10
ATOM     10  C   UNL     1      48.297   4.171  17.790  0.00  0.00    +0.000 C 
ATOM     11  N   UNL     1      47.441   4.463  18.811  0.00  0.00    +0.000 N 
ATOM     12  O   UNL     1      49.250   3.425  17.990  0.00  0.00    +0.000 OA
ATOM     13  H   UNL     1      46.642   5.069  18.753  0.00  0.00    +0.000 HD
ATOM     14  H   UNL     1      47.654   4.034  19.705  0.00  0.00    +0.000 HD
ENDBRANCH   6  10
ENDBRANCH   1   3
BRANCH   1  15
ATOM     15  C   UNL     1      46.315   7.433  12.442  0.00  0.00    +0.000 C 
BRANCH  15  16
ATOM     16  C   UNL     1      45.233   7.236  11.383  0.00  0.00    +0.000 C 
BRANCH  16  21
ATOM     17  C   UNL     1      44.198   3.737  10.771  0.00  0.00    +0.000 A 
ATOM     18  C   UNL     1      43.357   3.441  11.840  0.00  0.00    +0.000 A 
ATOM     19  C   UNL     1      43.110   4.425  12.790  0.00  0.00    +0.000 A 
ATOM     20  C   UNL     1      43.714   5.671  12.656  0.00  0.00    +0.000 A 
ATOM     21  C   UNL     1      44.562   5.894  11.574  0.00  0.00    +0.000 A 
ATOM     22  N   UNL     1      44.796   4.950  10.628  0.00  0.00    +0.000 NA
BRANCH  17  23
ATOM     23  C   UNL     1      44.490   2.689   9.717  0.00  0.00    +0.000 C 
BRANCH  23  24
ATOM     24  N   UNL     1      44.382   3.198   8.345  0.00  0.00    +0.000 NA
ATOM     25  H   UNL     1      45.317   3.249   7.946  0.00  0.00    +0.000 HD
ATOM     26  H   UNL     1      44.048   4.161   8.395  0.00  0.00    +0.000 HD
ENDBRANCH  23  24
ENDBRANCH  17  23
ENDBRANCH  16  21
ENDBRANCH  15  16
ENDBRANCH   1  15
TORSDOF 7
ENDMDL
