MODEL 1
REMARK VINA RESULT:    -7.742      0.000      0.000
REMARK INTER + INTRA:         -10.885
REMARK INTER:                 -10.231
REMARK INTRA:                  -0.655
REMARK UNBOUND:                -0.655
REMARK  Name = 
REMARK  7 active torsions:
REMARK  status: ('A' for Active; 'I' for Inactive)
REMARK    1  A    between atoms: C_1  and  C_2
REMARK    2  A    between atoms: C_2  and  N_3
REMARK    3  A    between atoms: C_2  and  C_19
REMARK    4  A    between atoms: C_7  and  C_8
REMARK    5  A    between atoms: C_8  and  O_9
REMARK    6  A    between atoms: C_8  and  C_10
REMARK    7  A    between atoms: C_10  and  C_11
REMARK                            x       y       z     vdW  Elec       q    Type
REMARK                         _______ _______ _______ _____ _____    ______ ____
ROOT
ATOM      1  N   UNL     1      47.799   5.276  15.427  0.00  0.00    +0.000 N 
ATOM      2  C   UNL     1      47.125   5.061  14.232  0.00  0.00    +0.000 A 
ATOM      3  C   UNL     1      47.180   6.091  13.298  0.00  0.00    +0.000 A 
ATOM      4  C   UNL     1      46.460   6.002  12.111  0.00  0.00    +0.000 A 
ATOM      5  C   UNL     1      45.721   4.855  11.829  0.00  0.00    +0.000 A 
ATOM      6  C   UNL     1      45.750   3.859  12.805  0.00  0.00    +0.000 A 
ATOM      7  N   UNL     1      46.411   3.948  13.993  0.00  0.00    +0.000 NA
ATOM      8  H   UNL     1      48.795   5.378  15.288  0.00  0.00    +0.000 HD
ENDROOT
BRANCH   1  10
ATOM      9  C   UNL     1      47.922   3.119  16.643  0.00  0.00    +0.000 C 
ATOM     10  C   UNL     1      47.478   4.591  16.672  0.00  0.00    +0.000 C 
BRANCH  10  11
ATOM     11  C   UNL     1      47.788   5.286  17.982  0.00  0.00    +0.000 A 
ATOM     12  C   UNL     1      46.868   5.527  18.990  0.00  0.00    +0.000 A 
ATOM     13  S   UNL     1      47.492   6.475  20.267  0.00  0.00    +0.000 S 
ATOM     14  C   UNL     1      49.031   6.546  19.542  0.00  0.00    +0.000 A 
ATOM     15  N   UNL     1      50.049   7.244  20.112  0.00  0.00    +0.000 NA
ATOM     16  C   UNL     1      51.155   7.208  19.446  0.00  0.00    +0.000 A 
ATOM     17  N   UNL     1      51.342   6.523  18.271  0.00  0.00    +0.000 N 
ATOM     18  C   UNL     1      50.351   5.776  17.671  0.00  0.00    +0.000 A 
ATOM     19  O   UNL     1      50.567   5.113  16.662  0.00  0.00    +0.000 OA
ATOM     20  C   UNL     1      49.073   5.833  18.358  0.00  0.00    +0.000 A 
ATOM     21  H   UNL     1      52.245   6.507  17.821  0.00  0.00    +0.000 HD
ENDBRANCH  10  11
ENDBRANCH   1  10
BRANCH   5  22
ATOM     22  C   UNL     1      44.866   4.702  10.588  0.00  0.00    +0.000 C 
BRANCH  22  23
ATOM     23  O   UNL     1      43.903   5.755  10.572  0.00  0.00    +0.000 OA
ATOM     24  H   UNL     1      43.189   5.513  11.187  0.00  0.00    +0.000 HD
ENDBRANCH  22  23
BRANCH  22  25
ATOM     25  C   UNL     1      45.656   4.748   9.262  0.00  0.00    +0.000 C 
BRANCH  25  26
ATOM     26  C   UNL     1      45.056   3.929   8.095  0.00  0.00    +0.000 C 
ATOM     27  C   UNL     1      44.535   2.546   8.512  0.00  0.00    +0.000 C 
ATOM     28  C   UNL     1      45.669   1.573   8.835  0.00  0.00    +0.000 C 
ATOM     29  N   UNL     1      46.600   1.435   7.712  0.00  0.00    +0.000 NA
ATOM     30  C   UNL     1      47.179   2.725   7.336  0.00  0.00    +0.000 C 
ATOM     31  C   UNL     1      46.101   3.748   6.974  0.00  0.00    +0.000 C 
ATOM     32  H   UNL     1      46.093   1.057   6.911  0.00  0.00    +0.000 HD
ENDBRANCH  25  26
ENDBRANCH  22  25
ENDBRANCH   5  22
TORSDOF 6
ENDMDL
MODEL 2
REMARK VINA RESULT:    -7.187      2.125      2.980
REMARK INTER + INTRA:         -10.152
REMARK INTER:                  -9.294
REMARK INTRA:                  -0.858
REMARK UNBOUND:                -0.655
REMARK  Name = 
REMARK  7 active torsions:
REMARK  status: ('A' for Active; 'I' for Inactive)
REMARK    1  A    between atoms: C_1  and  C_2
REMARK    2  A    between atoms: C_2  and  N_3
REMARK    3  A    between atoms: C_2  and  C_19
REMARK    4  A    between atoms: C_7  and  C_8
REMARK    5  A    between atoms: C_8  and  O_9
REMARK    6  A    between atoms: C_8  and  C_10
REMARK    7  A    between atoms: C_10  and  C_11
REMARK                            x       y       z     vdW  Elec       q    Type
REMARK                         _______ _______ _______ _____ _____    ______ ____
ROOT
ATOM      1  N   UNL     1      50.235   7.405  14.645  0.00  0.00    +0.000 N 
ATOM      2  C   UNL     1      49.050   7.048  14.016  0.00  0.00    +0.000 A 
ATOM      3  C   UNL     1      48.500   7.989  13.151  0.00  0.00    +0.000 A 
ATOM      4  C   UNL     1      47.268   7.756  12.550  0.00  0.00    +0.000 A 
ATOM      5  C   UNL     1      46.603   6.551  12.769  0.00  0.00    +0.000 A 
ATOM      6  C   UNL     1      47.242   5.652  13.622  0.00  0.00    +0.000 A 
ATOM      7  N   UNL     1      48.425   5.883  14.258  0.00  0.00    +0.000 NA
ATOM      8  H   UNL     1      50.988   7.545  13.984  0.00  0.00    +0.000 HD
ENDROOT
BRANCH   1  10
ATOM      9  C   UNL     1      52.184   7.117  16.150  0.00  0.00    +0.000 C 
ATOM     10  C   UNL     1      50.696   6.822  15.898  0.00  0.00    +0.000 C 
BRANCH  10  11
ATOM     11  C   UNL     1      49.832   6.984  17.133  0.00  0.00    +0.000 A 
ATOM     12  C   UNL     1      49.295   8.184  17.572  0.00  0.00    +0.000 A 
ATOM     13  S   UNL     1      48.506   8.062  19.082  0.00  0.00    +0.000 S 
ATOM     14  C   UNL     1      48.806   6.388  19.170  0.00  0.00    +0.000 A 
ATOM     15  N   UNL     1      48.412   5.656  20.247  0.00  0.00    +0.000 NA
ATOM     16  C   UNL     1      48.710   4.401  20.172  0.00  0.00    +0.000 A 
ATOM     17  N   UNL     1      49.350   3.808  19.111  0.00  0.00    +0.000 N 
ATOM     18  C   UNL     1      49.739   4.501  17.986  0.00  0.00    +0.000 A 
ATOM     19  O   UNL     1      50.241   3.932  17.022  0.00  0.00    +0.000 OA
ATOM     20  C   UNL     1      49.473   5.927  18.051  0.00  0.00    +0.000 A 
ATOM     21  H   UNL     1      49.519   2.813  19.102  0.00  0.00    +0.000 HD
ENDBRANCH  10  11
ENDBRANCH   1  10
BRANCH   5  22
ATOM     22  C   UNL     1      45.235   6.242  12.197  0.00  0.00    +0.000 C 
BRANCH  22  23
ATOM     23  O   UNL     1      44.510   7.466  12.077  0.00  0.00    +0.000 OA
ATOM     24  H   UNL     1      44.118   7.492  11.187  0.00  0.00    +0.000 HD
ENDBRANCH  22  23
BRANCH  22  25
ATOM     25  C   UNL     1      45.264   5.558  10.814  0.00  0.00    +0.000 C 
BRANCH  25  26
ATOM     26  C   UNL     1      43.910   5.005  10.311  0.00  0.00    +0.000 C 
ATOM     27  C   UNL     1      43.065   4.341  11.409  0.00  0.00    +0.000 C 
ATOM     28  C   UNL     1      43.643   2.997  11.851  0.00  0.00    +0.000 C 
ATOM     29  N   UNL     1      43.801   2.077  10.721  0.00  0.00    +0.000 NA
ATOM     30  C   UNL     1      44.666   2.645   9.687  0.00  0.00    +0.000 C 
ATOM     31  C   UNL     1      44.136   3.985   9.175  0.00  0.00    +0.000 C 
ATOM     32  H   UNL     1      42.881   1.895  10.317  0.00  0.00    +0.000 HD
ENDBRANCH  25  26
ENDBRANCH  22  25
ENDBRANCH   5  22
TORSDOF 6
ENDMDL
MODEL 3
REMARK VINA RESULT:    -7.156      2.047      2.820
REMARK INTER + INTRA:         -10.112
REMARK INTER:                  -9.341
REMARK INTRA:                  -0.771
REMARK UNBOUND:                -0.655
REMARK  Name = 
REMARK  7 active torsions:
REMARK  status: ('A' for Active; 'I' for Inactive)
REMARK    1  A    between atoms: C_1  and  C_2
REMARK    2  A    between atoms: C_2  and  N_3
REMARK    3  A    between atoms: C_2  and  C_19
REMARK    4  A    between atoms: C_7  and  C_8
REMARK    5  A    between atoms: C_8  and  O_9
REMARK    6  A    between atoms: C_8  and  C_10
REMARK    7  A    between atoms: C_10  and  C_11
REMARK                            x       y       z     vdW  Elec       q    Type
REMARK                         _______ _______ _______ _____ _____    ______ ____
ROOT
ATOM      1  N   UNL     1      47.878   6.288  14.931  0.00  0.00    +0.000 N 
ATOM      2  C   UNL     1      47.079   5.965  13.842  0.00  0.00    +0.000 A 
ATOM      3  C   UNL     1      46.595   4.661  13.796  0.00  0.00    +0.000 A 
ATOM      4  C   UNL     1      45.864   4.222  12.697  0.00  0.00    +0.000 A 
ATOM      5  C   UNL     1      45.567   5.104  11.661  0.00  0.00    +0.000 A 
ATOM      6  C   UNL     1      46.062   6.400  11.806  0.00  0.00    +0.000 A 
ATOM      7  N   UNL     1      46.820   6.834  12.851  0.00  0.00    +0.000 NA
ATOM      8  H   UNL     1      47.373   6.222  15.805  0.00  0.00    +0.000 HD
ENDROOT
BRANCH   1  10
ATOM      9  C   UNL     1      48.208   8.711  15.336  0.00  0.00    +0.000 C 
ATOM     10  C   UNL     1      48.849   7.374  14.929  0.00  0.00    +0.000 C 
BRANCH  10  11
ATOM     11  C   UNL     1      50.202   7.137  15.570  0.00  0.00    +0.000 A 
ATOM     12  C   UNL     1      51.412   7.563  15.047  0.00  0.00    +0.000 A 
ATOM     13  S   UNL     1      52.767   6.997  15.920  0.00  0.00    +0.000 S 
ATOM     14  C   UNL     1      51.777   6.211  17.061  0.00  0.00    +0.000 A 
ATOM     15  N   UNL     1      52.311   5.493  18.085  0.00  0.00    +0.000 NA
ATOM     16  C   UNL     1      51.437   4.953  18.867  0.00  0.00    +0.000 A 
ATOM     17  N   UNL     1      50.076   5.079  18.731  0.00  0.00    +0.000 N 
ATOM     18  C   UNL     1      49.488   5.822  17.730  0.00  0.00    +0.000 A 
ATOM     19  O   UNL     1      48.273   5.980  17.676  0.00  0.00    +0.000 OA
ATOM     20  C   UNL     1      50.434   6.402  16.794  0.00  0.00    +0.000 A 
ATOM     21  H   UNL     1      49.450   4.660  19.401  0.00  0.00    +0.000 HD
ENDBRANCH  10  11
ENDBRANCH   1  10
BRANCH   5  22
ATOM     22  C   UNL     1      44.825   4.691  10.406  0.00  0.00    +0.000 C 
BRANCH  22  23
ATOM     23  O   UNL     1      43.722   5.578  10.221  0.00  0.00    +0.000 OA
ATOM     24  H   UNL     1      43.090   5.419  10.942  0.00  0.00    +0.000 HD
ENDBRANCH  22  23
BRANCH  22  25
ATOM     25  C   UNL     1      45.684   4.711   9.124  0.00  0.00    +0.000 C 
BRANCH  25  26
ATOM     26  C   UNL     1      45.139   3.882   7.938  0.00  0.00    +0.000 C 
ATOM     27  C   UNL     1      44.593   2.505   8.343  0.00  0.00    +0.000 C 
ATOM     28  C   UNL     1      45.706   1.532   8.731  0.00  0.00    +0.000 C 
ATOM     29  N   UNL     1      46.691   1.379   7.657  0.00  0.00    +0.000 NA
ATOM     30  C   UNL     1      47.292   2.664   7.296  0.00  0.00    +0.000 C 
ATOM     31  C   UNL     1      46.236   3.686   6.871  0.00  0.00    +0.000 C 
ATOM     32  H   UNL     1      46.222   0.994   6.836  0.00  0.00    +0.000 HD
ENDBRANCH  25  26
ENDBRANCH  22  25
ENDBRANCH   5  22
TORSDOF 6
ENDMDL
MODEL 4
REMARK VINA RESULT:    -7.057      3.733      4.941
REMARK INTER + INTRA:          -9.981
REMARK INTER:                  -8.904
REMARK INTRA:                  -1.077
REMARK UNBOUND:                -0.655
REMARK  Name = 
REMARK  7 active torsions:
REMARK  status: ('A' for Active; 'I' for Inactive)
REMARK    1  A    between atoms: C_1  and  C_2
REMARK    2  A    between atoms: C_2  and  N_3
REMARK    3  A    between atoms: C_2  and  C_19
REMARK    4  A    between atoms: C_7  and  C_8
REMARK    5  A    between atoms: C_8  and  O_9
REMARK    6  A    between atoms: C_8  and  C_10
REMARK    7  A    between atoms: C_10  and  C_11
REMARK                            x       y       z     vdW  Elec       q    Type
REMARK                         _______ _______ _______ _____ _____    ______ ____
ROOT
ATOM      1  N   UNL     1      47.509   7.630  14.453  0.00  0.00    +0.000 N 
ATOM      2  C   UNL     1      46.769   6.968  13.481  0.00  0.00    +0.000 A 
ATOM      3  C   UNL     1      47.004   5.603  13.349  0.00  0.00    +0.000 A 
ATOM      4  C   UNL     1      46.378   4.876  12.342  0.00  0.00    +0.000 A 
ATOM      5  C   UNL     1      45.469   5.505  11.493  0.00  0.00    +0.000 A 
ATOM      6  C   UNL     1      45.269   6.866  11.718  0.00  0.00    +0.000 A 
ATOM      7  N   UNL     1      45.909   7.603  12.668  0.00  0.00    +0.000 NA
ATOM      8  H   UNL     1      47.301   7.292  15.383  0.00  0.00    +0.000 HD
ENDROOT
BRANCH   1  10
ATOM      9  C   UNL     1      48.332   9.559  15.775  0.00  0.00    +0.000 C 
ATOM     10  C   UNL     1      47.782   9.061  14.428  0.00  0.00    +0.000 C 
BRANCH  10  11
ATOM     11  C   UNL     1      48.510   9.638  13.231  0.00  0.00    +0.000 A 
ATOM     12  C   UNL     1      48.032  10.665  12.431  0.00  0.00    +0.000 A 
ATOM     13  S   UNL     1      49.012  10.976  11.067  0.00  0.00    +0.000 S 
ATOM     14  C   UNL     1      50.138   9.786  11.531  0.00  0.00    +0.000 A 
ATOM     15  N   UNL     1      51.231   9.512  10.769  0.00  0.00    +0.000 NA
ATOM     16  C   UNL     1      51.993   8.585  11.248  0.00  0.00    +0.000 A 
ATOM     17  N   UNL     1      51.773   7.920  12.429  0.00  0.00    +0.000 N 
ATOM     18  C   UNL     1      50.699   8.186  13.252  0.00  0.00    +0.000 A 
ATOM     19  O   UNL     1      50.567   7.630  14.337  0.00  0.00    +0.000 OA
ATOM     20  C   UNL     1      49.785   9.183  12.723  0.00  0.00    +0.000 A 
ATOM     21  H   UNL     1      52.430   7.232  12.763  0.00  0.00    +0.000 HD
ENDBRANCH  10  11
ENDBRANCH   1  10
BRANCH   5  22
ATOM     22  C   UNL     1      44.788   4.799  10.338  0.00  0.00    +0.000 C 
BRANCH  22  23
ATOM     23  O   UNL     1      43.553   5.462  10.070  0.00  0.00    +0.000 OA
ATOM     24  H   UNL     1      42.892   4.781   9.857  0.00  0.00    +0.000 HD
ENDBRANCH  22  23
BRANCH  22  25
ATOM     25  C   UNL     1      45.615   4.768   9.035  0.00  0.00    +0.000 C 
BRANCH  25  26
ATOM     26  C   UNL     1      45.052   3.876   7.904  0.00  0.00    +0.000 C 
ATOM     27  C   UNL     1      44.496   2.531   8.394  0.00  0.00    +0.000 C 
ATOM     28  C   UNL     1      45.602   1.571   8.831  0.00  0.00    +0.000 C 
ATOM     29  N   UNL     1      46.577   1.345   7.761  0.00  0.00    +0.000 NA
ATOM     30  C   UNL     1      47.188   2.600   7.320  0.00  0.00    +0.000 C 
ATOM     31  C   UNL     1      46.140   3.606   6.843  0.00  0.00    +0.000 C 
ATOM     32  H   UNL     1      46.098   0.917   6.968  0.00  0.00    +0.000 HD
ENDBRANCH  25  26
ENDBRANCH  22  25
ENDBRANCH   5  22
TORSDOF 6
ENDMDL
MODEL 5
REMARK VINA RESULT:    -7.032      3.897      5.319
REMARK INTER + INTRA:          -9.948
REMARK INTER:                  -8.970
REMARK INTRA:                  -0.978
REMARK UNBOUND:                -0.655
REMARK  Name = 
REMARK  7 active torsions:
REMARK  status: ('A' for Active; 'I' for Inactive)
REMARK    1  A    between atoms: C_1  and  C_2
REMARK    2  A    between atoms: C_2  and  N_3
REMARK    3  A    between atoms: C_2  and  C_19
REMARK    4  A    between atoms: C_7  and  C_8
REMARK    5  A    between atoms: C_8  and  O_9
REMARK    6  A    between atoms: C_8  and  C_10
REMARK    7  A    between atoms: C_10  and  C_11
REMARK                            x       y       z     vdW  Elec       q    Type
REMARK                         _______ _______ _______ _____ _____    ______ ____
ROOT
ATOM      1  N   UNL     1      47.587   7.159  14.455  0.00  0.00    +0.000 N 
ATOM      2  C   UNL     1      46.817   6.590  13.449  0.00  0.00    +0.000 A 
ATOM      3  C   UNL     1      46.777   5.199  13.413  0.00  0.00    +0.000 A 
ATOM      4  C   UNL     1      46.108   4.542  12.386  0.00  0.00    +0.000 A 
ATOM      5  C   UNL     1      45.427   5.276  11.417  0.00  0.00    +0.000 A 
ATOM      6  C   UNL     1      45.491   6.663  11.549  0.00  0.00    +0.000 A 
ATOM      7  N   UNL     1      46.182   7.324  12.521  0.00  0.00    +0.000 NA
ATOM      8  H   UNL     1      47.232   6.936  15.376  0.00  0.00    +0.000 HD
ENDROOT
BRANCH   1  10
ATOM      9  C   UNL     1      48.311   9.125  15.780  0.00  0.00    +0.000 C 
ATOM     10  C   UNL     1      48.149   8.501  14.384  0.00  0.00    +0.000 C 
BRANCH  10  11
ATOM     11  C   UNL     1      49.339   8.740  13.476  0.00  0.00    +0.000 A 
ATOM     12  C   UNL     1      50.579   8.140  13.621  0.00  0.00    +0.000 A 
ATOM     13  S   UNL     1      51.756   8.741  12.538  0.00  0.00    +0.000 S 
ATOM     14  C   UNL     1      50.629   9.783  11.801  0.00  0.00    +0.000 A 
ATOM     15  N   UNL     1      50.996  10.622  10.794  0.00  0.00    +0.000 NA
ATOM     16  C   UNL     1      50.035  11.352  10.336  0.00  0.00    +0.000 A 
ATOM     17  N   UNL     1      48.735  11.309  10.779  0.00  0.00    +0.000 N 
ATOM     18  C   UNL     1      48.309  10.454  11.772  0.00  0.00    +0.000 A 
ATOM     19  O   UNL     1      47.128  10.383  12.096  0.00  0.00    +0.000 OA
ATOM     20  C   UNL     1      49.370   9.652  12.354  0.00  0.00    +0.000 A 
ATOM     21  H   UNL     1      48.025  11.883  10.350  0.00  0.00    +0.000 HD
ENDBRANCH  10  11
ENDBRANCH   1  10
BRANCH   5  22
ATOM     22  C   UNL     1      44.722   4.639  10.237  0.00  0.00    +0.000 C 
BRANCH  22  23
ATOM     23  O   UNL     1      43.503   5.345  10.006  0.00  0.00    +0.000 OA
ATOM     24  H   UNL     1      42.976   5.301  10.822  0.00  0.00    +0.000 HD
ENDBRANCH  22  23
BRANCH  22  25
ATOM     25  C   UNL     1      45.541   4.644   8.928  0.00  0.00    +0.000 C 
BRANCH  25  26
ATOM     26  C   UNL     1      45.032   3.699   7.815  0.00  0.00    +0.000 C 
ATOM     27  C   UNL     1      44.561   2.331   8.331  0.00  0.00    +0.000 C 
ATOM     28  C   UNL     1      45.725   1.449   8.781  0.00  0.00    +0.000 C 
ATOM     29  N   UNL     1      46.710   1.265   7.713  0.00  0.00    +0.000 NA
ATOM     30  C   UNL     1      47.242   2.546   7.249  0.00  0.00    +0.000 C 
ATOM     31  C   UNL     1      46.133   3.477   6.756  0.00  0.00    +0.000 C 
ATOM     32  H   UNL     1      46.258   0.793   6.929  0.00  0.00    +0.000 HD
ENDBRANCH  25  26
ENDBRANCH  22  25
ENDBRANCH   5  22
TORSDOF 6
ENDMDL
MODEL 6
REMARK VINA RESULT:    -6.897      3.289      4.792
REMARK INTER + INTRA:          -9.769
REMARK INTER:                  -9.381
REMARK INTRA:                  -0.388
REMARK UNBOUND:                -0.655
REMARK  Name = 
REMARK  7 active torsions:
REMARK  status: ('A' for Active; 'I' for Inactive)
REMARK    1  A    between atoms: C_1  and  C_2
REMARK    2  A    between atoms: C_2  and  N_3
REMARK    3  A    between atoms: C_2  and  C_19
REMARK    4  A    between atoms: C_7  and  C_8
REMARK    5  A    between atoms: C_8  and  O_9
REMARK    6  A    between atoms: C_8  and  C_10
REMARK    7  A    between atoms: C_10  and  C_11
REMARK                            x       y       z     vdW  Elec       q    Type
REMARK                         _______ _______ _______ _____ _____    ______ ____
ROOT
ATOM      1  N   UNL     1      49.661   4.880  17.614  0.00  0.00    +0.000 N 
ATOM      2  C   UNL     1      48.780   5.049  16.555  0.00  0.00    +0.000 A 
ATOM      3  C   UNL     1      47.648   4.240  16.556  0.00  0.00    +0.000 A 
ATOM      4  C   UNL     1      46.757   4.275  15.489  0.00  0.00    +0.000 A 
ATOM      5  C   UNL     1      46.968   5.163  14.435  0.00  0.00    +0.000 A 
ATOM      6  C   UNL     1      48.108   5.960  14.532  0.00  0.00    +0.000 A 
ATOM      7  N   UNL     1      49.016   5.905  15.546  0.00  0.00    +0.000 NA
ATOM      8  H   UNL     1      49.237   5.116  18.501  0.00  0.00    +0.000 HD
ENDROOT
BRANCH   1  10
ATOM      9  C   UNL     1      51.289   6.741  17.788  0.00  0.00    +0.000 C 
ATOM     10  C   UNL     1      51.073   5.236  17.559  0.00  0.00    +0.000 C 
BRANCH  10  11
ATOM     11  C   UNL     1      52.068   4.365  18.299  0.00  0.00    +0.000 A 
ATOM     12  C   UNL     1      52.982   4.824  19.233  0.00  0.00    +0.000 A 
ATOM     13  S   UNL     1      54.072   3.622  19.766  0.00  0.00    +0.000 S 
ATOM     14  C   UNL     1      53.321   2.433  18.807  0.00  0.00    +0.000 A 
ATOM     15  N   UNL     1      53.787   1.155  18.771  0.00  0.00    +0.000 NA
ATOM     16  C   UNL     1      53.116   0.367  17.998  0.00  0.00    +0.000 A 
ATOM     17  N   UNL     1      52.010   0.734  17.271  0.00  0.00    +0.000 N 
ATOM     18  C   UNL     1      51.481   2.007  17.300  0.00  0.00    +0.000 A 
ATOM     19  O   UNL     1      50.449   2.288  16.700  0.00  0.00    +0.000 OA
ATOM     20  C   UNL     1      52.238   2.941  18.114  0.00  0.00    +0.000 A 
ATOM     21  H   UNL     1      51.510   0.057  16.715  0.00  0.00    +0.000 HD
ENDBRANCH  10  11
ENDBRANCH   1  10
BRANCH   5  22
ATOM     22  C   UNL     1      46.078   5.224  13.211  0.00  0.00    +0.000 C 
BRANCH  22  23
ATOM     23  O   UNL     1      46.775   5.924  12.181  0.00  0.00    +0.000 OA
ATOM     24  H   UNL     1      47.581   6.301  12.573  0.00  0.00    +0.000 HD
ENDBRANCH  22  23
BRANCH  22  25
ATOM     25  C   UNL     1      45.658   3.844  12.660  0.00  0.00    +0.000 C 
BRANCH  25  26
ATOM     26  C   UNL     1      44.137   3.628  12.482  0.00  0.00    +0.000 C 
ATOM     27  C   UNL     1      43.733   3.198  11.064  0.00  0.00    +0.000 C 
ATOM     28  C   UNL     1      43.860   4.339  10.055  0.00  0.00    +0.000 C 
ATOM     29  N   UNL     1      43.079   5.510  10.461  0.00  0.00    +0.000 NA
ATOM     30  C   UNL     1      43.490   5.998  11.778  0.00  0.00    +0.000 C 
ATOM     31  C   UNL     1      43.366   4.913  12.849  0.00  0.00    +0.000 C 
ATOM     32  H   UNL     1      42.093   5.248  10.501  0.00  0.00    +0.000 HD
ENDBRANCH  25  26
ENDBRANCH  22  25
ENDBRANCH   5  22
TORSDOF 6
ENDMDL
MODEL 7
REMARK VINA RESULT:    -6.768      2.396      3.289
REMARK INTER + INTRA:          -9.599
REMARK INTER:                  -8.527
REMARK INTRA:                  -1.072
REMARK UNBOUND:                -0.655
REMARK  Name = 
REMARK  7 active torsions:
REMARK  status: ('A' for Active; 'I' for Inactive)
REMARK    1  A    between atoms: C_1  and  C_2
REMARK    2  A    between atoms: C_2  and  N_3
REMARK    3  A    between atoms: C_2  and  C_19
REMARK    4  A    between atoms: C_7  and  C_8
REMARK    5  A    between atoms: C_8  and  O_9
REMARK    6  A    between atoms: C_8  and  C_10
REMARK    7  A    between atoms: C_10  and  C_11
REMARK                            x       y       z     vdW  Elec       q    Type
REMARK                         _______ _______ _______ _____ _____    ______ ____
ROOT
ATOM      1  N   UNL     1      50.014   7.834  14.835  0.00  0.00    +0.000 N 
ATOM      2  C   UNL     1      48.866   7.424  14.170  0.00  0.00    +0.000 A 
ATOM      3  C   UNL     1      47.973   8.426  13.803  0.00  0.00    +0.000 A 
ATOM      4  C   UNL     1      46.755   8.101  13.216  0.00  0.00    +0.000 A 
ATOM      5  C   UNL     1      46.447   6.770  12.943  0.00  0.00    +0.000 A 
ATOM      6  C   UNL     1      47.413   5.835  13.313  0.00  0.00    +0.000 A 
ATOM      7  N   UNL     1      48.590   6.131  13.932  0.00  0.00    +0.000 NA
ATOM      8  H   UNL     1      50.594   8.429  14.259  0.00  0.00    +0.000 HD
ENDROOT
BRANCH   1  10
ATOM      9  C   UNL     1      52.200   7.544  15.969  0.00  0.00    +0.000 C 
ATOM     10  C   UNL     1      50.798   6.969  15.708  0.00  0.00    +0.000 C 
BRANCH  10  11
ATOM     11  C   UNL     1      50.137   6.405  16.950  0.00  0.00    +0.000 A 
ATOM     12  C   UNL     1      50.214   5.083  17.358  0.00  0.00    +0.000 A 
ATOM     13  S   UNL     1      49.228   4.730  18.707  0.00  0.00    +0.000 S 
ATOM     14  C   UNL     1      48.711   6.348  18.827  0.00  0.00    +0.000 A 
ATOM     15  N   UNL     1      47.815   6.736  19.774  0.00  0.00    +0.000 NA
ATOM     16  C   UNL     1      47.517   7.992  19.740  0.00  0.00    +0.000 A 
ATOM     17  N   UNL     1      48.047   8.901  18.858  0.00  0.00    +0.000 N 
ATOM     18  C   UNL     1      48.982   8.564  17.903  0.00  0.00    +0.000 A 
ATOM     19  O   UNL     1      49.495   9.410  17.178  0.00  0.00    +0.000 OA
ATOM     20  C   UNL     1      49.304   7.149  17.869  0.00  0.00    +0.000 A 
ATOM     21  H   UNL     1      47.798   9.877  18.912  0.00  0.00    +0.000 HD
ENDBRANCH  10  11
ENDBRANCH   1  10
BRANCH   5  22
ATOM     22  C   UNL     1      45.121   6.328  12.358  0.00  0.00    +0.000 C 
BRANCH  22  23
ATOM     23  O   UNL     1      44.326   7.488  12.117  0.00  0.00    +0.000 OA
ATOM     24  H   UNL     1      43.435   7.315  12.468  0.00  0.00    +0.000 HD
ENDBRANCH  22  23
BRANCH  22  25
ATOM     25  C   UNL     1      45.241   5.539  11.037  0.00  0.00    +0.000 C 
BRANCH  25  26
ATOM     26  C   UNL     1      43.909   5.027  10.438  0.00  0.00    +0.000 C 
ATOM     27  C   UNL     1      42.982   4.362  11.466  0.00  0.00    +0.000 C 
ATOM     28  C   UNL     1      43.501   2.996  11.914  0.00  0.00    +0.000 C 
ATOM     29  N   UNL     1      43.709   2.096  10.778  0.00  0.00    +0.000 NA
ATOM     30  C   UNL     1      44.651   2.663   9.812  0.00  0.00    +0.000 C 
ATOM     31  C   UNL     1      44.185   4.026   9.297  0.00  0.00    +0.000 C 
ATOM     32  H   UNL     1      42.814   1.943  10.312  0.00  0.00    +0.000 HD
ENDBRANCH  25  26
ENDBRANCH  22  25
ENDBRANCH   5  22
TORSDOF 6
ENDMDL
MODEL 8
REMARK VINA RESULT:    -6.511      3.049      9.076
REMARK INTER + INTRA:          -9.259
REMARK INTER:                  -8.199
REMARK INTRA:                  -1.059
REMARK UNBOUND:                -0.655
REMARK  Name = 
REMARK  7 active torsions:
REMARK  status: ('A' for Active; 'I' for Inactive)
REMARK    1  A    between atoms: C_1  and  C_2
REMARK    2  A    between atoms: C_2  and  N_3
REMARK    3  A    between atoms: C_2  and  C_19
REMARK    4  A    between atoms: C_7  and  C_8
REMARK    5  A    between atoms: C_8  and  O_9
REMARK    6  A    between atoms: C_8  and  C_10
REMARK    7  A    between atoms: C_10  and  C_11
REMARK                            x       y       z     vdW  Elec       q    Type
REMARK                         _______ _______ _______ _____ _____    ______ ____
ROOT
ATOM      1  N   UNL     1      46.668   6.688  11.608  0.00  0.00    +0.000 N 
ATOM      2  C   UNL     1      47.488   7.252  12.576  0.00  0.00    +0.000 A 
ATOM      3  C   UNL     1      48.835   6.904  12.525  0.00  0.00    +0.000 A 
ATOM      4  C   UNL     1      49.713   7.348  13.508  0.00  0.00    +0.000 A 
ATOM      5  C   UNL     1      49.257   8.189  14.520  0.00  0.00    +0.000 A 
ATOM      6  C   UNL     1      47.902   8.515  14.475  0.00  0.00    +0.000 A 
ATOM      7  N   UNL     1      47.017   8.051  13.548  0.00  0.00    +0.000 NA
ATOM      8  H   UNL     1      46.924   6.982  10.675  0.00  0.00    +0.000 HD
ENDROOT
BRANCH   1  10
ATOM      9  C   UNL     1      44.448   7.686  11.138  0.00  0.00    +0.000 C 
ATOM     10  C   UNL     1      45.229   6.519  11.764  0.00  0.00    +0.000 C 
BRANCH  10  11
ATOM     11  C   UNL     1      44.623   5.162  11.468  0.00  0.00    +0.000 A 
ATOM     12  C   UNL     1      43.755   4.480  12.306  0.00  0.00    +0.000 A 
ATOM     13  S   UNL     1      43.380   2.906  11.761  0.00  0.00    +0.000 S 
ATOM     14  C   UNL     1      44.321   3.104  10.355  0.00  0.00    +0.000 A 
ATOM     15  N   UNL     1      44.458   2.099   9.449  0.00  0.00    +0.000 NA
ATOM     16  C   UNL     1      45.202   2.396   8.436  0.00  0.00    +0.000 A 
ATOM     17  N   UNL     1      45.808   3.613   8.237  0.00  0.00    +0.000 N 
ATOM     18  C   UNL     1      45.673   4.671   9.109  0.00  0.00    +0.000 A 
ATOM     19  O   UNL     1      46.163   5.769   8.869  0.00  0.00    +0.000 OA
ATOM     20  C   UNL     1      44.888   4.363  10.291  0.00  0.00    +0.000 A 
ATOM     21  H   UNL     1      46.347   3.789   7.403  0.00  0.00    +0.000 HD
ENDBRANCH  10  11
ENDBRANCH   1  10
BRANCH   5  22
ATOM     22  C   UNL     1      50.135   8.671  15.658  0.00  0.00    +0.000 C 
BRANCH  22  23
ATOM     23  O   UNL     1      50.410  10.057  15.459  0.00  0.00    +0.000 OA
ATOM     24  H   UNL     1      49.810  10.382  14.766  0.00  0.00    +0.000 HD
ENDBRANCH  22  23
BRANCH  22  25
ATOM     25  C   UNL     1      49.512   8.496  17.060  0.00  0.00    +0.000 C 
BRANCH  25  26
ATOM     26  C   UNL     1      49.919   7.211  17.819  0.00  0.00    +0.000 C 
ATOM     27  C   UNL     1      49.769   5.927  16.990  0.00  0.00    +0.000 C 
ATOM     28  C   UNL     1      48.305   5.541  16.780  0.00  0.00    +0.000 C 
ATOM     29  N   UNL     1      47.595   5.397  18.053  0.00  0.00    +0.000 NA
ATOM     30  C   UNL     1      47.649   6.630  18.839  0.00  0.00    +0.000 C 
ATOM     31  C   UNL     1      49.090   7.067  19.112  0.00  0.00    +0.000 C 
ATOM     32  H   UNL     1      48.033   4.647  18.589  0.00  0.00    +0.000 HD
ENDBRANCH  25  26
ENDBRANCH  22  25
ENDBRANCH   5  22
TORSDOF 6
ENDMDL
MODEL 9
REMARK VINA RESULT:    -6.348      3.384      9.454
REMARK INTER + INTRA:          -9.044
REMARK INTER:                  -8.647
REMARK INTRA:                  -0.397
REMARK UNBOUND:                -0.655
REMARK  Name = 
REMARK  7 active torsions:
REMARK  status: ('A' for Active; 'I' for Inactive)
REMARK    1  A    between atoms: C_1  and  C_2
REMARK    2  A    between atoms: C_2  and  N_3
REMARK    3  A    between atoms: C_2  and  C_19
REMARK    4  A    between atoms: C_7  and  C_8
REMARK    5  A    between atoms: C_8  and  O_9
REMARK    6  A    between atoms: C_8  and  C_10
REMARK    7  A    between atoms: C_10  and  C_11
REMARK                            x       y       z     vdW  Elec       q    Type
REMARK                         _______ _______ _______ _____ _____    ______ ____
ROOT
ATOM      1  N   UNL     1      47.091   4.940  14.869  0.00  0.00    +0.000 N 
ATOM      2  C   UNL     1      47.905   5.043  15.989  0.00  0.00    +0.000 A 
ATOM      3  C   UNL     1      47.522   4.300  17.102  0.00  0.00    +0.000 A 
ATOM      4  C   UNL     1      48.224   4.414  18.297  0.00  0.00    +0.000 A 
ATOM      5  C   UNL     1      49.349   5.233  18.369  0.00  0.00    +0.000 A 
ATOM      6  C   UNL     1      49.681   5.913  17.198  0.00  0.00    +0.000 A 
ATOM      7  N   UNL     1      48.977   5.852  16.033  0.00  0.00    +0.000 NA
ATOM      8  H   UNL     1      47.076   3.999  14.497  0.00  0.00    +0.000 HD
ENDROOT
BRANCH   1  10
ATOM      9  C   UNL     1      48.356   6.107  13.084  0.00  0.00    +0.000 C 
ATOM     10  C   UNL     1      47.017   5.953  13.825  0.00  0.00    +0.000 C 
BRANCH  10  11
ATOM     11  C   UNL     1      45.815   5.955  12.901  0.00  0.00    +0.000 A 
ATOM     12  C   UNL     1      45.220   7.091  12.377  0.00  0.00    +0.000 A 
ATOM     13  S   UNL     1      43.788   6.766  11.504  0.00  0.00    +0.000 S 
ATOM     14  C   UNL     1      43.949   5.089  11.750  0.00  0.00    +0.000 A 
ATOM     15  N   UNL     1      43.021   4.213  11.277  0.00  0.00    +0.000 NA
ATOM     16  C   UNL     1      43.277   2.975  11.542  0.00  0.00    +0.000 A 
ATOM     17  N   UNL     1      44.385   2.530  12.221  0.00  0.00    +0.000 N 
ATOM     18  C   UNL     1      45.368   3.374  12.690  0.00  0.00    +0.000 A 
ATOM     19  O   UNL     1      46.383   2.944  13.226  0.00  0.00    +0.000 OA
ATOM     20  C   UNL     1      45.092   4.782  12.462  0.00  0.00    +0.000 A 
ATOM     21  H   UNL     1      44.541   1.543  12.361  0.00  0.00    +0.000 HD
ENDBRANCH  10  11
ENDBRANCH   1  10
BRANCH   5  22
ATOM     22  C   UNL     1      50.135   5.453  19.646  0.00  0.00    +0.000 C 
BRANCH  22  23
ATOM     23  O   UNL     1      49.787   4.425  20.573  0.00  0.00    +0.000 OA
ATOM     24  H   UNL     1      50.155   4.671  21.439  0.00  0.00    +0.000 HD
ENDBRANCH  22  23
BRANCH  22  25
ATOM     25  C   UNL     1      51.667   5.441  19.460  0.00  0.00    +0.000 C 
BRANCH  25  26
ATOM     26  C   UNL     1      52.310   4.045  19.283  0.00  0.00    +0.000 C 
ATOM     27  C   UNL     1      53.470   3.770  20.251  0.00  0.00    +0.000 C 
ATOM     28  C   UNL     1      54.720   4.576  19.900  0.00  0.00    +0.000 C 
ATOM     29  N   UNL     1      55.154   4.332  18.522  0.00  0.00    +0.000 NA
ATOM     30  C   UNL     1      54.098   4.659  17.563  0.00  0.00    +0.000 C 
ATOM     31  C   UNL     1      52.817   3.868  17.837  0.00  0.00    +0.000 C 
ATOM     32  H   UNL     1      55.392   3.344  18.424  0.00  0.00    +0.000 HD
ENDBRANCH  25  26
ENDBRANCH  22  25
ENDBRANCH   5  22
TORSDOF 6
ENDMDL
