MODEL 1
REMARK VINA RESULT:    -8.258      0.000      0.000
REMARK INTER + INTRA:         -10.552
REMARK INTER:                 -10.190
REMARK INTRA:                  -0.362
REMARK UNBOUND:                -0.362
REMARK  Name = 
REMARK  4 active torsions:
REMARK  status: ('A' for Active; 'I' for Inactive)
REMARK    1  A    between atoms: C_2  and  C_4
REMARK    2  A    between atoms: C_7  and  N_8
REMARK    3  A    between atoms: N_8  and  C_9
REMARK    4  A    between atoms: C_9  and  C_10
REMARK                            x       y       z     vdW  Elec       q    Type
REMARK                         _______ _______ _______ _____ _____    ______ ____
ROOT
ATOM      1  C   UNL     1      46.493   2.545   7.700  0.00  0.00    +0.000 A 
ATOM      2  C   UNL     1      46.450   3.922   7.557  0.00  0.00    +0.000 A 
ATOM      3  N   UNL     1      45.645   4.713   8.319  0.00  0.00    +0.000 NA
ATOM      4  C   UNL     1      44.860   4.088   9.226  0.00  0.00    +0.000 A 
ATOM      5  C   UNL     1      44.900   2.689   9.330  0.00  0.00    +0.000 A 
ATOM      6  N   UNL     1      45.717   1.883   8.602  0.00  0.00    +0.000 NA
ENDROOT
BRANCH   1   8
ATOM      7  N   UNL     1      48.530   2.378   6.405  0.00  0.00    +0.000 N 
ATOM      8  C   UNL     1      47.411   1.732   6.858  0.00  0.00    +0.000 C 
ATOM      9  O   UNL     1      47.185   0.561   6.582  0.00  0.00    +0.000 OA
ATOM     10  H   UNL     1      49.200   1.875   5.837  0.00  0.00    +0.000 HD
ATOM     11  H   UNL     1      48.697   3.345   6.659  0.00  0.00    +0.000 HD
ENDBRANCH   1   8
BRANCH   4  12
ATOM     12  N   UNL     1      43.943   4.817  10.026  0.00  0.00    +0.000 N 
ATOM     13  H   UNL     1      42.994   4.592   9.750  0.00  0.00    +0.000 HD
BRANCH  12  14
ATOM     14  C   UNL     1      44.132   4.821  11.501  0.00  0.00    +0.000 C 
ATOM     15  C   UNL     1      43.344   3.835  12.349  0.00  0.00    +0.000 C 
ATOM     16  C   UNL     1      42.943   5.273  12.350  0.00  0.00    +0.000 C 
BRANCH  14  17
ATOM     17  C   UNL     1      45.497   5.293  11.981  0.00  0.00    +0.000 A 
ATOM     18  C   UNL     1      46.073   6.490  11.527  0.00  0.00    +0.000 A 
ATOM     19  C   UNL     1      47.277   6.951  12.058  0.00  0.00    +0.000 A 
ATOM     20  C   UNL     1      47.892   6.194  13.040  0.00  0.00    +0.000 A 
ATOM     21  N   UNL     1      47.404   5.022  13.492  0.00  0.00    +0.000 NA
ATOM     22  C   UNL     1      46.235   4.602  12.943  0.00  0.00    +0.000 A 
ENDBRANCH  14  17
ENDBRANCH  12  14
ENDBRANCH   4  12
TORSDOF 4
ENDMDL
MODEL 2
REMARK VINA RESULT:    -6.133      3.150      6.086
REMARK INTER + INTRA:          -7.930
REMARK INTER:                  -7.899
REMARK INTRA:                  -0.031
REMARK UNBOUND:                -0.362
REMARK  Name = 
REMARK  4 active torsions:
REMARK  status: ('A' for Active; 'I' for Inactive)
REMARK    1  A    between atoms: C_2  and  C_4
REMARK    2  A    between atoms: C_7  and  N_8
REMARK    3  A    between atoms: N_8  and  C_9
REMARK    4  A    between atoms: C_9  and  C_10
REMARK                            x       y       z     vdW  Elec       q    Type
REMARK                         _______ _______ _______ _____ _____    ______ ____
ROOT
ATOM      1  C   UNL     1      48.279   6.589  13.925  0.00  0.00    +0.000 A 
ATOM      2  C   UNL     1      47.646   6.856  12.722  0.00  0.00    +0.000 A 
ATOM      3  N   UNL     1      46.600   6.113  12.264  0.00  0.00    +0.000 NA
ATOM      4  C   UNL     1      46.209   5.073  13.035  0.00  0.00    +0.000 A 
ATOM      5  C   UNL     1      46.886   4.806  14.235  0.00  0.00    +0.000 A 
ATOM      6  N   UNL     1      47.911   5.551  14.726  0.00  0.00    +0.000 NA
ENDROOT
BRANCH   1   8
ATOM      7  N   UNL     1      50.482   7.516  13.553  0.00  0.00    +0.000 N 
ATOM      8  C   UNL     1      49.400   7.449  14.389  0.00  0.00    +0.000 C 
ATOM      9  O   UNL     1      49.365   8.059  15.450  0.00  0.00    +0.000 OA
ATOM     10  H   UNL     1      51.273   8.094  13.807  0.00  0.00    +0.000 HD
ATOM     11  H   UNL     1      50.479   7.008  12.676  0.00  0.00    +0.000 HD
ENDBRANCH   1   8
BRANCH   4  12
ATOM     12  N   UNL     1      45.168   4.204  12.618  0.00  0.00    +0.000 N 
ATOM     13  H   UNL     1      44.570   3.984  13.406  0.00  0.00    +0.000 HD
BRANCH  12  14
ATOM     14  C   UNL     1      44.405   4.546  11.388  0.00  0.00    +0.000 C 
ATOM     15  C   UNL     1      43.580   5.823  11.362  0.00  0.00    +0.000 C 
ATOM     16  C   UNL     1      42.879   4.511  11.487  0.00  0.00    +0.000 C 
BRANCH  14  17
ATOM     17  C   UNL     1      44.989   4.009  10.089  0.00  0.00    +0.000 A 
ATOM     18  C   UNL     1      45.014   2.636   9.795  0.00  0.00    +0.000 A 
ATOM     19  C   UNL     1      45.461   2.179   8.557  0.00  0.00    +0.000 A 
ATOM     20  C   UNL     1      45.886   3.112   7.627  0.00  0.00    +0.000 A 
ATOM     21  N   UNL     1      45.915   4.439   7.865  0.00  0.00    +0.000 NA
ATOM     22  C   UNL     1      45.482   4.844   9.086  0.00  0.00    +0.000 A 
ENDBRANCH  14  17
ENDBRANCH  12  14
ENDBRANCH   4  12
TORSDOF 4
ENDMDL
MODEL 3
REMARK VINA RESULT:    -5.652      3.359      6.442
REMARK INTER + INTRA:          -7.337
REMARK INTER:                  -7.844
REMARK INTRA:                   0.508
REMARK UNBOUND:                -0.362
REMARK  Name = 
REMARK  4 active torsions:
REMARK  status: ('A' for Active; 'I' for Inactive)
REMARK    1  A    between atoms: C_2  and  C_4
REMARK    2  A    between atoms: C_7  and  N_8
REMARK    3  A    between atoms: N_8  and  C_9
REMARK    4  A    between atoms: C_9  and  C_10
REMARK                            x       y       z     vdW  Elec       q    Type
REMARK                         _______ _______ _______ _____ _____    ______ ____
ROOT
ATOM      1  C   UNL     1      47.488   4.194  15.786  0.00  0.00    +0.000 A 
ATOM      2  C   UNL     1      47.880   5.511  15.613  0.00  0.00    +0.000 A 
ATOM      3  N   UNL     1      47.736   6.168  14.428  0.00  0.00    +0.000 NA
ATOM      4  C   UNL     1      47.201   5.465  13.404  0.00  0.00    +0.000 A 
ATOM      5  C   UNL     1      46.839   4.123  13.598  0.00  0.00    +0.000 A 
ATOM      6  N   UNL     1      46.947   3.457  14.777  0.00  0.00    +0.000 NA
ENDROOT
BRANCH   1   8
ATOM      7  N   UNL     1      48.826   3.780  17.759  0.00  0.00    +0.000 N 
ATOM      8  C   UNL     1      47.646   3.533  17.110  0.00  0.00    +0.000 C 
ATOM      9  O   UNL     1      46.782   2.812  17.592  0.00  0.00    +0.000 OA
ATOM     10  H   UNL     1      48.989   3.368  18.670  0.00  0.00    +0.000 HD
ATOM     11  H   UNL     1      49.519   4.390  17.341  0.00  0.00    +0.000 HD
ENDBRANCH   1   8
BRANCH   4  12
ATOM     12  N   UNL     1      47.063   6.041  12.115  0.00  0.00    +0.000 N 
ATOM     13  H   UNL     1      47.710   5.599  11.472  0.00  0.00    +0.000 HD
BRANCH  12  14
ATOM     14  C   UNL     1      45.698   6.199  11.547  0.00  0.00    +0.000 C 
ATOM     15  C   UNL     1      45.101   7.594  11.437  0.00  0.00    +0.000 C 
ATOM     16  C   UNL     1      44.601   6.675  12.501  0.00  0.00    +0.000 C 
BRANCH  14  17
ATOM     17  C   UNL     1      45.280   5.128  10.550  0.00  0.00    +0.000 A 
ATOM     18  C   UNL     1      45.728   5.134   9.219  0.00  0.00    +0.000 A 
ATOM     19  C   UNL     1      45.413   4.086   8.355  0.00  0.00    +0.000 A 
ATOM     20  C   UNL     1      44.643   3.044   8.841  0.00  0.00    +0.000 A 
ATOM     21  N   UNL     1      44.159   3.000  10.098  0.00  0.00    +0.000 NA
ATOM     22  C   UNL     1      44.479   4.043  10.907  0.00  0.00    +0.000 A 
ENDBRANCH  14  17
ENDBRANCH  12  14
ENDBRANCH   4  12
TORSDOF 4
ENDMDL
MODEL 4
REMARK VINA RESULT:    -5.585      3.172      6.075
REMARK INTER + INTRA:          -7.254
REMARK INTER:                  -8.258
REMARK INTRA:                   1.005
REMARK UNBOUND:                -0.362
REMARK  Name = 
REMARK  4 active torsions:
REMARK  status: ('A' for Active; 'I' for Inactive)
REMARK    1  A    between atoms: C_2  and  C_4
REMARK    2  A    between atoms: C_7  and  N_8
REMARK    3  A    between atoms: N_8  and  C_9
REMARK    4  A    between atoms: C_9  and  C_10
REMARK                            x       y       z     vdW  Elec       q    Type
REMARK                         _______ _______ _______ _____ _____    ______ ____
ROOT
ATOM      1  C   UNL     1      46.182   8.087  12.435  0.00  0.00    +0.000 A 
ATOM      2  C   UNL     1      46.622   6.778  12.321  0.00  0.00    +0.000 A 
ATOM      3  N   UNL     1      45.903   5.818  11.674  0.00  0.00    +0.000 NA
ATOM      4  C   UNL     1      44.713   6.196  11.154  0.00  0.00    +0.000 A 
ATOM      5  C   UNL     1      44.277   7.521  11.310  0.00  0.00    +0.000 A 
ATOM      6  N   UNL     1      44.990   8.501  11.925  0.00  0.00    +0.000 NA
ENDROOT
BRANCH   1   8
ATOM      7  N   UNL     1      47.222   8.887  14.468  0.00  0.00    +0.000 N 
ATOM      8  C   UNL     1      47.020   9.100  13.131  0.00  0.00    +0.000 C 
ATOM      9  O   UNL     1      47.500  10.066  12.552  0.00  0.00    +0.000 OA
ATOM     10  H   UNL     1      47.793   9.535  14.996  0.00  0.00    +0.000 HD
ATOM     11  H   UNL     1      46.822   8.072  14.919  0.00  0.00    +0.000 HD
ENDBRANCH   1   8
BRANCH   4  12
ATOM     12  N   UNL     1      43.864   5.258  10.513  0.00  0.00    +0.000 N 
ATOM     13  H   UNL     1      43.664   5.567   9.569  0.00  0.00    +0.000 HD
BRANCH  12  14
ATOM     14  C   UNL     1      44.212   3.814  10.589  0.00  0.00    +0.000 C 
ATOM     15  C   UNL     1      43.308   2.876  11.373  0.00  0.00    +0.000 C 
ATOM     16  C   UNL     1      44.622   3.271  11.958  0.00  0.00    +0.000 C 
BRANCH  14  17
ATOM     17  C   UNL     1      45.002   3.273   9.406  0.00  0.00    +0.000 A 
ATOM     18  C   UNL     1      45.549   4.117   8.426  0.00  0.00    +0.000 A 
ATOM     19  C   UNL     1      46.354   3.605   7.410  0.00  0.00    +0.000 A 
ATOM     20  C   UNL     1      46.594   2.242   7.388  0.00  0.00    +0.000 A 
ATOM     21  N   UNL     1      46.071   1.379   8.281  0.00  0.00    +0.000 NA
ATOM     22  C   UNL     1      45.284   1.915   9.250  0.00  0.00    +0.000 A 
ENDBRANCH  14  17
ENDBRANCH  12  14
ENDBRANCH   4  12
TORSDOF 4
ENDMDL
