MODEL 1
REMARK VINA RESULT:    -7.925      0.000      0.000
REMARK INTER + INTRA:         -11.079
REMARK INTER:                 -10.242
REMARK INTRA:                  -0.837
REMARK UNBOUND:                -0.837
REMARK  Name = 
REMARK  5 active torsions:
REMARK  status: ('A' for Active; 'I' for Inactive)
REMARK    1  A    between atoms: C_2  and  C_17
REMARK    2  A    between atoms: N_3  and  C_4
REMARK    3  A    between atoms: C_4  and  C_5
REMARK    4  A    between atoms: C_8  and  C_9
REMARK    5  A    between atoms: C_9  and  C_10
REMARK                            x       y       z     vdW  Elec       q    Type
REMARK                         _______ _______ _______ _____ _____    ______ ____
ROOT
ATOM      1  O   UNL     1      49.344   6.722  13.755  0.00  0.00    +0.000 OA
ATOM      2  C   UNL     1      48.448   6.545  14.571  0.00  0.00    +0.000 C 
ATOM      3  N   UNL     1      47.120   6.625  14.239  0.00  0.00    +0.000 N 
ATOM      4  H   UNL     1      46.428   6.654  14.980  0.00  0.00    +0.000 HD
ENDROOT
BRANCH   2   5
ATOM      5  C   UNL     1      48.734   6.177  15.965  0.00  0.00    +0.000 A 
ATOM      6  C   UNL     1      49.323   7.103  16.816  0.00  0.00    +0.000 A 
ATOM      7  S   UNL     1      49.580   6.508  18.394  0.00  0.00    +0.000 S 
ATOM      8  C   UNL     1      48.869   5.012  18.006  0.00  0.00    +0.000 A 
ATOM      9  N   UNL     1      48.734   4.036  18.946  0.00  0.00    +0.000 NA
ATOM     10  C   UNL     1      48.136   2.972  18.527  0.00  0.00    +0.000 A 
ATOM     11  N   UNL     1      47.671   2.787  17.250  0.00  0.00    +0.000 N 
ATOM     12  C   UNL     1      47.867   3.706  16.248  0.00  0.00    +0.000 A 
ATOM     13  O   UNL     1      47.595   3.442  15.080  0.00  0.00    +0.000 OA
ATOM     14  C   UNL     1      48.476   4.950  16.681  0.00  0.00    +0.000 A 
ATOM     15  H   UNL     1      47.254   1.910  16.976  0.00  0.00    +0.000 HD
ENDBRANCH   2   5
BRANCH   3  16
ATOM     16  C   UNL     1      46.679   7.096  12.950  0.00  0.00    +0.000 C 
BRANCH  16  17
ATOM     17  C   UNL     1      46.062   5.988  12.155  0.00  0.00    +0.000 A 
ATOM     18  C   UNL     1      45.798   4.744  12.726  0.00  0.00    +0.000 A 
ATOM     19  C   UNL     1      45.220   3.741  11.955  0.00  0.00    +0.000 A 
ATOM     20  C   UNL     1      44.870   4.009  10.634  0.00  0.00    +0.000 A 
ATOM     21  N   UNL     1      45.105   5.216  10.061  0.00  0.00    +0.000 NA
ATOM     22  C   UNL     1      45.689   6.170  10.828  0.00  0.00    +0.000 A 
BRANCH  20  23
ATOM     23  C   UNL     1      44.221   2.953   9.765  0.00  0.00    +0.000 C 
BRANCH  23  24
ATOM     24  C   UNL     1      44.882   2.685   8.398  0.00  0.00    +0.000 C 
ATOM     25  C   UNL     1      46.032   1.688   8.449  0.00  0.00    +0.000 C 
ATOM     26  C   UNL     1      46.885   2.043   7.249  0.00  0.00    +0.000 C 
ATOM     27  C   UNL     1      46.598   3.507   6.968  0.00  0.00    +0.000 C 
ATOM     28  N   UNL     1      45.435   3.890   7.762  0.00  0.00    +0.000 NA
ATOM     29  H   UNL     1      44.732   4.351   7.188  0.00  0.00    +0.000 HD
ENDBRANCH  23  24
ENDBRANCH  20  23
ENDBRANCH  16  17
ENDBRANCH   3  16
TORSDOF 5
ENDMDL
MODEL 2
REMARK VINA RESULT:    -7.881      1.817      2.584
REMARK INTER + INTRA:         -11.022
REMARK INTER:                 -10.272
REMARK INTRA:                  -0.751
REMARK UNBOUND:                -0.837
REMARK  Name = 
REMARK  5 active torsions:
REMARK  status: ('A' for Active; 'I' for Inactive)
REMARK    1  A    between atoms: C_2  and  C_17
REMARK    2  A    between atoms: N_3  and  C_4
REMARK    3  A    between atoms: C_4  and  C_5
REMARK    4  A    between atoms: C_8  and  C_9
REMARK    5  A    between atoms: C_9  and  C_10
REMARK                            x       y       z     vdW  Elec       q    Type
REMARK                         _______ _______ _______ _____ _____    ______ ____
ROOT
ATOM      1  O   UNL     1      46.666   3.178  13.793  0.00  0.00    +0.000 OA
ATOM      2  C   UNL     1      46.405   4.303  14.200  0.00  0.00    +0.000 C 
ATOM      3  N   UNL     1      45.175   4.885  14.025  0.00  0.00    +0.000 N 
ATOM      4  H   UNL     1      45.067   5.875  14.213  0.00  0.00    +0.000 HD
ENDROOT
BRANCH   2   5
ATOM      5  C   UNL     1      47.381   5.097  14.958  0.00  0.00    +0.000 A 
ATOM      6  C   UNL     1      48.080   6.117  14.327  0.00  0.00    +0.000 A 
ATOM      7  S   UNL     1      49.168   6.934  15.356  0.00  0.00    +0.000 S 
ATOM      8  C   UNL     1      48.707   5.984  16.690  0.00  0.00    +0.000 A 
ATOM      9  N   UNL     1      49.244   6.199  17.922  0.00  0.00    +0.000 NA
ATOM     10  C   UNL     1      48.770   5.437  18.851  0.00  0.00    +0.000 A 
ATOM     11  N   UNL     1      47.816   4.471  18.659  0.00  0.00    +0.000 N 
ATOM     12  C   UNL     1      47.314   4.159  17.418  0.00  0.00    +0.000 A 
ATOM     13  O   UNL     1      46.593   3.180  17.252  0.00  0.00    +0.000 OA
ATOM     14  C   UNL     1      47.765   5.030  16.348  0.00  0.00    +0.000 A 
ATOM     15  H   UNL     1      47.523   3.878  19.420  0.00  0.00    +0.000 HD
ENDBRANCH   2   5
BRANCH   3  16
ATOM     16  C   UNL     1      44.156   4.288  13.199  0.00  0.00    +0.000 C 
BRANCH  16  17
ATOM     17  C   UNL     1      44.544   4.324  11.754  0.00  0.00    +0.000 A 
ATOM     18  C   UNL     1      45.252   5.399  11.219  0.00  0.00    +0.000 A 
ATOM     19  C   UNL     1      45.597   5.394   9.872  0.00  0.00    +0.000 A 
ATOM     20  C   UNL     1      45.270   4.292   9.085  0.00  0.00    +0.000 A 
ATOM     21  N   UNL     1      44.594   3.229   9.587  0.00  0.00    +0.000 NA
ATOM     22  C   UNL     1      44.251   3.268  10.898  0.00  0.00    +0.000 A 
BRANCH  20  23
ATOM     23  C   UNL     1      45.645   4.236   7.620  0.00  0.00    +0.000 C 
BRANCH  23  24
ATOM     24  C   UNL     1      46.833   3.326   7.247  0.00  0.00    +0.000 C 
ATOM     25  C   UNL     1      47.016   3.128   5.749  0.00  0.00    +0.000 C 
ATOM     26  C   UNL     1      47.742   1.804   5.636  0.00  0.00    +0.000 C 
ATOM     27  C   UNL     1      47.386   1.038   6.898  0.00  0.00    +0.000 C 
ATOM     28  N   UNL     1      46.742   1.973   7.815  0.00  0.00    +0.000 NA
ATOM     29  H   UNL     1      47.171   1.939   8.738  0.00  0.00    +0.000 HD
ENDBRANCH  23  24
ENDBRANCH  20  23
ENDBRANCH  16  17
ENDBRANCH   3  16
TORSDOF 5
ENDMDL
MODEL 3
REMARK VINA RESULT:    -7.559      1.450      1.714
REMARK INTER + INTRA:         -10.605
REMARK INTER:                  -9.611
REMARK INTRA:                  -0.994
REMARK UNBOUND:                -0.837
REMARK  Name = 
REMARK  5 active torsions:
REMARK  status: ('A' for Active; 'I' for Inactive)
REMARK    1  A    between atoms: C_2  and  C_17
REMARK    2  A    between atoms: N_3  and  C_4
REMARK    3  A    between atoms: C_4  and  C_5
REMARK    4  A    between atoms: C_8  and  C_9
REMARK    5  A    between atoms: C_9  and  C_10
REMARK                            x       y       z     vdW  Elec       q    Type
REMARK                         _______ _______ _______ _____ _____    ______ ____
ROOT
ATOM      1  O   UNL     1      50.266   6.757  15.342  0.00  0.00    +0.000 OA
ATOM      2  C   UNL     1      49.107   6.814  15.733  0.00  0.00    +0.000 C 
ATOM      3  N   UNL     1      48.037   6.801  14.875  0.00  0.00    +0.000 N 
ATOM      4  H   UNL     1      47.117   7.035  15.231  0.00  0.00    +0.000 HD
ENDROOT
BRANCH   2   5
ATOM      5  C   UNL     1      48.775   6.848  17.163  0.00  0.00    +0.000 A 
ATOM      6  C   UNL     1      48.302   8.021  17.735  0.00  0.00    +0.000 A 
ATOM      7  S   UNL     1      47.966   7.879  19.402  0.00  0.00    +0.000 S 
ATOM      8  C   UNL     1      48.395   6.232  19.404  0.00  0.00    +0.000 A 
ATOM      9  N   UNL     1      48.295   5.484  20.537  0.00  0.00    +0.000 NA
ATOM     10  C   UNL     1      48.608   4.241  20.385  0.00  0.00    +0.000 A 
ATOM     11  N   UNL     1      49.024   3.678  19.206  0.00  0.00    +0.000 N 
ATOM     12  C   UNL     1      49.227   4.413  18.062  0.00  0.00    +0.000 A 
ATOM     13  O   UNL     1      49.761   3.918  17.074  0.00  0.00    +0.000 OA
ATOM     14  C   UNL     1      48.826   5.805  18.161  0.00  0.00    +0.000 A 
ATOM     15  H   UNL     1      49.299   2.709  19.167  0.00  0.00    +0.000 HD
ENDBRANCH   2   5
BRANCH   3  16
ATOM     16  C   UNL     1      48.199   6.895  13.446  0.00  0.00    +0.000 C 
BRANCH  16  17
ATOM     17  C   UNL     1      47.079   6.208  12.730  0.00  0.00    +0.000 A 
ATOM     18  C   UNL     1      46.334   5.202  13.344  0.00  0.00    +0.000 A 
ATOM     19  C   UNL     1      45.299   4.589  12.647  0.00  0.00    +0.000 A 
ATOM     20  C   UNL     1      44.990   5.021  11.360  0.00  0.00    +0.000 A 
ATOM     21  N   UNL     1      45.691   6.008  10.748  0.00  0.00    +0.000 NA
ATOM     22  C   UNL     1      46.709   6.574  11.441  0.00  0.00    +0.000 A 
BRANCH  20  23
ATOM     23  C   UNL     1      43.858   4.396  10.573  0.00  0.00    +0.000 C 
BRANCH  23  24
ATOM     24  C   UNL     1      44.246   3.663   9.273  0.00  0.00    +0.000 C 
ATOM     25  C   UNL     1      45.053   2.392   9.495  0.00  0.00    +0.000 C 
ATOM     26  C   UNL     1      45.825   2.212   8.204  0.00  0.00    +0.000 C 
ATOM     27  C   UNL     1      45.946   3.603   7.608  0.00  0.00    +0.000 C 
ATOM     28  N   UNL     1      45.047   4.482   8.351  0.00  0.00    +0.000 NA
ATOM     29  H   UNL     1      44.445   5.010   7.721  0.00  0.00    +0.000 HD
ENDBRANCH  23  24
ENDBRANCH  20  23
ENDBRANCH  16  17
ENDBRANCH   3  16
TORSDOF 5
ENDMDL
MODEL 4
REMARK VINA RESULT:    -7.530      1.773      2.362
REMARK INTER + INTRA:         -10.569
REMARK INTER:                  -9.609
REMARK INTRA:                  -0.960
REMARK UNBOUND:                -0.837
REMARK  Name = 
REMARK  5 active torsions:
REMARK  status: ('A' for Active; 'I' for Inactive)
REMARK    1  A    between atoms: C_2  and  C_17
REMARK    2  A    between atoms: N_3  and  C_4
REMARK    3  A    between atoms: C_4  and  C_5
REMARK    4  A    between atoms: C_8  and  C_9
REMARK    5  A    between atoms: C_9  and  C_10
REMARK                            x       y       z     vdW  Elec       q    Type
REMARK                         _______ _______ _______ _____ _____    ______ ____
ROOT
ATOM      1  O   UNL     1      49.741   6.642  15.243  0.00  0.00    +0.000 OA
ATOM      2  C   UNL     1      48.702   6.111  15.615  0.00  0.00    +0.000 C 
ATOM      3  N   UNL     1      47.600   5.998  14.807  0.00  0.00    +0.000 N 
ATOM      4  H   UNL     1      46.715   5.721  15.216  0.00  0.00    +0.000 HD
ENDROOT
BRANCH   2   5
ATOM      5  C   UNL     1      48.579   5.503  16.947  0.00  0.00    +0.000 A 
ATOM      6  C   UNL     1      48.744   4.133  17.099  0.00  0.00    +0.000 A 
ATOM      7  S   UNL     1      48.570   3.602  18.711  0.00  0.00    +0.000 S 
ATOM      8  C   UNL     1      48.315   5.190  19.266  0.00  0.00    +0.000 A 
ATOM      9  N   UNL     1      48.135   5.449  20.590  0.00  0.00    +0.000 NA
ATOM     10  C   UNL     1      48.000   6.701  20.875  0.00  0.00    +0.000 A 
ATOM     11  N   UNL     1      48.016   7.719  19.956  0.00  0.00    +0.000 N 
ATOM     12  C   UNL     1      48.103   7.496  18.603  0.00  0.00    +0.000 A 
ATOM     13  O   UNL     1      47.943   8.408  17.796  0.00  0.00    +0.000 OA
ATOM     14  C   UNL     1      48.324   6.110  18.232  0.00  0.00    +0.000 A 
ATOM     15  H   UNL     1      47.857   8.673  20.241  0.00  0.00    +0.000 HD
ENDBRANCH   2   5
BRANCH   3  16
ATOM     16  C   UNL     1      47.521   6.650  13.523  0.00  0.00    +0.000 C 
BRANCH  16  17
ATOM     17  C   UNL     1      46.637   5.888  12.586  0.00  0.00    +0.000 A 
ATOM     18  C   UNL     1      46.050   4.680  12.962  0.00  0.00    +0.000 A 
ATOM     19  C   UNL     1      45.232   4.003  12.064  0.00  0.00    +0.000 A 
ATOM     20  C   UNL     1      44.973   4.565  10.816  0.00  0.00    +0.000 A 
ATOM     21  N   UNL     1      45.522   5.746  10.434  0.00  0.00    +0.000 NA
ATOM     22  C   UNL     1      46.332   6.375  11.320  0.00  0.00    +0.000 A 
BRANCH  20  23
ATOM     23  C   UNL     1      44.073   3.873   9.816  0.00  0.00    +0.000 C 
BRANCH  23  24
ATOM     24  C   UNL     1      44.747   3.347   8.532  0.00  0.00    +0.000 C 
ATOM     25  C   UNL     1      45.555   2.073   8.733  0.00  0.00    +0.000 C 
ATOM     26  C   UNL     1      46.575   2.100   7.614  0.00  0.00    +0.000 C 
ATOM     27  C   UNL     1      46.743   3.566   7.256  0.00  0.00    +0.000 C 
ATOM     28  N   UNL     1      45.673   4.308   7.915  0.00  0.00    +0.000 NA
ATOM     29  H   UNL     1      45.183   4.911   7.258  0.00  0.00    +0.000 HD
ENDBRANCH  23  24
ENDBRANCH  20  23
ENDBRANCH  16  17
ENDBRANCH   3  16
TORSDOF 5
ENDMDL
MODEL 5
REMARK VINA RESULT:    -7.026      2.514      4.219
REMARK INTER + INTRA:          -9.916
REMARK INTER:                  -8.819
REMARK INTRA:                  -1.097
REMARK UNBOUND:                -0.837
REMARK  Name = 
REMARK  5 active torsions:
REMARK  status: ('A' for Active; 'I' for Inactive)
REMARK    1  A    between atoms: C_2  and  C_17
REMARK    2  A    between atoms: N_3  and  C_4
REMARK    3  A    between atoms: C_4  and  C_5
REMARK    4  A    between atoms: C_8  and  C_9
REMARK    5  A    between atoms: C_9  and  C_10
REMARK                            x       y       z     vdW  Elec       q    Type
REMARK                         _______ _______ _______ _____ _____    ______ ____
ROOT
ATOM      1  O   UNL     1      49.237   5.923  15.833  0.00  0.00    +0.000 OA
ATOM      2  C   UNL     1      48.615   6.698  15.117  0.00  0.00    +0.000 C 
ATOM      3  N   UNL     1      47.507   6.317  14.404  0.00  0.00    +0.000 N 
ATOM      4  H   UNL     1      47.142   6.938  13.691  0.00  0.00    +0.000 HD
ENDROOT
BRANCH   2   5
ATOM      5  C   UNL     1      48.983   8.116  15.010  0.00  0.00    +0.000 A 
ATOM      6  C   UNL     1      48.942   8.926  16.137  0.00  0.00    +0.000 A 
ATOM      7  S   UNL     1      49.403  10.540  15.831  0.00  0.00    +0.000 S 
ATOM      8  C   UNL     1      49.718  10.199  14.194  0.00  0.00    +0.000 A 
ATOM      9  N   UNL     1      50.193  11.161  13.357  0.00  0.00    +0.000 NA
ATOM     10  C   UNL     1      50.432  10.752  12.156  0.00  0.00    +0.000 A 
ATOM     11  N   UNL     1      50.228   9.472  11.710  0.00  0.00    +0.000 N 
ATOM     12  C   UNL     1      49.666   8.493  12.494  0.00  0.00    +0.000 A 
ATOM     13  O   UNL     1      49.337   7.409  12.021  0.00  0.00    +0.000 OA
ATOM     14  C   UNL     1      49.439   8.882  13.875  0.00  0.00    +0.000 A 
ATOM     15  H   UNL     1      50.391   9.230  10.745  0.00  0.00    +0.000 HD
ENDBRANCH   2   5
BRANCH   3  16
ATOM     16  C   UNL     1      47.095   4.939  14.306  0.00  0.00    +0.000 C 
BRANCH  16  17
ATOM     17  C   UNL     1      46.330   4.694  13.043  0.00  0.00    +0.000 A 
ATOM     18  C   UNL     1      45.628   3.507  12.838  0.00  0.00    +0.000 A 
ATOM     19  C   UNL     1      44.926   3.319  11.652  0.00  0.00    +0.000 A 
ATOM     20  C   UNL     1      44.896   4.339  10.705  0.00  0.00    +0.000 A 
ATOM     21  N   UNL     1      45.560   5.507  10.889  0.00  0.00    +0.000 NA
ATOM     22  C   UNL     1      46.254   5.658  12.044  0.00  0.00    +0.000 A 
BRANCH  20  23
ATOM     23  C   UNL     1      44.128   4.184   9.410  0.00  0.00    +0.000 C 
BRANCH  23  24
ATOM     24  C   UNL     1      44.910   3.611   8.210  0.00  0.00    +0.000 C 
ATOM     25  C   UNL     1      45.533   2.247   8.471  0.00  0.00    +0.000 C 
ATOM     26  C   UNL     1      46.695   2.179   7.502  0.00  0.00    +0.000 C 
ATOM     27  C   UNL     1      47.077   3.622   7.226  0.00  0.00    +0.000 C 
ATOM     28  N   UNL     1      46.016   4.470   7.762  0.00  0.00    +0.000 NA
ATOM     29  H   UNL     1      45.694   5.141   7.067  0.00  0.00    +0.000 HD
ENDBRANCH  23  24
ENDBRANCH  20  23
ENDBRANCH  16  17
ENDBRANCH   3  16
TORSDOF 5
ENDMDL
MODEL 6
REMARK VINA RESULT:    -7.013      2.073      2.933
REMARK INTER + INTRA:          -9.900
REMARK INTER:                  -8.497
REMARK INTRA:                  -1.403
REMARK UNBOUND:                -0.837
REMARK  Name = 
REMARK  5 active torsions:
REMARK  status: ('A' for Active; 'I' for Inactive)
REMARK    1  A    between atoms: C_2  and  C_17
REMARK    2  A    between atoms: N_3  and  C_4
REMARK    3  A    between atoms: C_4  and  C_5
REMARK    4  A    between atoms: C_8  and  C_9
REMARK    5  A    between atoms: C_9  and  C_10
REMARK                            x       y       z     vdW  Elec       q    Type
REMARK                         _______ _______ _______ _____ _____    ______ ____
ROOT
ATOM      1  O   UNL     1      48.709   8.561  15.771  0.00  0.00    +0.000 OA
ATOM      2  C   UNL     1      49.026   7.417  15.474  0.00  0.00    +0.000 C 
ATOM      3  N   UNL     1      49.225   7.018  14.177  0.00  0.00    +0.000 N 
ATOM      4  H   UNL     1      49.303   6.028  13.972  0.00  0.00    +0.000 HD
ENDROOT
BRANCH   2   5
ATOM      5  C   UNL     1      49.270   6.392  16.498  0.00  0.00    +0.000 A 
ATOM      6  C   UNL     1      50.259   6.591  17.452  0.00  0.00    +0.000 A 
ATOM      7  S   UNL     1      50.402   5.304  18.562  0.00  0.00    +0.000 S 
ATOM      8  C   UNL     1      49.116   4.460  17.835  0.00  0.00    +0.000 A 
ATOM      9  N   UNL     1      48.688   3.268  18.335  0.00  0.00    +0.000 NA
ATOM     10  C   UNL     1      47.676   2.762  17.715  0.00  0.00    +0.000 A 
ATOM     11  N   UNL     1      47.058   3.331  16.631  0.00  0.00    +0.000 N 
ATOM     12  C   UNL     1      47.513   4.485  16.038  0.00  0.00    +0.000 A 
ATOM     13  O   UNL     1      47.048   4.877  14.971  0.00  0.00    +0.000 OA
ATOM     14  C   UNL     1      48.609   5.131  16.736  0.00  0.00    +0.000 A 
ATOM     15  H   UNL     1      46.300   2.858  16.163  0.00  0.00    +0.000 HD
ENDBRANCH   2   5
BRANCH   3  16
ATOM     16  C   UNL     1      48.906   7.868  13.057  0.00  0.00    +0.000 C 
BRANCH  16  17
ATOM     17  C   UNL     1      47.498   7.649  12.598  0.00  0.00    +0.000 A 
ATOM     18  C   UNL     1      46.470   8.514  12.972  0.00  0.00    +0.000 A 
ATOM     19  C   UNL     1      45.175   8.279  12.523  0.00  0.00    +0.000 A 
ATOM     20  C   UNL     1      44.932   7.208  11.667  0.00  0.00    +0.000 A 
ATOM     21  N   UNL     1      45.918   6.362  11.279  0.00  0.00    +0.000 NA
ATOM     22  C   UNL     1      47.168   6.600  11.748  0.00  0.00    +0.000 A 
BRANCH  20  23
ATOM     23  C   UNL     1      43.541   6.927  11.138  0.00  0.00    +0.000 C 
BRANCH  23  24
ATOM     24  C   UNL     1      43.103   5.449  11.105  0.00  0.00    +0.000 C 
ATOM     25  C   UNL     1      43.290   4.717  12.427  0.00  0.00    +0.000 C 
ATOM     26  C   UNL     1      43.417   3.261  12.030  0.00  0.00    +0.000 C 
ATOM     27  C   UNL     1      43.928   3.275  10.600  0.00  0.00    +0.000 C 
ATOM     28  N   UNL     1      43.817   4.643  10.105  0.00  0.00    +0.000 NA
ATOM     29  H   UNL     1      43.336   4.672   9.207  0.00  0.00    +0.000 HD
ENDBRANCH  23  24
ENDBRANCH  20  23
ENDBRANCH  16  17
ENDBRANCH   3  16
TORSDOF 5
ENDMDL
MODEL 7
REMARK VINA RESULT:    -7.007      3.814      8.682
REMARK INTER + INTRA:          -9.893
REMARK INTER:                  -9.231
REMARK INTRA:                  -0.662
REMARK UNBOUND:                -0.837
REMARK  Name = 
REMARK  5 active torsions:
REMARK  status: ('A' for Active; 'I' for Inactive)
REMARK    1  A    between atoms: C_2  and  C_17
REMARK    2  A    between atoms: N_3  and  C_4
REMARK    3  A    between atoms: C_4  and  C_5
REMARK    4  A    between atoms: C_8  and  C_9
REMARK    5  A    between atoms: C_9  and  C_10
REMARK                            x       y       z     vdW  Elec       q    Type
REMARK                         _______ _______ _______ _____ _____    ______ ____
ROOT
ATOM      1  O   UNL     1      47.237   3.059  14.081  0.00  0.00    +0.000 OA
ATOM      2  C   UNL     1      46.848   4.128  14.533  0.00  0.00    +0.000 C 
ATOM      3  N   UNL     1      46.846   4.404  15.876  0.00  0.00    +0.000 N 
ATOM      4  H   UNL     1      46.348   5.222  16.211  0.00  0.00    +0.000 HD
ENDROOT
BRANCH   2   5
ATOM      5  C   UNL     1      46.400   5.220  13.659  0.00  0.00    +0.000 A 
ATOM      6  C   UNL     1      47.258   6.275  13.377  0.00  0.00    +0.000 A 
ATOM      7  S   UNL     1      46.577   7.450  12.345  0.00  0.00    +0.000 S 
ATOM      8  C   UNL     1      45.130   6.565  12.202  0.00  0.00    +0.000 A 
ATOM      9  N   UNL     1      44.115   7.006  11.409  0.00  0.00    +0.000 NA
ATOM     10  C   UNL     1      43.097   6.214  11.357  0.00  0.00    +0.000 A 
ATOM     11  N   UNL     1      42.994   5.026  12.034  0.00  0.00    +0.000 N 
ATOM     12  C   UNL     1      43.954   4.588  12.915  0.00  0.00    +0.000 A 
ATOM     13  O   UNL     1      43.760   3.612  13.634  0.00  0.00    +0.000 OA
ATOM     14  C   UNL     1      45.150   5.409  12.961  0.00  0.00    +0.000 A 
ATOM     15  H   UNL     1      42.150   4.478  11.986  0.00  0.00    +0.000 HD
ENDBRANCH   2   5
BRANCH   3  16
ATOM     16  C   UNL     1      47.136   3.397  16.867  0.00  0.00    +0.000 C 
BRANCH  16  17
ATOM     17  C   UNL     1      48.603   3.338  17.160  0.00  0.00    +0.000 A 
ATOM     18  C   UNL     1      49.343   2.180  16.929  0.00  0.00    +0.000 A 
ATOM     19  C   UNL     1      50.704   2.165  17.213  0.00  0.00    +0.000 A 
ATOM     20  C   UNL     1      51.319   3.324  17.680  0.00  0.00    +0.000 A 
ATOM     21  N   UNL     1      50.622   4.466  17.899  0.00  0.00    +0.000 NA
ATOM     22  C   UNL     1      49.292   4.448  17.635  0.00  0.00    +0.000 A 
BRANCH  20  23
ATOM     23  C   UNL     1      52.802   3.358  17.981  0.00  0.00    +0.000 C 
BRANCH  23  24
ATOM     24  C   UNL     1      53.464   2.010  18.334  0.00  0.00    +0.000 C 
ATOM     25  C   UNL     1      54.528   2.106  19.418  0.00  0.00    +0.000 C 
ATOM     26  C   UNL     1      55.428   0.915  19.161  0.00  0.00    +0.000 C 
ATOM     27  C   UNL     1      55.265   0.595  17.686  0.00  0.00    +0.000 C 
ATOM     28  N   UNL     1      54.122   1.358  17.192  0.00  0.00    +0.000 NA
ATOM     29  H   UNL     1      53.468   0.760  16.691  0.00  0.00    +0.000 HD
ENDBRANCH  23  24
ENDBRANCH  20  23
ENDBRANCH  16  17
ENDBRANCH   3  16
TORSDOF 5
ENDMDL
MODEL 8
REMARK VINA RESULT:    -6.893      3.104      7.728
REMARK INTER + INTRA:          -9.745
REMARK INTER:                  -8.661
REMARK INTRA:                  -1.084
REMARK UNBOUND:                -0.837
REMARK  Name = 
REMARK  5 active torsions:
REMARK  status: ('A' for Active; 'I' for Inactive)
REMARK    1  A    between atoms: C_2  and  C_17
REMARK    2  A    between atoms: N_3  and  C_4
REMARK    3  A    between atoms: C_4  and  C_5
REMARK    4  A    between atoms: C_8  and  C_9
REMARK    5  A    between atoms: C_9  and  C_10
REMARK                            x       y       z     vdW  Elec       q    Type
REMARK                         _______ _______ _______ _____ _____    ______ ____
ROOT
ATOM      1  O   UNL     1      45.913   7.857  12.149  0.00  0.00    +0.000 OA
ATOM      2  C   UNL     1      46.480   6.823  11.819  0.00  0.00    +0.000 C 
ATOM      3  N   UNL     1      47.771   6.540  12.182  0.00  0.00    +0.000 N 
ATOM      4  H   UNL     1      48.251   5.766  11.734  0.00  0.00    +0.000 HD
ENDROOT
BRANCH   2   5
ATOM      5  C   UNL     1      45.792   5.778  11.048  0.00  0.00    +0.000 A 
ATOM      6  C   UNL     1      45.975   5.700   9.674  0.00  0.00    +0.000 A 
ATOM      7  S   UNL     1      45.104   4.428   8.943  0.00  0.00    +0.000 S 
ATOM      8  C   UNL     1      44.492   3.910  10.444  0.00  0.00    +0.000 A 
ATOM      9  N   UNL     1      43.689   2.814  10.533  0.00  0.00    +0.000 NA
ATOM     10  C   UNL     1      43.336   2.508  11.736  0.00  0.00    +0.000 A 
ATOM     11  N   UNL     1      43.702   3.203  12.860  0.00  0.00    +0.000 N 
ATOM     12  C   UNL     1      44.434   4.365  12.809  0.00  0.00    +0.000 A 
ATOM     13  O   UNL     1      44.601   5.056  13.809  0.00  0.00    +0.000 OA
ATOM     14  C   UNL     1      44.913   4.718  11.485  0.00  0.00    +0.000 A 
ATOM     15  H   UNL     1      43.351   2.937  13.767  0.00  0.00    +0.000 HD
ENDBRANCH   2   5
BRANCH   3  16
ATOM     16  C   UNL     1      48.616   7.512  12.829  0.00  0.00    +0.000 C 
BRANCH  16  17
ATOM     17  C   UNL     1      49.046   7.037  14.181  0.00  0.00    +0.000 A 
ATOM     18  C   UNL     1      50.265   7.427  14.734  0.00  0.00    +0.000 A 
ATOM     19  C   UNL     1      50.628   6.967  15.995  0.00  0.00    +0.000 A 
ATOM     20  C   UNL     1      49.746   6.158  16.709  0.00  0.00    +0.000 A 
ATOM     21  N   UNL     1      48.549   5.777  16.196  0.00  0.00    +0.000 NA
ATOM     22  C   UNL     1      48.229   6.222  14.956  0.00  0.00    +0.000 A 
BRANCH  20  23
ATOM     23  C   UNL     1      50.091   5.651  18.092  0.00  0.00    +0.000 C 
BRANCH  23  24
ATOM     24  C   UNL     1      50.291   4.129  18.237  0.00  0.00    +0.000 C 
ATOM     25  C   UNL     1      51.639   3.630  17.735  0.00  0.00    +0.000 C 
ATOM     26  C   UNL     1      51.390   2.177  17.384  0.00  0.00    +0.000 C 
ATOM     27  C   UNL     1      49.904   2.083  17.084  0.00  0.00    +0.000 C 
ATOM     28  N   UNL     1      49.285   3.330  17.523  0.00  0.00    +0.000 NA
ATOM     29  H   UNL     1      48.477   3.151  18.118  0.00  0.00    +0.000 HD
ENDBRANCH  23  24
ENDBRANCH  20  23
ENDBRANCH  16  17
ENDBRANCH   3  16
TORSDOF 5
ENDMDL
MODEL 9
REMARK VINA RESULT:    -6.714      1.891      2.478
REMARK INTER + INTRA:          -9.513
REMARK INTER:                  -8.851
REMARK INTRA:                  -0.663
REMARK UNBOUND:                -0.837
REMARK  Name = 
REMARK  5 active torsions:
REMARK  status: ('A' for Active; 'I' for Inactive)
REMARK    1  A    between atoms: C_2  and  C_17
REMARK    2  A    between atoms: N_3  and  C_4
REMARK    3  A    between atoms: C_4  and  C_5
REMARK    4  A    between atoms: C_8  and  C_9
REMARK    5  A    between atoms: C_9  and  C_10
REMARK                            x       y       z     vdW  Elec       q    Type
REMARK                         _______ _______ _______ _____ _____    ______ ____
ROOT
ATOM      1  O   UNL     1      46.936   8.585  13.399  0.00  0.00    +0.000 OA
ATOM      2  C   UNL     1      47.446   7.544  13.794  0.00  0.00    +0.000 C 
ATOM      3  N   UNL     1      46.822   6.328  13.682  0.00  0.00    +0.000 N 
ATOM      4  H   UNL     1      47.200   5.532  14.185  0.00  0.00    +0.000 HD
ENDROOT
BRANCH   2   5
ATOM      5  C   UNL     1      48.796   7.515  14.372  0.00  0.00    +0.000 A 
ATOM      6  C   UNL     1      49.780   8.356  13.870  0.00  0.00    +0.000 A 
ATOM      7  S   UNL     1      51.283   8.192  14.660  0.00  0.00    +0.000 S 
ATOM      8  C   UNL     1      50.657   7.027  15.730  0.00  0.00    +0.000 A 
ATOM      9  N   UNL     1      51.431   6.490  16.712  0.00  0.00    +0.000 NA
ATOM     10  C   UNL     1      50.815   5.655  17.480  0.00  0.00    +0.000 A 
ATOM     11  N   UNL     1      49.498   5.297  17.349  0.00  0.00    +0.000 N 
ATOM     12  C   UNL     1      48.705   5.744  16.319  0.00  0.00    +0.000 A 
ATOM     13  O   UNL     1      47.586   5.277  16.129  0.00  0.00    +0.000 OA
ATOM     14  C   UNL     1      49.330   6.738  15.465  0.00  0.00    +0.000 A 
ATOM     15  H   UNL     1      49.091   4.602  17.956  0.00  0.00    +0.000 HD
ENDBRANCH   2   5
BRANCH   3  16
ATOM     16  C   UNL     1      45.451   6.206  13.253  0.00  0.00    +0.000 C 
BRANCH  16  17
ATOM     17  C   UNL     1      45.359   5.496  11.939  0.00  0.00    +0.000 A 
ATOM     18  C   UNL     1      44.736   4.254  11.826  0.00  0.00    +0.000 A 
ATOM     19  C   UNL     1      44.669   3.627  10.587  0.00  0.00    +0.000 A 
ATOM     20  C   UNL     1      45.184   4.272   9.465  0.00  0.00    +0.000 A 
ATOM     21  N   UNL     1      45.782   5.486   9.548  0.00  0.00    +0.000 NA
ATOM     22  C   UNL     1      45.854   6.066  10.771  0.00  0.00    +0.000 A 
BRANCH  20  23
ATOM     23  C   UNL     1      45.113   3.635   8.093  0.00  0.00    +0.000 C 
BRANCH  23  24
ATOM     24  C   UNL     1      46.431   3.066   7.530  0.00  0.00    +0.000 C 
ATOM     25  C   UNL     1      46.587   3.235   6.025  0.00  0.00    +0.000 C 
ATOM     26  C   UNL     1      47.537   2.125   5.624  0.00  0.00    +0.000 C 
ATOM     27  C   UNL     1      47.378   1.052   6.686  0.00  0.00    +0.000 C 
ATOM     28  N   UNL     1      46.612   1.630   7.786  0.00  0.00    +0.000 NA
ATOM     29  H   UNL     1      47.077   1.477   8.679  0.00  0.00    +0.000 HD
ENDBRANCH  23  24
ENDBRANCH  20  23
ENDBRANCH  16  17
ENDBRANCH   3  16
TORSDOF 5
ENDMDL
