MODEL 1
REMARK VINA RESULT:    -7.422      0.000      0.000
REMARK INTER + INTRA:         -10.763
REMARK INTER:                  -9.808
REMARK INTRA:                  -0.955
REMARK UNBOUND:                -0.955
REMARK  Name = 
REMARK  6 active torsions:
REMARK  status: ('A' for Active; 'I' for Inactive)
REMARK    1  A    between atoms: N_1  and  C_2
REMARK    2  A    between atoms: C_7  and  C_8
REMARK    3  A    between atoms: C_8  and  C_9
REMARK    4  A    between atoms: C_12  and  C_13
REMARK    5  A    between atoms: C_13  and  N_14
REMARK    6  A    between atoms: C_15  and  C_17
REMARK                            x       y       z     vdW  Elec       q    Type
REMARK                         _______ _______ _______ _____ _____    ______ ____
ROOT
ATOM      1  C   UNL     1      51.395   2.186  17.408  0.00  0.00    +0.000 A 
ATOM      2  C   UNL     1      51.856   3.425  17.858  0.00  0.00    +0.000 A 
ATOM      3  C   UNL     1      51.033   4.548  17.804  0.00  0.00    +0.000 A 
ATOM      4  C   UNL     1      49.735   4.420  17.322  0.00  0.00    +0.000 A 
ATOM      5  N   UNL     1      49.243   3.223  16.909  0.00  0.00    +0.000 NA
ATOM      6  C   UNL     1      50.072   2.144  16.974  0.00  0.00    +0.000 A 
ENDROOT
BRANCH   1   7
ATOM      7  C   UNL     1      52.280   0.967  17.496  0.00  0.00    +0.000 C 
BRANCH   7  13
ATOM      8  C   UNL     1      54.284  -0.259  18.644  0.00  0.00    +0.000 C 
ATOM      9  C   UNL     1      54.706  -1.282  17.589  0.00  0.00    +0.000 C 
ATOM     10  C   UNL     1      55.686  -0.727  16.555  0.00  0.00    +0.000 C 
ATOM     11  C   UNL     1      55.312   0.643  15.995  0.00  0.00    +0.000 C 
ATOM     12  C   UNL     1      54.777   1.633  17.028  0.00  0.00    +0.000 C 
ATOM     13  C   UNL     1      53.751   1.046  18.011  0.00  0.00    +0.000 C 
BRANCH   8  14
ATOM     14  N   UNL     1      55.451   0.047  19.490  0.00  0.00    +0.000 NA
ATOM     15  H   UNL     1      56.314  -0.077  18.961  0.00  0.00    +0.000 HD
ATOM     16  H   UNL     1      55.495  -0.597  20.278  0.00  0.00    +0.000 HD
ENDBRANCH   8  14
ENDBRANCH   7  13
ENDBRANCH   1   7
BRANCH   4  17
ATOM     17  C   UNL     1      48.848   5.651  17.252  0.00  0.00    +0.000 C 
BRANCH  17  18
ATOM     18  N   UNL     1      47.962   5.635  16.100  0.00  0.00    +0.000 N 
ATOM     19  C   UNL     1      48.331   6.182  14.895  0.00  0.00    +0.000 C 
ATOM     20  O   UNL     1      49.456   6.644  14.715  0.00  0.00    +0.000 OA
ATOM     21  H   UNL     1      46.983   5.438  16.289  0.00  0.00    +0.000 HD
BRANCH  19  22
ATOM     22  C   UNL     1      47.351   6.145  13.798  0.00  0.00    +0.000 A 
ATOM     23  C   UNL     1      46.966   7.337  13.194  0.00  0.00    +0.000 A 
ATOM     24  S   UNL     1      45.834   7.143  11.935  0.00  0.00    +0.000 S 
ATOM     25  C   UNL     1      45.775   5.462  12.180  0.00  0.00    +0.000 A 
ATOM     26  N   UNL     1      44.946   4.680  11.440  0.00  0.00    +0.000 NA
ATOM     27  C   UNL     1      44.961   3.426  11.762  0.00  0.00    +0.000 A 
ATOM     28  N   UNL     1      45.749   2.891  12.748  0.00  0.00    +0.000 N 
ATOM     29  C   UNL     1      46.637   3.636  13.491  0.00  0.00    +0.000 A 
ATOM     30  O   UNL     1      47.376   3.117  14.321  0.00  0.00    +0.000 OA
ATOM     31  C   UNL     1      46.632   5.052  13.190  0.00  0.00    +0.000 A 
ATOM     32  H   UNL     1      45.728   1.901  12.941  0.00  0.00    +0.000 HD
ENDBRANCH  19  22
ENDBRANCH  17  18
ENDBRANCH   4  17
TORSDOF 6
ENDMDL
MODEL 2
REMARK VINA RESULT:    -7.167      3.062      9.060
REMARK INTER + INTRA:         -10.426
REMARK INTER:                  -9.417
REMARK INTRA:                  -1.009
REMARK UNBOUND:                -0.955
REMARK  Name = 
REMARK  6 active torsions:
REMARK  status: ('A' for Active; 'I' for Inactive)
REMARK    1  A    between atoms: N_1  and  C_2
REMARK    2  A    between atoms: C_7  and  C_8
REMARK    3  A    between atoms: C_8  and  C_9
REMARK    4  A    between atoms: C_12  and  C_13
REMARK    5  A    between atoms: C_13  and  N_14
REMARK    6  A    between atoms: C_15  and  C_17
REMARK                            x       y       z     vdW  Elec       q    Type
REMARK                         _______ _______ _______ _____ _____    ______ ____
ROOT
ATOM      1  C   UNL     1      47.186   5.123  14.207  0.00  0.00    +0.000 A 
ATOM      2  C   UNL     1      47.983   6.267  14.114  0.00  0.00    +0.000 A 
ATOM      3  C   UNL     1      48.732   6.697  15.207  0.00  0.00    +0.000 A 
ATOM      4  C   UNL     1      48.702   5.961  16.387  0.00  0.00    +0.000 A 
ATOM      5  N   UNL     1      47.966   4.826  16.500  0.00  0.00    +0.000 NA
ATOM      6  C   UNL     1      47.243   4.431  15.413  0.00  0.00    +0.000 A 
ENDROOT
BRANCH   1   7
ATOM      7  C   UNL     1      46.399   4.646  13.011  0.00  0.00    +0.000 C 
BRANCH   7  13
ATOM      8  C   UNL     1      43.978   5.622  12.856  0.00  0.00    +0.000 C 
ATOM      9  C   UNL     1      43.849   5.977  11.374  0.00  0.00    +0.000 C 
ATOM     10  C   UNL     1      43.394   4.809  10.501  0.00  0.00    +0.000 C 
ATOM     11  C   UNL     1      44.114   3.491  10.775  0.00  0.00    +0.000 C 
ATOM     12  C   UNL     1      44.352   3.186  12.253  0.00  0.00    +0.000 C 
ATOM     13  C   UNL     1      44.864   4.376  13.082  0.00  0.00    +0.000 C 
BRANCH   8  14
ATOM     14  N   UNL     1      42.630   5.369  13.394  0.00  0.00    +0.000 NA
ATOM     15  H   UNL     1      41.939   5.398  12.645  0.00  0.00    +0.000 HD
ATOM     16  H   UNL     1      42.372   6.097  14.058  0.00  0.00    +0.000 HD
ENDBRANCH   8  14
ENDBRANCH   7  13
ENDBRANCH   1   7
BRANCH   4  17
ATOM     17  C   UNL     1      49.509   6.443  17.579  0.00  0.00    +0.000 C 
BRANCH  17  18
ATOM     18  N   UNL     1      50.470   5.453  18.040  0.00  0.00    +0.000 N 
ATOM     19  C   UNL     1      51.724   5.351  17.489  0.00  0.00    +0.000 C 
ATOM     20  O   UNL     1      52.118   6.141  16.632  0.00  0.00    +0.000 OA
ATOM     21  H   UNL     1      50.096   4.689  18.595  0.00  0.00    +0.000 HD
BRANCH  19  22
ATOM     22  C   UNL     1      52.613   4.296  18.000  0.00  0.00    +0.000 A 
ATOM     23  C   UNL     1      53.802   4.656  18.624  0.00  0.00    +0.000 A 
ATOM     24  S   UNL     1      54.726   3.334  19.173  0.00  0.00    +0.000 S 
ATOM     25  C   UNL     1      53.596   2.224  18.554  0.00  0.00    +0.000 A 
ATOM     26  N   UNL     1      53.809   0.886  18.654  0.00  0.00    +0.000 NA
ATOM     27  C   UNL     1      52.898   0.154  18.098  0.00  0.00    +0.000 A 
ATOM     28  N   UNL     1      51.786   0.650  17.469  0.00  0.00    +0.000 N 
ATOM     29  C   UNL     1      51.505   1.995  17.384  0.00  0.00    +0.000 A 
ATOM     30  O   UNL     1      50.469   2.405  16.873  0.00  0.00    +0.000 OA
ATOM     31  C   UNL     1      52.514   2.858  17.964  0.00  0.00    +0.000 A 
ATOM     32  H   UNL     1      51.101   0.026  17.068  0.00  0.00    +0.000 HD
ENDBRANCH  19  22
ENDBRANCH  17  18
ENDBRANCH   4  17
TORSDOF 6
ENDMDL
MODEL 3
REMARK VINA RESULT:    -6.994      2.970      4.177
REMARK INTER + INTRA:         -10.198
REMARK INTER:                  -9.241
REMARK INTRA:                  -0.957
REMARK UNBOUND:                -0.955
REMARK  Name = 
REMARK  6 active torsions:
REMARK  status: ('A' for Active; 'I' for Inactive)
REMARK    1  A    between atoms: N_1  and  C_2
REMARK    2  A    between atoms: C_7  and  C_8
REMARK    3  A    between atoms: C_8  and  C_9
REMARK    4  A    between atoms: C_12  and  C_13
REMARK    5  A    between atoms: C_13  and  N_14
REMARK    6  A    between atoms: C_15  and  C_17
REMARK                            x       y       z     vdW  Elec       q    Type
REMARK                         _______ _______ _______ _____ _____    ______ ____
ROOT
ATOM      1  C   UNL     1      51.473   4.195  17.537  0.00  0.00    +0.000 A 
ATOM      2  C   UNL     1      50.959   2.897  17.581  0.00  0.00    +0.000 A 
ATOM      3  C   UNL     1      49.612   2.661  17.313  0.00  0.00    +0.000 A 
ATOM      4  C   UNL     1      48.787   3.727  16.973  0.00  0.00    +0.000 A 
ATOM      5  N   UNL     1      49.262   4.996  16.887  0.00  0.00    +0.000 NA
ATOM      6  C   UNL     1      50.583   5.195  17.155  0.00  0.00    +0.000 A 
ENDROOT
BRANCH   1   7
ATOM      7  C   UNL     1      52.939   4.441  17.799  0.00  0.00    +0.000 C 
BRANCH   7  13
ATOM      8  C   UNL     1      53.701   6.375  19.386  0.00  0.00    +0.000 C 
ATOM      9  C   UNL     1      52.397   7.128  19.653  0.00  0.00    +0.000 C 
ATOM     10  C   UNL     1      51.581   6.551  20.810  0.00  0.00    +0.000 C 
ATOM     11  C   UNL     1      51.441   5.031  20.793  0.00  0.00    +0.000 C 
ATOM     12  C   UNL     1      52.712   4.274  20.410  0.00  0.00    +0.000 C 
ATOM     13  C   UNL     1      53.471   4.857  19.206  0.00  0.00    +0.000 C 
BRANCH   8  14
ATOM     14  N   UNL     1      54.611   6.601  20.522  0.00  0.00    +0.000 NA
ATOM     15  H   UNL     1      55.322   5.872  20.557  0.00  0.00    +0.000 HD
ATOM     16  H   UNL     1      54.099   6.552  21.401  0.00  0.00    +0.000 HD
ENDBRANCH   8  14
ENDBRANCH   7  13
ENDBRANCH   1   7
BRANCH   4  17
ATOM     17  C   UNL     1      47.317   3.465  16.697  0.00  0.00    +0.000 C 
BRANCH  17  18
ATOM     18  N   UNL     1      46.752   4.406  15.744  0.00  0.00    +0.000 N 
ATOM     19  C   UNL     1      46.784   4.172  14.390  0.00  0.00    +0.000 C 
ATOM     20  O   UNL     1      47.226   3.122  13.928  0.00  0.00    +0.000 OA
ATOM     21  H   UNL     1      46.567   5.342  16.092  0.00  0.00    +0.000 HD
BRANCH  19  22
ATOM     22  C   UNL     1      46.215   5.200  13.504  0.00  0.00    +0.000 A 
ATOM     23  C   UNL     1      46.941   6.360  13.260  0.00  0.00    +0.000 A 
ATOM     24  S   UNL     1      46.165   7.456  12.211  0.00  0.00    +0.000 S 
ATOM     25  C   UNL     1      44.804   6.446  12.082  0.00  0.00    +0.000 A 
ATOM     26  N   UNL     1      43.726   6.823  11.346  0.00  0.00    +0.000 NA
ATOM     27  C   UNL     1      42.739   5.986  11.372  0.00  0.00    +0.000 A 
ATOM     28  N   UNL     1      42.750   4.799  12.058  0.00  0.00    +0.000 N 
ATOM     29  C   UNL     1      43.836   4.355  12.778  0.00  0.00    +0.000 A 
ATOM     30  O   UNL     1      43.840   3.258  13.327  0.00  0.00    +0.000 OA
ATOM     31  C   UNL     1      44.955   5.274  12.806  0.00  0.00    +0.000 A 
ATOM     32  H   UNL     1      41.954   4.180  12.026  0.00  0.00    +0.000 HD
ENDBRANCH  19  22
ENDBRANCH  17  18
ENDBRANCH   4  17
TORSDOF 6
ENDMDL
MODEL 4
REMARK VINA RESULT:    -6.888      4.901      6.082
REMARK INTER + INTRA:         -10.058
REMARK INTER:                  -9.148
REMARK INTRA:                  -0.910
REMARK UNBOUND:                -0.955
REMARK  Name = 
REMARK  6 active torsions:
REMARK  status: ('A' for Active; 'I' for Inactive)
REMARK    1  A    between atoms: N_1  and  C_2
REMARK    2  A    between atoms: C_7  and  C_8
REMARK    3  A    between atoms: C_8  and  C_9
REMARK    4  A    between atoms: C_12  and  C_13
REMARK    5  A    between atoms: C_13  and  N_14
REMARK    6  A    between atoms: C_15  and  C_17
REMARK                            x       y       z     vdW  Elec       q    Type
REMARK                         _______ _______ _______ _____ _____    ______ ____
ROOT
ATOM      1  C   UNL     1      49.027   7.697  16.222  0.00  0.00    +0.000 A 
ATOM      2  C   UNL     1      48.575   8.907  15.689  0.00  0.00    +0.000 A 
ATOM      3  C   UNL     1      48.364   9.040  14.318  0.00  0.00    +0.000 A 
ATOM      4  C   UNL     1      48.580   7.948  13.485  0.00  0.00    +0.000 A 
ATOM      5  N   UNL     1      48.986   6.748  13.974  0.00  0.00    +0.000 NA
ATOM      6  C   UNL     1      49.185   6.649  15.319  0.00  0.00    +0.000 A 
ENDROOT
BRANCH   1   7
ATOM      7  C   UNL     1      49.226   7.550  17.710  0.00  0.00    +0.000 C 
BRANCH   7  13
ATOM      8  C   UNL     1      47.651   5.558  18.335  0.00  0.00    +0.000 C 
ATOM      9  C   UNL     1      48.625   4.516  18.888  0.00  0.00    +0.000 C 
ATOM     10  C   UNL     1      48.932   4.692  20.375  0.00  0.00    +0.000 C 
ATOM     11  C   UNL     1      49.235   6.127  20.797  0.00  0.00    +0.000 C 
ATOM     12  C   UNL     1      48.339   7.186  20.156  0.00  0.00    +0.000 C 
ATOM     13  C   UNL     1      48.104   7.002  18.647  0.00  0.00    +0.000 C 
BRANCH   8  14
ATOM     14  N   UNL     1      46.326   5.320  18.933  0.00  0.00    +0.000 NA
ATOM     15  H   UNL     1      45.928   6.195  19.271  0.00  0.00    +0.000 HD
ATOM     16  H   UNL     1      46.407   4.705  19.740  0.00  0.00    +0.000 HD
ENDBRANCH   8  14
ENDBRANCH   7  13
ENDBRANCH   1   7
BRANCH   4  17
ATOM     17  C   UNL     1      48.363   8.104  11.990  0.00  0.00    +0.000 C 
BRANCH  17  18
ATOM     18  N   UNL     1      47.657   6.974  11.408  0.00  0.00    +0.000 N 
ATOM     19  C   UNL     1      46.285   6.912  11.385  0.00  0.00    +0.000 C 
ATOM     20  O   UNL     1      45.591   7.843  11.789  0.00  0.00    +0.000 OA
ATOM     21  H   UNL     1      48.205   6.133  11.254  0.00  0.00    +0.000 HD
BRANCH  19  22
ATOM     22  C   UNL     1      45.664   5.711  10.803  0.00  0.00    +0.000 A 
ATOM     23  C   UNL     1      45.770   5.490   9.435  0.00  0.00    +0.000 A 
ATOM     24  S   UNL     1      45.012   4.060   8.902  0.00  0.00    +0.000 S 
ATOM     25  C   UNL     1      44.468   3.704  10.473  0.00  0.00    +0.000 A 
ATOM     26  N   UNL     1      43.704   2.607  10.713  0.00  0.00    +0.000 NA
ATOM     27  C   UNL     1      43.316   2.481  11.941  0.00  0.00    +0.000 A 
ATOM     28  N   UNL     1      43.645   3.350  12.949  0.00  0.00    +0.000 N 
ATOM     29  C   UNL     1      44.454   4.447  12.763  0.00  0.00    +0.000 A 
ATOM     30  O   UNL     1      44.785   5.169  13.697  0.00  0.00    +0.000 OA
ATOM     31  C   UNL     1      44.887   4.650  11.396  0.00  0.00    +0.000 A 
ATOM     32  H   UNL     1      43.324   3.187  13.892  0.00  0.00    +0.000 HD
ENDBRANCH  19  22
ENDBRANCH  17  18
ENDBRANCH   4  17
TORSDOF 6
ENDMDL
MODEL 5
REMARK VINA RESULT:    -6.868      3.211      9.139
REMARK INTER + INTRA:         -10.031
REMARK INTER:                  -9.152
REMARK INTRA:                  -0.879
REMARK UNBOUND:                -0.955
REMARK  Name = 
REMARK  6 active torsions:
REMARK  status: ('A' for Active; 'I' for Inactive)
REMARK    1  A    between atoms: N_1  and  C_2
REMARK    2  A    between atoms: C_7  and  C_8
REMARK    3  A    between atoms: C_8  and  C_9
REMARK    4  A    between atoms: C_12  and  C_13
REMARK    5  A    between atoms: C_13  and  N_14
REMARK    6  A    between atoms: C_15  and  C_17
REMARK                            x       y       z     vdW  Elec       q    Type
REMARK                         _______ _______ _______ _____ _____    ______ ____
ROOT
ATOM      1  C   UNL     1      47.083   6.431  13.161  0.00  0.00    +0.000 A 
ATOM      2  C   UNL     1      47.724   7.672  13.129  0.00  0.00    +0.000 A 
ATOM      3  C   UNL     1      48.676   8.000  14.091  0.00  0.00    +0.000 A 
ATOM      4  C   UNL     1      49.006   7.070  15.071  0.00  0.00    +0.000 A 
ATOM      5  N   UNL     1      48.427   5.842  15.111  0.00  0.00    +0.000 NA
ATOM      6  C   UNL     1      47.499   5.550  14.157  0.00  0.00    +0.000 A 
ENDROOT
BRANCH   1   7
ATOM      7  C   UNL     1      46.073   6.068  12.100  0.00  0.00    +0.000 C 
BRANCH   7  13
ATOM      8  C   UNL     1      43.609   5.913  11.239  0.00  0.00    +0.000 C 
ATOM      9  C   UNL     1      43.638   4.668  10.351  0.00  0.00    +0.000 C 
ATOM     10  C   UNL     1      43.413   3.364  11.116  0.00  0.00    +0.000 C 
ATOM     11  C   UNL     1      44.217   3.238  12.409  0.00  0.00    +0.000 C 
ATOM     12  C   UNL     1      44.291   4.515  13.244  0.00  0.00    +0.000 C 
ATOM     13  C   UNL     1      44.575   5.795  12.439  0.00  0.00    +0.000 C 
BRANCH   8  14
ATOM     14  N   UNL     1      42.234   6.102  11.732  0.00  0.00    +0.000 NA
ATOM     15  H   UNL     1      42.091   5.576  12.593  0.00  0.00    +0.000 HD
ATOM     16  H   UNL     1      41.563   5.743  11.055  0.00  0.00    +0.000 HD
ENDBRANCH   8  14
ENDBRANCH   7  13
ENDBRANCH   1   7
BRANCH   4  17
ATOM     17  C   UNL     1      50.034   7.441  16.126  0.00  0.00    +0.000 C 
BRANCH  17  18
ATOM     18  N   UNL     1      50.838   6.304  16.545  0.00  0.00    +0.000 N 
ATOM     19  C   UNL     1      51.111   6.059  17.869  0.00  0.00    +0.000 C 
ATOM     20  O   UNL     1      50.626   6.749  18.764  0.00  0.00    +0.000 OA
ATOM     21  H   UNL     1      51.392   5.855  15.822  0.00  0.00    +0.000 HD
BRANCH  19  22
ATOM     22  C   UNL     1      51.961   4.902  18.190  0.00  0.00    +0.000 A 
ATOM     23  C   UNL     1      53.186   5.114  18.811  0.00  0.00    +0.000 A 
ATOM     24  S   UNL     1      54.059   3.686  19.130  0.00  0.00    +0.000 S 
ATOM     25  C   UNL     1      52.856   2.729  18.404  0.00  0.00    +0.000 A 
ATOM     26  N   UNL     1      53.004   1.383  18.304  0.00  0.00    +0.000 NA
ATOM     27  C   UNL     1      52.039   0.781  17.685  0.00  0.00    +0.000 A 
ATOM     28  N   UNL     1      50.934   1.413  17.177  0.00  0.00    +0.000 N 
ATOM     29  C   UNL     1      50.719   2.767  17.296  0.00  0.00    +0.000 A 
ATOM     30  O   UNL     1      49.689   3.293  16.889  0.00  0.00    +0.000 OA
ATOM     31  C   UNL     1      51.788   3.490  17.952  0.00  0.00    +0.000 A 
ATOM     32  H   UNL     1      50.207   0.885  16.719  0.00  0.00    +0.000 HD
ENDBRANCH  19  22
ENDBRANCH  17  18
ENDBRANCH   4  17
TORSDOF 6
ENDMDL
MODEL 6
REMARK VINA RESULT:    -6.717      2.657      3.459
REMARK INTER + INTRA:          -9.831
REMARK INTER:                  -8.992
REMARK INTRA:                  -0.839
REMARK UNBOUND:                -0.955
REMARK  Name = 
REMARK  6 active torsions:
REMARK  status: ('A' for Active; 'I' for Inactive)
REMARK    1  A    between atoms: N_1  and  C_2
REMARK    2  A    between atoms: C_7  and  C_8
REMARK    3  A    between atoms: C_8  and  C_9
REMARK    4  A    between atoms: C_12  and  C_13
REMARK    5  A    between atoms: C_13  and  N_14
REMARK    6  A    between atoms: C_15  and  C_17
REMARK                            x       y       z     vdW  Elec       q    Type
REMARK                         _______ _______ _______ _____ _____    ______ ____
ROOT
ATOM      1  C   UNL     1      50.670   5.322  18.752  0.00  0.00    +0.000 A 
ATOM      2  C   UNL     1      49.652   4.672  19.454  0.00  0.00    +0.000 A 
ATOM      3  C   UNL     1      48.576   4.105  18.775  0.00  0.00    +0.000 A 
ATOM      4  C   UNL     1      48.536   4.167  17.386  0.00  0.00    +0.000 A 
ATOM      5  N   UNL     1      49.526   4.760  16.671  0.00  0.00    +0.000 NA
ATOM      6  C   UNL     1      50.565   5.307  17.363  0.00  0.00    +0.000 A 
ENDROOT
BRANCH   1   7
ATOM      7  C   UNL     1      51.848   5.910  19.490  0.00  0.00    +0.000 C 
BRANCH   7  13
ATOM      8  C   UNL     1      53.166   3.655  19.356  0.00  0.00    +0.000 C 
ATOM      9  C   UNL     1      53.919   3.781  18.030  0.00  0.00    +0.000 C 
ATOM     10  C   UNL     1      55.256   4.513  18.151  0.00  0.00    +0.000 C 
ATOM     11  C   UNL     1      55.205   5.797  18.974  0.00  0.00    +0.000 C 
ATOM     12  C   UNL     1      54.357   5.714  20.242  0.00  0.00    +0.000 C 
ATOM     13  C   UNL     1      52.996   5.020  20.061  0.00  0.00    +0.000 C 
BRANCH   8  14
ATOM     14  N   UNL     1      53.917   2.741  20.233  0.00  0.00    +0.000 NA
ATOM     15  H   UNL     1      54.228   3.229  21.072  0.00  0.00    +0.000 HD
ATOM     16  H   UNL     1      54.756   2.407  19.761  0.00  0.00    +0.000 HD
ENDBRANCH   8  14
ENDBRANCH   7  13
ENDBRANCH   1   7
BRANCH   4  17
ATOM     17  C   UNL     1      47.352   3.560  16.653  0.00  0.00    +0.000 C 
BRANCH  17  18
ATOM     18  N   UNL     1      46.747   4.484  15.709  0.00  0.00    +0.000 N 
ATOM     19  C   UNL     1      46.767   4.253  14.355  0.00  0.00    +0.000 C 
ATOM     20  O   UNL     1      47.233   3.217  13.886  0.00  0.00    +0.000 OA
ATOM     21  H   UNL     1      46.540   5.415  16.061  0.00  0.00    +0.000 HD
BRANCH  19  22
ATOM     22  C   UNL     1      46.156   5.265  13.479  0.00  0.00    +0.000 A 
ATOM     23  C   UNL     1      46.839   6.451  13.235  0.00  0.00    +0.000 A 
ATOM     24  S   UNL     1      46.017   7.524  12.197  0.00  0.00    +0.000 S 
ATOM     25  C   UNL     1      44.691   6.467  12.073  0.00  0.00    +0.000 A 
ATOM     26  N   UNL     1      43.595   6.809  11.346  0.00  0.00    +0.000 NA
ATOM     27  C   UNL     1      42.638   5.938  11.376  0.00  0.00    +0.000 A 
ATOM     28  N   UNL     1      42.697   4.749  12.055  0.00  0.00    +0.000 N 
ATOM     29  C   UNL     1      43.803   4.340  12.766  0.00  0.00    +0.000 A 
ATOM     30  O   UNL     1      43.849   3.241  13.308  0.00  0.00    +0.000 OA
ATOM     31  C   UNL     1      44.889   5.298  12.790  0.00  0.00    +0.000 A 
ATOM     32  H   UNL     1      41.922   4.103  12.026  0.00  0.00    +0.000 HD
ENDBRANCH  19  22
ENDBRANCH  17  18
ENDBRANCH   4  17
TORSDOF 6
ENDMDL
MODEL 7
REMARK VINA RESULT:    -6.708      4.483      8.789
REMARK INTER + INTRA:          -9.820
REMARK INTER:                  -8.599
REMARK INTRA:                  -1.221
REMARK UNBOUND:                -0.955
REMARK  Name = 
REMARK  6 active torsions:
REMARK  status: ('A' for Active; 'I' for Inactive)
REMARK    1  A    between atoms: N_1  and  C_2
REMARK    2  A    between atoms: C_7  and  C_8
REMARK    3  A    between atoms: C_8  and  C_9
REMARK    4  A    between atoms: C_12  and  C_13
REMARK    5  A    between atoms: C_13  and  N_14
REMARK    6  A    between atoms: C_15  and  C_17
REMARK                            x       y       z     vdW  Elec       q    Type
REMARK                         _______ _______ _______ _____ _____    ______ ____
ROOT
ATOM      1  C   UNL     1      45.873   6.567  11.209  0.00  0.00    +0.000 A 
ATOM      2  C   UNL     1      45.245   7.730  11.661  0.00  0.00    +0.000 A 
ATOM      3  C   UNL     1      45.821   8.498  12.671  0.00  0.00    +0.000 A 
ATOM      4  C   UNL     1      47.044   8.112  13.209  0.00  0.00    +0.000 A 
ATOM      5  N   UNL     1      47.699   7.006  12.768  0.00  0.00    +0.000 NA
ATOM      6  C   UNL     1      47.109   6.275  11.780  0.00  0.00    +0.000 A 
ENDROOT
BRANCH   1   7
ATOM      7  C   UNL     1      45.260   5.755  10.095  0.00  0.00    +0.000 C 
BRANCH   7  13
ATOM      8  C   UNL     1      44.742   3.336  10.944  0.00  0.00    +0.000 C 
ATOM      9  C   UNL     1      45.020   3.437  12.445  0.00  0.00    +0.000 C 
ATOM     10  C   UNL     1      43.827   3.937  13.258  0.00  0.00    +0.000 C 
ATOM     11  C   UNL     1      43.117   5.151  12.664  0.00  0.00    +0.000 C 
ATOM     12  C   UNL     1      42.940   5.112  11.147  0.00  0.00    +0.000 C 
ATOM     13  C   UNL     1      44.185   4.657  10.365  0.00  0.00    +0.000 C 
BRANCH   8  14
ATOM     14  N   UNL     1      43.768   2.254  10.722  0.00  0.00    +0.000 NA
ATOM     15  H   UNL     1      44.170   1.532  10.125  0.00  0.00    +0.000 HD
ATOM     16  H   UNL     1      42.947   2.611  10.237  0.00  0.00    +0.000 HD
ENDBRANCH   8  14
ENDBRANCH   7  13
ENDBRANCH   1   7
BRANCH   4  17
ATOM     17  C   UNL     1      47.660   8.945  14.319  0.00  0.00    +0.000 C 
BRANCH  17  18
ATOM     18  N   UNL     1      47.877   8.179  15.536  0.00  0.00    +0.000 N 
ATOM     19  C   UNL     1      49.140   7.881  15.987  0.00  0.00    +0.000 C 
ATOM     20  O   UNL     1      50.144   8.312  15.423  0.00  0.00    +0.000 OA
ATOM     21  H   UNL     1      47.077   7.664  15.892  0.00  0.00    +0.000 HD
BRANCH  19  22
ATOM     22  C   UNL     1      49.256   7.073  17.211  0.00  0.00    +0.000 A 
ATOM     23  C   UNL     1      49.862   7.626  18.333  0.00  0.00    +0.000 A 
ATOM     24  S   UNL     1      49.920   6.581  19.677  0.00  0.00    +0.000 S 
ATOM     25  C   UNL     1      49.182   5.327  18.798  0.00  0.00    +0.000 A 
ATOM     26  N   UNL     1      48.971   4.111  19.364  0.00  0.00    +0.000 NA
ATOM     27  C   UNL     1      48.448   3.232  18.570  0.00  0.00    +0.000 A 
ATOM     28  N   UNL     1      48.104   3.477  17.266  0.00  0.00    +0.000 N 
ATOM     29  C   UNL     1      48.256   4.706  16.664  0.00  0.00    +0.000 A 
ATOM     30  O   UNL     1      47.877   4.912  15.517  0.00  0.00    +0.000 OA
ATOM     31  C   UNL     1      48.869   5.714  17.504  0.00  0.00    +0.000 A 
ATOM     32  H   UNL     1      47.684   2.754  16.702  0.00  0.00    +0.000 HD
ENDBRANCH  19  22
ENDBRANCH  17  18
ENDBRANCH   4  17
TORSDOF 6
ENDMDL
MODEL 8
REMARK VINA RESULT:    -6.684      3.553      4.818
REMARK INTER + INTRA:          -9.788
REMARK INTER:                  -8.829
REMARK INTRA:                  -0.959
REMARK UNBOUND:                -0.955
REMARK  Name = 
REMARK  6 active torsions:
REMARK  status: ('A' for Active; 'I' for Inactive)
REMARK    1  A    between atoms: N_1  and  C_2
REMARK    2  A    between atoms: C_7  and  C_8
REMARK    3  A    between atoms: C_8  and  C_9
REMARK    4  A    between atoms: C_12  and  C_13
REMARK    5  A    between atoms: C_13  and  N_14
REMARK    6  A    between atoms: C_15  and  C_17
REMARK                            x       y       z     vdW  Elec       q    Type
REMARK                         _______ _______ _______ _____ _____    ______ ____
ROOT
ATOM      1  C   UNL     1      49.890   6.770  17.284  0.00  0.00    +0.000 A 
ATOM      2  C   UNL     1      49.014   7.828  17.537  0.00  0.00    +0.000 A 
ATOM      3  C   UNL     1      48.339   8.453  16.490  0.00  0.00    +0.000 A 
ATOM      4  C   UNL     1      48.524   7.995  15.190  0.00  0.00    +0.000 A 
ATOM      5  N   UNL     1      49.341   6.946  14.913  0.00  0.00    +0.000 NA
ATOM      6  C   UNL     1      49.987   6.357  15.958  0.00  0.00    +0.000 A 
ENDROOT
BRANCH   1   7
ATOM      7  C   UNL     1      50.596   6.078  18.425  0.00  0.00    +0.000 C 
BRANCH   7  13
ATOM      8  C   UNL     1      48.623   4.809  19.581  0.00  0.00    +0.000 C 
ATOM      9  C   UNL     1      47.583   4.709  18.464  0.00  0.00    +0.000 C 
ATOM     10  C   UNL     1      47.778   3.498  17.551  0.00  0.00    +0.000 C 
ATOM     11  C   UNL     1      49.218   3.269  17.098  0.00  0.00    +0.000 C 
ATOM     12  C   UNL     1      50.273   3.483  18.182  0.00  0.00    +0.000 C 
ATOM     13  C   UNL     1      50.069   4.744  19.039  0.00  0.00    +0.000 C 
BRANCH   8  14
ATOM     14  N   UNL     1      48.402   3.700  20.524  0.00  0.00    +0.000 NA
ATOM     15  H   UNL     1      48.749   3.948  21.450  0.00  0.00    +0.000 HD
ATOM     16  H   UNL     1      48.923   2.876  20.228  0.00  0.00    +0.000 HD
ENDBRANCH   8  14
ENDBRANCH   7  13
ENDBRANCH   1   7
BRANCH   4  17
ATOM     17  C   UNL     1      47.797   8.690  14.052  0.00  0.00    +0.000 C 
BRANCH  17  18
ATOM     18  N   UNL     1      46.626   7.952  13.605  0.00  0.00    +0.000 N 
ATOM     19  C   UNL     1      46.665   7.128  12.506  0.00  0.00    +0.000 C 
ATOM     20  O   UNL     1      47.712   6.920  11.895  0.00  0.00    +0.000 OA
ATOM     21  H   UNL     1      45.732   8.262  13.974  0.00  0.00    +0.000 HD
BRANCH  19  22
ATOM     22  C   UNL     1      45.420   6.450  12.114  0.00  0.00    +0.000 A 
ATOM     23  C   UNL     1      44.374   7.204  11.595  0.00  0.00    +0.000 A 
ATOM     24  S   UNL     1      42.999   6.288  11.177  0.00  0.00    +0.000 S 
ATOM     25  C   UNL     1      43.729   4.852  11.721  0.00  0.00    +0.000 A 
ATOM     26  N   UNL     1      43.056   3.672  11.684  0.00  0.00    +0.000 NA
ATOM     27  C   UNL     1      43.708   2.667  12.174  0.00  0.00    +0.000 A 
ATOM     28  N   UNL     1      44.980   2.743  12.679  0.00  0.00    +0.000 N 
ATOM     29  C   UNL     1      45.717   3.906  12.695  0.00  0.00    +0.000 A 
ATOM     30  O   UNL     1      46.876   3.927  13.093  0.00  0.00    +0.000 OA
ATOM     31  C   UNL     1      45.017   5.067  12.187  0.00  0.00    +0.000 A 
ATOM     32  H   UNL     1      45.442   1.918  13.033  0.00  0.00    +0.000 HD
ENDBRANCH  19  22
ENDBRANCH  17  18
ENDBRANCH   4  17
TORSDOF 6
ENDMDL
MODEL 9
REMARK VINA RESULT:    -6.622      3.260      4.506
REMARK INTER + INTRA:          -9.706
REMARK INTER:                  -8.709
REMARK INTRA:                  -0.997
REMARK UNBOUND:                -0.955
REMARK  Name = 
REMARK  6 active torsions:
REMARK  status: ('A' for Active; 'I' for Inactive)
REMARK    1  A    between atoms: N_1  and  C_2
REMARK    2  A    between atoms: C_7  and  C_8
REMARK    3  A    between atoms: C_8  and  C_9
REMARK    4  A    between atoms: C_12  and  C_13
REMARK    5  A    between atoms: C_13  and  N_14
REMARK    6  A    between atoms: C_15  and  C_17
REMARK                            x       y       z     vdW  Elec       q    Type
REMARK                         _______ _______ _______ _____ _____    ______ ____
ROOT
ATOM      1  C   UNL     1      51.088   4.972  18.077  0.00  0.00    +0.000 A 
ATOM      2  C   UNL     1      49.937   5.746  18.239  0.00  0.00    +0.000 A 
ATOM      3  C   UNL     1      48.704   5.285  17.781  0.00  0.00    +0.000 A 
ATOM      4  C   UNL     1      48.623   4.032  17.184  0.00  0.00    +0.000 A 
ATOM      5  N   UNL     1      49.716   3.239  17.042  0.00  0.00    +0.000 NA
ATOM      6  C   UNL     1      50.907   3.718  17.499  0.00  0.00    +0.000 A 
ENDROOT
BRANCH   1   7
ATOM      7  C   UNL     1      52.415   5.463  18.600  0.00  0.00    +0.000 C 
BRANCH   7  13
ATOM      8  C   UNL     1      53.067   6.339  16.224  0.00  0.00    +0.000 C 
ATOM      9  C   UNL     1      52.385   7.707  16.168  0.00  0.00    +0.000 C 
ATOM     10  C   UNL     1      53.221   8.834  16.772  0.00  0.00    +0.000 C 
ATOM     11  C   UNL     1      53.861   8.501  18.118  0.00  0.00    +0.000 C 
ATOM     12  C   UNL     1      54.441   7.091  18.221  0.00  0.00    +0.000 C 
ATOM     13  C   UNL     1      53.540   5.982  17.651  0.00  0.00    +0.000 C 
BRANCH   8  14
ATOM     14  N   UNL     1      54.225   6.358  15.314  0.00  0.00    +0.000 NA
ATOM     15  H   UNL     1      54.218   5.534  14.714  0.00  0.00    +0.000 HD
ATOM     16  H   UNL     1      55.093   6.324  15.846  0.00  0.00    +0.000 HD
ENDBRANCH   8  14
ENDBRANCH   7  13
ENDBRANCH   1   7
BRANCH   4  17
ATOM     17  C   UNL     1      47.279   3.542  16.674  0.00  0.00    +0.000 C 
BRANCH  17  18
ATOM     18  N   UNL     1      46.674   4.462  15.724  0.00  0.00    +0.000 N 
ATOM     19  C   UNL     1      46.714   4.233  14.370  0.00  0.00    +0.000 C 
ATOM     20  O   UNL     1      47.198   3.203  13.905  0.00  0.00    +0.000 OA
ATOM     21  H   UNL     1      46.452   5.389  16.075  0.00  0.00    +0.000 HD
BRANCH  19  22
ATOM     22  C   UNL     1      46.101   5.239  13.488  0.00  0.00    +0.000 A 
ATOM     23  C   UNL     1      46.784   6.423  13.235  0.00  0.00    +0.000 A 
ATOM     24  S   UNL     1      45.961   7.490  12.192  0.00  0.00    +0.000 S 
ATOM     25  C   UNL     1      44.635   6.432  12.076  0.00  0.00    +0.000 A 
ATOM     26  N   UNL     1      43.538   6.769  11.348  0.00  0.00    +0.000 NA
ATOM     27  C   UNL     1      42.582   5.898  11.384  0.00  0.00    +0.000 A 
ATOM     28  N   UNL     1      42.641   4.714  12.072  0.00  0.00    +0.000 N 
ATOM     29  C   UNL     1      43.748   4.310  12.783  0.00  0.00    +0.000 A 
ATOM     30  O   UNL     1      43.795   3.214  13.333  0.00  0.00    +0.000 OA
ATOM     31  C   UNL     1      44.834   5.267  12.800  0.00  0.00    +0.000 A 
ATOM     32  H   UNL     1      41.866   4.067  12.047  0.00  0.00    +0.000 HD
ENDBRANCH  19  22
ENDBRANCH  17  18
ENDBRANCH   4  17
TORSDOF 6
ENDMDL
