MODEL 1
REMARK VINA RESULT:    -8.815      0.000      0.000
REMARK INTER + INTRA:         -12.327
REMARK INTER:                 -11.392
REMARK INTRA:                  -0.935
REMARK UNBOUND:                -0.935
REMARK  Name = 
REMARK  5 active torsions:
REMARK  status: ('A' for Active; 'I' for Inactive)
REMARK    1  A    between atoms: C_2  and  C_4
REMARK    2  A    between atoms: C_7  and  N_8
REMARK    3  A    between atoms: N_8  and  C_9
REMARK    4  A    between atoms: C_9  and  C_10
REMARK    5  A    between atoms: C_14  and  C_15
REMARK                            x       y       z     vdW  Elec       q    Type
REMARK                         _______ _______ _______ _____ _____    ______ ____
ROOT
ATOM      1  C   UNL     1      43.529   4.813  11.310  0.00  0.00    +0.000 C 
ENDROOT
BRANCH   1   2
ATOM      2  C   UNL     1      44.783   5.089  12.089  0.00  0.00    +0.000 A 
ATOM      3  C   UNL     1      45.179   4.274  13.136  0.00  0.00    +0.000 A 
ATOM      4  N   UNL     1      46.308   4.468  13.847  0.00  0.00    +0.000 NA
ATOM      5  C   UNL     1      47.075   5.533  13.498  0.00  0.00    +0.000 A 
ATOM      6  C   UNL     1      46.802   6.426  12.458  0.00  0.00    +0.000 A 
ATOM      7  C   UNL     1      45.626   6.159  11.744  0.00  0.00    +0.000 A 
BRANCH   6   8
ATOM      8  C   UNL     1      47.672   7.586  12.151  0.00  0.00    +0.000 A 
ATOM      9  C   UNL     1      47.171   8.907  12.169  0.00  0.00    +0.000 A 
ATOM     10  C   UNL     1      47.992  10.012  11.915  0.00  0.00    +0.000 A 
ATOM     11  C   UNL     1      49.342   9.826  11.644  0.00  0.00    +0.000 A 
ATOM     12  C   UNL     1      49.852   8.538  11.613  0.00  0.00    +0.000 A 
ATOM     13  F   UNL     1      51.153   8.351  11.357  0.00  0.00    +0.000 F 
ATOM     14  C   UNL     1      49.037   7.431  11.852  0.00  0.00    +0.000 A 
ENDBRANCH   6   8
ENDBRANCH   1   2
BRANCH   1  15
ATOM     15  N   UNL     1      43.797   4.960   9.889  0.00  0.00    +0.000 N 
ATOM     16  H   UNL     1      43.054   5.414   9.363  0.00  0.00    +0.000 HD
BRANCH  15  20
ATOM     17  C   UNL     1      46.296   2.240   7.866  0.00  0.00    +0.000 A 
ATOM     18  C   UNL     1      45.332   1.761   8.751  0.00  0.00    +0.000 A 
ATOM     19  C   UNL     1      44.464   2.650   9.391  0.00  0.00    +0.000 A 
ATOM     20  C   UNL     1      44.528   4.029   9.164  0.00  0.00    +0.000 A 
ATOM     21  C   UNL     1      45.507   4.492   8.272  0.00  0.00    +0.000 A 
ATOM     22  C   UNL     1      46.386   3.612   7.628  0.00  0.00    +0.000 A 
BRANCH  17  24
ATOM     23  N   UNL     1      48.315   1.906   6.546  0.00  0.00    +0.000 N 
ATOM     24  C   UNL     1      47.271   1.327   7.214  0.00  0.00    +0.000 C 
ATOM     25  O   UNL     1      47.163   0.110   7.284  0.00  0.00    +0.000 OA
ATOM     26  H   UNL     1      49.014   1.278   6.170  0.00  0.00    +0.000 HD
ATOM     27  H   UNL     1      48.567   2.876   6.661  0.00  0.00    +0.000 HD
ENDBRANCH  17  24
ENDBRANCH  15  20
ENDBRANCH   1  15
TORSDOF 5
ENDMDL
MODEL 2
REMARK VINA RESULT:    -8.601      1.695      2.024
REMARK INTER + INTRA:         -12.051
REMARK INTER:                 -11.120
REMARK INTRA:                  -0.931
REMARK UNBOUND:                -0.935
REMARK  Name = 
REMARK  5 active torsions:
REMARK  status: ('A' for Active; 'I' for Inactive)
REMARK    1  A    between atoms: C_2  and  C_4
REMARK    2  A    between atoms: C_7  and  N_8
REMARK    3  A    between atoms: N_8  and  C_9
REMARK    4  A    between atoms: C_9  and  C_10
REMARK    5  A    between atoms: C_14  and  C_15
REMARK                            x       y       z     vdW  Elec       q    Type
REMARK                         _______ _______ _______ _____ _____    ______ ____
ROOT
ATOM      1  C   UNL     1      43.972   3.573  11.821  0.00  0.00    +0.000 C 
ENDROOT
BRANCH   1   2
ATOM      2  C   UNL     1      45.183   4.271  12.372  0.00  0.00    +0.000 A 
ATOM      3  C   UNL     1      46.115   3.601  13.146  0.00  0.00    +0.000 A 
ATOM      4  N   UNL     1      47.227   4.179  13.641  0.00  0.00    +0.000 NA
ATOM      5  C   UNL     1      47.414   5.493  13.352  0.00  0.00    +0.000 A 
ATOM      6  C   UNL     1      46.565   6.284  12.574  0.00  0.00    +0.000 A 
ATOM      7  C   UNL     1      45.437   5.620  12.072  0.00  0.00    +0.000 A 
BRANCH   6   8
ATOM      8  C   UNL     1      46.817   7.722  12.322  0.00  0.00    +0.000 A 
ATOM      9  C   UNL     1      48.109   8.199  12.010  0.00  0.00    +0.000 A 
ATOM     10  C   UNL     1      48.353   9.550  11.735  0.00  0.00    +0.000 A 
ATOM     11  C   UNL     1      47.305  10.462  11.756  0.00  0.00    +0.000 A 
ATOM     12  C   UNL     1      46.030  10.016  12.068  0.00  0.00    +0.000 A 
ATOM     13  F   UNL     1      45.014  10.888  12.086  0.00  0.00    +0.000 F 
ATOM     14  C   UNL     1      45.782   8.673  12.356  0.00  0.00    +0.000 A 
ENDBRANCH   6   8
ENDBRANCH   1   2
BRANCH   1  15
ATOM     15  N   UNL     1      43.797   3.932  10.423  0.00  0.00    +0.000 N 
ATOM     16  H   UNL     1      42.829   4.056  10.136  0.00  0.00    +0.000 HD
BRANCH  15  20
ATOM     17  C   UNL     1      46.616   2.684   7.555  0.00  0.00    +0.000 A 
ATOM     18  C   UNL     1      45.986   1.736   8.359  0.00  0.00    +0.000 A 
ATOM     19  C   UNL     1      45.014   2.131   9.281  0.00  0.00    +0.000 A 
ATOM     20  C   UNL     1      44.639   3.472   9.420  0.00  0.00    +0.000 A 
ATOM     21  C   UNL     1      45.287   4.413   8.605  0.00  0.00    +0.000 A 
ATOM     22  C   UNL     1      46.267   4.029   7.681  0.00  0.00    +0.000 A 
BRANCH  17  24
ATOM     23  N   UNL     1      47.841   3.073   5.486  0.00  0.00    +0.000 N 
ATOM     24  C   UNL     1      47.696   2.302   6.607  0.00  0.00    +0.000 C 
ATOM     25  O   UNL     1      48.439   1.354   6.822  0.00  0.00    +0.000 OA
ATOM     26  H   UNL     1      48.625   2.852   4.886  0.00  0.00    +0.000 HD
ATOM     27  H   UNL     1      47.414   3.983   5.389  0.00  0.00    +0.000 HD
ENDBRANCH  17  24
ENDBRANCH  15  20
ENDBRANCH   1  15
TORSDOF 5
ENDMDL
MODEL 3
REMARK VINA RESULT:    -8.598      2.791      3.947
REMARK INTER + INTRA:         -12.046
REMARK INTER:                 -11.331
REMARK INTRA:                  -0.716
REMARK UNBOUND:                -0.935
REMARK  Name = 
REMARK  5 active torsions:
REMARK  status: ('A' for Active; 'I' for Inactive)
REMARK    1  A    between atoms: C_2  and  C_4
REMARK    2  A    between atoms: C_7  and  N_8
REMARK    3  A    between atoms: N_8  and  C_9
REMARK    4  A    between atoms: C_9  and  C_10
REMARK    5  A    between atoms: C_14  and  C_15
REMARK                            x       y       z     vdW  Elec       q    Type
REMARK                         _______ _______ _______ _____ _____    ______ ____
ROOT
ATOM      1  C   UNL     1      44.006   5.025  11.440  0.00  0.00    +0.000 C 
ENDROOT
BRANCH   1   2
ATOM      2  C   UNL     1      45.304   5.537  11.994  0.00  0.00    +0.000 A 
ATOM      3  C   UNL     1      46.072   6.459  11.303  0.00  0.00    +0.000 A 
ATOM      4  N   UNL     1      47.230   6.965  11.771  0.00  0.00    +0.000 NA
ATOM      5  C   UNL     1      47.644   6.523  12.987  0.00  0.00    +0.000 A 
ATOM      6  C   UNL     1      46.963   5.609  13.795  0.00  0.00    +0.000 A 
ATOM      7  C   UNL     1      45.756   5.136  13.262  0.00  0.00    +0.000 A 
BRANCH   6   8
ATOM      8  C   UNL     1      47.489   5.149  15.102  0.00  0.00    +0.000 A 
ATOM      9  C   UNL     1      48.488   5.872  15.789  0.00  0.00    +0.000 A 
ATOM     10  C   UNL     1      48.966   5.466  17.041  0.00  0.00    +0.000 A 
ATOM     11  C   UNL     1      48.449   4.327  17.645  0.00  0.00    +0.000 A 
ATOM     12  C   UNL     1      47.472   3.598  16.983  0.00  0.00    +0.000 A 
ATOM     13  F   UNL     1      46.966   2.501  17.561  0.00  0.00    +0.000 F 
ATOM     14  C   UNL     1      47.001   3.989  15.730  0.00  0.00    +0.000 A 
ENDBRANCH   6   8
ENDBRANCH   1   2
BRANCH   1  15
ATOM     15  N   UNL     1      44.063   5.018   9.988  0.00  0.00    +0.000 N 
ATOM     16  H   UNL     1      43.256   5.434   9.530  0.00  0.00    +0.000 HD
BRANCH  15  20
ATOM     17  C   UNL     1      46.206   2.013   7.960  0.00  0.00    +0.000 A 
ATOM     18  C   UNL     1      45.246   1.655   8.904  0.00  0.00    +0.000 A 
ATOM     19  C   UNL     1      44.494   2.641   9.549  0.00  0.00    +0.000 A 
ATOM     20  C   UNL     1      44.671   4.000   9.266  0.00  0.00    +0.000 A 
ATOM     21  C   UNL     1      45.644   4.341   8.315  0.00  0.00    +0.000 A 
ATOM     22  C   UNL     1      46.408   3.362   7.666  0.00  0.00    +0.000 A 
BRANCH  17  24
ATOM     23  N   UNL     1      46.834  -0.316   7.625  0.00  0.00    +0.000 N 
ATOM     24  C   UNL     1      47.062   0.993   7.300  0.00  0.00    +0.000 C 
ATOM     25  O   UNL     1      47.922   1.300   6.484  0.00  0.00    +0.000 OA
ATOM     26  H   UNL     1      47.369  -1.007   7.115  0.00  0.00    +0.000 HD
ATOM     27  H   UNL     1      45.998  -0.624   8.100  0.00  0.00    +0.000 HD
ENDBRANCH  17  24
ENDBRANCH  15  20
ENDBRANCH   1  15
TORSDOF 5
ENDMDL
MODEL 4
REMARK VINA RESULT:    -8.557      3.454      6.602
REMARK INTER + INTRA:         -11.994
REMARK INTER:                 -11.090
REMARK INTRA:                  -0.904
REMARK UNBOUND:                -0.935
REMARK  Name = 
REMARK  5 active torsions:
REMARK  status: ('A' for Active; 'I' for Inactive)
REMARK    1  A    between atoms: C_2  and  C_4
REMARK    2  A    between atoms: C_7  and  N_8
REMARK    3  A    between atoms: N_8  and  C_9
REMARK    4  A    between atoms: C_9  and  C_10
REMARK    5  A    between atoms: C_14  and  C_15
REMARK                            x       y       z     vdW  Elec       q    Type
REMARK                         _______ _______ _______ _____ _____    ______ ____
ROOT
ATOM      1  C   UNL     1      43.080   6.165  11.168  0.00  0.00    +0.000 C 
ENDROOT
BRANCH   1   2
ATOM      2  C   UNL     1      43.448   4.735  10.896  0.00  0.00    +0.000 A 
ATOM      3  C   UNL     1      42.959   3.700  11.674  0.00  0.00    +0.000 A 
ATOM      4  N   UNL     1      43.242   2.401  11.452  0.00  0.00    +0.000 NA
ATOM      5  C   UNL     1      44.060   2.124  10.403  0.00  0.00    +0.000 A 
ATOM      6  C   UNL     1      44.612   3.066   9.531  0.00  0.00    +0.000 A 
ATOM      7  C   UNL     1      44.263   4.396   9.802  0.00  0.00    +0.000 A 
BRANCH   6   8
ATOM      8  C   UNL     1      45.521   2.693   8.421  0.00  0.00    +0.000 A 
ATOM      9  C   UNL     1      46.122   1.417   8.359  0.00  0.00    +0.000 A 
ATOM     10  C   UNL     1      46.954   1.043   7.297  0.00  0.00    +0.000 A 
ATOM     11  C   UNL     1      47.199   1.935   6.260  0.00  0.00    +0.000 A 
ATOM     12  C   UNL     1      46.625   3.195   6.306  0.00  0.00    +0.000 A 
ATOM     13  F   UNL     1      46.855   4.059   5.309  0.00  0.00    +0.000 F 
ATOM     14  C   UNL     1      45.806   3.580   7.368  0.00  0.00    +0.000 A 
ENDBRANCH   6   8
ENDBRANCH   1   2
BRANCH   1  15
ATOM     15  N   UNL     1      43.761   6.624  12.367  0.00  0.00    +0.000 N 
ATOM     16  H   UNL     1      43.300   7.392  12.849  0.00  0.00    +0.000 HD
BRANCH  15  20
ATOM     17  C   UNL     1      47.923   6.873  12.958  0.00  0.00    +0.000 A 
ATOM     18  C   UNL     1      47.214   5.804  13.501  0.00  0.00    +0.000 A 
ATOM     19  C   UNL     1      45.841   5.683  13.272  0.00  0.00    +0.000 A 
ATOM     20  C   UNL     1      45.144   6.614  12.494  0.00  0.00    +0.000 A 
ATOM     21  C   UNL     1      45.874   7.684  11.957  0.00  0.00    +0.000 A 
ATOM     22  C   UNL     1      47.249   7.819  12.184  0.00  0.00    +0.000 A 
BRANCH  17  24
ATOM     23  N   UNL     1      50.180   7.317  12.157  0.00  0.00    +0.000 N 
ATOM     24  C   UNL     1      49.372   7.061  13.230  0.00  0.00    +0.000 C 
ATOM     25  O   UNL     1      49.828   7.010  14.366  0.00  0.00    +0.000 OA
ATOM     26  H   UNL     1      51.150   7.519  12.361  0.00  0.00    +0.000 HD
ATOM     27  H   UNL     1      49.820   7.597  11.256  0.00  0.00    +0.000 HD
ENDBRANCH  17  24
ENDBRANCH  15  20
ENDBRANCH   1  15
TORSDOF 5
ENDMDL
MODEL 5
REMARK VINA RESULT:    -8.427      3.641      6.807
REMARK INTER + INTRA:         -11.825
REMARK INTER:                 -10.907
REMARK INTRA:                  -0.918
REMARK UNBOUND:                -0.935
REMARK  Name = 
REMARK  5 active torsions:
REMARK  status: ('A' for Active; 'I' for Inactive)
REMARK    1  A    between atoms: C_2  and  C_4
REMARK    2  A    between atoms: C_7  and  N_8
REMARK    3  A    between atoms: N_8  and  C_9
REMARK    4  A    between atoms: C_9  and  C_10
REMARK    5  A    between atoms: C_14  and  C_15
REMARK                            x       y       z     vdW  Elec       q    Type
REMARK                         _______ _______ _______ _____ _____    ______ ____
ROOT
ATOM      1  C   UNL     1      43.712   6.599  11.359  0.00  0.00    +0.000 C 
ENDROOT
BRANCH   1   2
ATOM      2  C   UNL     1      43.801   5.136  11.031  0.00  0.00    +0.000 A 
ATOM      3  C   UNL     1      43.084   4.190  11.743  0.00  0.00    +0.000 A 
ATOM      4  N   UNL     1      43.113   2.870  11.469  0.00  0.00    +0.000 NA
ATOM      5  C   UNL     1      43.902   2.478  10.435  0.00  0.00    +0.000 A 
ATOM      6  C   UNL     1      44.665   3.324   9.627  0.00  0.00    +0.000 A 
ATOM      7  C   UNL     1      44.576   4.686   9.949  0.00  0.00    +0.000 A 
BRANCH   6   8
ATOM      8  C   UNL     1      45.527   2.823   8.530  0.00  0.00    +0.000 A 
ATOM      9  C   UNL     1      46.003   3.682   7.516  0.00  0.00    +0.000 A 
ATOM     10  C   UNL     1      46.846   3.227   6.496  0.00  0.00    +0.000 A 
ATOM     11  C   UNL     1      47.246   1.896   6.468  0.00  0.00    +0.000 A 
ATOM     12  C   UNL     1      46.784   1.034   7.450  0.00  0.00    +0.000 A 
ATOM     13  F   UNL     1      47.167  -0.249   7.432  0.00  0.00    +0.000 F 
ATOM     14  C   UNL     1      45.932   1.478   8.462  0.00  0.00    +0.000 A 
ENDBRANCH   6   8
ENDBRANCH   1   2
BRANCH   1  15
ATOM     15  N   UNL     1      44.373   6.855  12.628  0.00  0.00    +0.000 N 
ATOM     16  H   UNL     1      43.790   7.311  13.325  0.00  0.00    +0.000 HD
BRANCH  15  20
ATOM     17  C   UNL     1      48.528   7.540  12.663  0.00  0.00    +0.000 A 
ATOM     18  C   UNL     1      47.671   8.530  12.186  0.00  0.00    +0.000 A 
ATOM     19  C   UNL     1      46.288   8.335  12.214  0.00  0.00    +0.000 A 
ATOM     20  C   UNL     1      45.724   7.159  12.722  0.00  0.00    +0.000 A 
ATOM     21  C   UNL     1      46.602   6.173  13.195  0.00  0.00    +0.000 A 
ATOM     22  C   UNL     1      47.991   6.355  13.168  0.00  0.00    +0.000 A 
BRANCH  17  24
ATOM     23  N   UNL     1      50.608   7.385  11.406  0.00  0.00    +0.000 N 
ATOM     24  C   UNL     1      50.005   7.694  12.594  0.00  0.00    +0.000 C 
ATOM     25  O   UNL     1      50.658   8.097  13.548  0.00  0.00    +0.000 OA
ATOM     26  H   UNL     1      51.602   7.565  11.344  0.00  0.00    +0.000 HD
ATOM     27  H   UNL     1      50.094   7.279  10.543  0.00  0.00    +0.000 HD
ENDBRANCH  17  24
ENDBRANCH  15  20
ENDBRANCH   1  15
TORSDOF 5
ENDMDL
MODEL 6
REMARK VINA RESULT:    -7.865      3.831      7.224
REMARK INTER + INTRA:         -11.099
REMARK INTER:                 -10.537
REMARK INTRA:                  -0.562
REMARK UNBOUND:                -0.935
REMARK  Name = 
REMARK  5 active torsions:
REMARK  status: ('A' for Active; 'I' for Inactive)
REMARK    1  A    between atoms: C_2  and  C_4
REMARK    2  A    between atoms: C_7  and  N_8
REMARK    3  A    between atoms: N_8  and  C_9
REMARK    4  A    between atoms: C_9  and  C_10
REMARK    5  A    between atoms: C_14  and  C_15
REMARK                            x       y       z     vdW  Elec       q    Type
REMARK                         _______ _______ _______ _____ _____    ______ ____
ROOT
ATOM      1  C   UNL     1      44.559   6.568  11.742  0.00  0.00    +0.000 C 
ENDROOT
BRANCH   1   2
ATOM      2  C   UNL     1      44.333   5.177  11.223  0.00  0.00    +0.000 A 
ATOM      3  C   UNL     1      43.375   4.345  11.776  0.00  0.00    +0.000 A 
ATOM      4  N   UNL     1      43.120   3.100  11.328  0.00  0.00    +0.000 NA
ATOM      5  C   UNL     1      43.865   2.663  10.279  0.00  0.00    +0.000 A 
ATOM      6  C   UNL     1      44.851   3.400   9.619  0.00  0.00    +0.000 A 
ATOM      7  C   UNL     1      45.054   4.694  10.118  0.00  0.00    +0.000 A 
BRANCH   6   8
ATOM      8  C   UNL     1      45.646   2.848   8.496  0.00  0.00    +0.000 A 
ATOM      9  C   UNL     1      46.110   3.673   7.448  0.00  0.00    +0.000 A 
ATOM     10  C   UNL     1      46.891   3.170   6.401  0.00  0.00    +0.000 A 
ATOM     11  C   UNL     1      47.238   1.825   6.379  0.00  0.00    +0.000 A 
ATOM     12  C   UNL     1      46.786   0.996   7.394  0.00  0.00    +0.000 A 
ATOM     13  F   UNL     1      47.120  -0.301   7.382  0.00  0.00    +0.000 F 
ATOM     14  C   UNL     1      45.996   1.488   8.434  0.00  0.00    +0.000 A 
ENDBRANCH   6   8
ENDBRANCH   1   2
BRANCH   1  15
ATOM     15  N   UNL     1      45.986   6.821  11.853  0.00  0.00    +0.000 N 
ATOM     16  H   UNL     1      46.484   6.836  10.967  0.00  0.00    +0.000 HD
BRANCH  15  20
ATOM     17  C   UNL     1      48.135   5.740  15.310  0.00  0.00    +0.000 A 
ATOM     18  C   UNL     1      47.156   4.883  14.812  0.00  0.00    +0.000 A 
ATOM     19  C   UNL     1      46.469   5.207  13.639  0.00  0.00    +0.000 A 
ATOM     20  C   UNL     1      46.743   6.382  12.931  0.00  0.00    +0.000 A 
ATOM     21  C   UNL     1      47.730   7.234  13.448  0.00  0.00    +0.000 A 
ATOM     22  C   UNL     1      48.421   6.923  14.627  0.00  0.00    +0.000 A 
BRANCH  17  24
ATOM     23  N   UNL     1      48.066   5.254  17.695  0.00  0.00    +0.000 N 
ATOM     24  C   UNL     1      48.841   5.453  16.586  0.00  0.00    +0.000 C 
ATOM     25  O   UNL     1      50.062   5.376  16.646  0.00  0.00    +0.000 OA
ATOM     26  H   UNL     1      48.551   4.985  18.542  0.00  0.00    +0.000 HD
ATOM     27  H   UNL     1      47.074   5.078  17.645  0.00  0.00    +0.000 HD
ENDBRANCH  17  24
ENDBRANCH  15  20
ENDBRANCH   1  15
TORSDOF 5
ENDMDL
MODEL 7
REMARK VINA RESULT:    -7.755      2.249      2.696
REMARK INTER + INTRA:         -10.957
REMARK INTER:                 -10.230
REMARK INTRA:                  -0.727
REMARK UNBOUND:                -0.935
REMARK  Name = 
REMARK  5 active torsions:
REMARK  status: ('A' for Active; 'I' for Inactive)
REMARK    1  A    between atoms: C_2  and  C_4
REMARK    2  A    between atoms: C_7  and  N_8
REMARK    3  A    between atoms: N_8  and  C_9
REMARK    4  A    between atoms: C_9  and  C_10
REMARK    5  A    between atoms: C_14  and  C_15
REMARK                            x       y       z     vdW  Elec       q    Type
REMARK                         _______ _______ _______ _____ _____    ______ ____
ROOT
ATOM      1  C   UNL     1      44.604   3.940  11.982  0.00  0.00    +0.000 C 
ENDROOT
BRANCH   1   2
ATOM      2  C   UNL     1      45.181   5.302  12.244  0.00  0.00    +0.000 A 
ATOM      3  C   UNL     1      44.546   6.453  11.809  0.00  0.00    +0.000 A 
ATOM      4  N   UNL     1      45.013   7.696  12.042  0.00  0.00    +0.000 NA
ATOM      5  C   UNL     1      46.175   7.792  12.739  0.00  0.00    +0.000 A 
ATOM      6  C   UNL     1      46.910   6.718  13.247  0.00  0.00    +0.000 A 
ATOM      7  C   UNL     1      46.362   5.454  12.990  0.00  0.00    +0.000 A 
BRANCH   6   8
ATOM      8  C   UNL     1      48.188   6.896  13.977  0.00  0.00    +0.000 A 
ATOM      9  C   UNL     1      49.268   7.606  13.408  0.00  0.00    +0.000 A 
ATOM     10  C   UNL     1      50.466   7.810  14.102  0.00  0.00    +0.000 A 
ATOM     11  C   UNL     1      50.613   7.316  15.393  0.00  0.00    +0.000 A 
ATOM     12  C   UNL     1      49.568   6.610  15.967  0.00  0.00    +0.000 A 
ATOM     13  F   UNL     1      49.701   6.134  17.212  0.00  0.00    +0.000 F 
ATOM     14  C   UNL     1      48.376   6.391  15.276  0.00  0.00    +0.000 A 
ENDBRANCH   6   8
ENDBRANCH   1   2
BRANCH   1  15
ATOM     15  N   UNL     1      44.054   3.894  10.638  0.00  0.00    +0.000 N 
ATOM     16  H   UNL     1      43.059   3.687  10.594  0.00  0.00    +0.000 HD
BRANCH  15  20
ATOM     17  C   UNL     1      46.548   2.668   7.474  0.00  0.00    +0.000 A 
ATOM     18  C   UNL     1      45.974   1.711   8.308  0.00  0.00    +0.000 A 
ATOM     19  C   UNL     1      45.106   2.101   9.331  0.00  0.00    +0.000 A 
ATOM     20  C   UNL     1      44.783   3.445   9.545  0.00  0.00    +0.000 A 
ATOM     21  C   UNL     1      45.373   4.395   8.697  0.00  0.00    +0.000 A 
ATOM     22  C   UNL     1      46.248   4.017   7.671  0.00  0.00    +0.000 A 
BRANCH  17  24
ATOM     23  N   UNL     1      47.499   3.023   5.260  0.00  0.00    +0.000 N 
ATOM     24  C   UNL     1      47.520   2.290   6.415  0.00  0.00    +0.000 C 
ATOM     25  O   UNL     1      48.321   1.377   6.568  0.00  0.00    +0.000 OA
ATOM     26  H   UNL     1      48.213   2.809   4.576  0.00  0.00    +0.000 HD
ATOM     27  H   UNL     1      47.028   3.913   5.186  0.00  0.00    +0.000 HD
ENDBRANCH  17  24
ENDBRANCH  15  20
ENDBRANCH   1  15
TORSDOF 5
ENDMDL
MODEL 8
REMARK VINA RESULT:    -7.515      1.379      1.891
REMARK INTER + INTRA:         -10.648
REMARK INTER:                  -9.799
REMARK INTRA:                  -0.848
REMARK UNBOUND:                -0.935
REMARK  Name = 
REMARK  5 active torsions:
REMARK  status: ('A' for Active; 'I' for Inactive)
REMARK    1  A    between atoms: C_2  and  C_4
REMARK    2  A    between atoms: C_7  and  N_8
REMARK    3  A    between atoms: N_8  and  C_9
REMARK    4  A    between atoms: C_9  and  C_10
REMARK    5  A    between atoms: C_14  and  C_15
REMARK                            x       y       z     vdW  Elec       q    Type
REMARK                         _______ _______ _______ _____ _____    ______ ____
ROOT
ATOM      1  C   UNL     1      45.245   4.716  11.966  0.00  0.00    +0.000 C 
ENDROOT
BRANCH   1   2
ATOM      2  C   UNL     1      45.656   6.157  12.063  0.00  0.00    +0.000 A 
ATOM      3  C   UNL     1      44.755   7.145  12.421  0.00  0.00    +0.000 A 
ATOM      4  N   UNL     1      45.084   8.446  12.544  0.00  0.00    +0.000 NA
ATOM      5  C   UNL     1      46.377   8.776  12.291  0.00  0.00    +0.000 A 
ATOM      6  C   UNL     1      47.390   7.883  11.935  0.00  0.00    +0.000 A 
ATOM      7  C   UNL     1      46.990   6.542  11.844  0.00  0.00    +0.000 A 
BRANCH   6   8
ATOM      8  C   UNL     1      48.777   8.318  11.647  0.00  0.00    +0.000 A 
ATOM      9  C   UNL     1      49.173   9.665  11.800  0.00  0.00    +0.000 A 
ATOM     10  C   UNL     1      50.489  10.081  11.564  0.00  0.00    +0.000 A 
ATOM     11  C   UNL     1      51.450   9.155  11.176  0.00  0.00    +0.000 A 
ATOM     12  C   UNL     1      51.081   7.829  11.013  0.00  0.00    +0.000 A 
ATOM     13  F   UNL     1      52.002   6.931  10.643  0.00  0.00    +0.000 F 
ATOM     14  C   UNL     1      49.768   7.410  11.233  0.00  0.00    +0.000 A 
ENDBRANCH   6   8
ENDBRANCH   1   2
BRANCH   1  15
ATOM     15  N   UNL     1      44.505   4.501  10.734  0.00  0.00    +0.000 N 
ATOM     16  H   UNL     1      43.512   4.319  10.862  0.00  0.00    +0.000 HD
BRANCH  15  20
ATOM     17  C   UNL     1      46.509   2.735   7.478  0.00  0.00    +0.000 A 
ATOM     18  C   UNL     1      45.887   1.924   8.426  0.00  0.00    +0.000 A 
ATOM     19  C   UNL     1      45.178   2.498   9.484  0.00  0.00    +0.000 A 
ATOM     20  C   UNL     1      45.063   3.885   9.622  0.00  0.00    +0.000 A 
ATOM     21  C   UNL     1      45.697   4.686   8.660  0.00  0.00    +0.000 A 
ATOM     22  C   UNL     1      46.416   4.123   7.598  0.00  0.00    +0.000 A 
BRANCH  17  24
ATOM     23  N   UNL     1      47.501   2.933   5.263  0.00  0.00    +0.000 N 
ATOM     24  C   UNL     1      47.319   2.157   6.375  0.00  0.00    +0.000 C 
ATOM     25  O   UNL     1      47.822   1.044   6.456  0.00  0.00    +0.000 OA
ATOM     26  H   UNL     1      48.115   2.562   4.550  0.00  0.00    +0.000 HD
ATOM     27  H   UNL     1      47.308   3.924   5.250  0.00  0.00    +0.000 HD
ENDBRANCH  17  24
ENDBRANCH  15  20
ENDBRANCH   1  15
TORSDOF 5
ENDMDL
MODEL 9
REMARK VINA RESULT:    -7.273      4.611      8.173
REMARK INTER + INTRA:         -10.334
REMARK INTER:                  -9.804
REMARK INTRA:                  -0.531
REMARK UNBOUND:                -0.935
REMARK  Name = 
REMARK  5 active torsions:
REMARK  status: ('A' for Active; 'I' for Inactive)
REMARK    1  A    between atoms: C_2  and  C_4
REMARK    2  A    between atoms: C_7  and  N_8
REMARK    3  A    between atoms: N_8  and  C_9
REMARK    4  A    between atoms: C_9  and  C_10
REMARK    5  A    between atoms: C_14  and  C_15
REMARK                            x       y       z     vdW  Elec       q    Type
REMARK                         _______ _______ _______ _____ _____    ______ ____
ROOT
ATOM      1  C   UNL     1      46.148   5.397  13.874  0.00  0.00    +0.000 C 
ENDROOT
BRANCH   1   2
ATOM      2  C   UNL     1      45.252   5.061  12.716  0.00  0.00    +0.000 A 
ATOM      3  C   UNL     1      43.899   5.354  12.739  0.00  0.00    +0.000 A 
ATOM      4  N   UNL     1      43.062   5.095  11.715  0.00  0.00    +0.000 NA
ATOM      5  C   UNL     1      43.604   4.507  10.616  0.00  0.00    +0.000 A 
ATOM      6  C   UNL     1      44.950   4.170  10.454  0.00  0.00    +0.000 A 
ATOM      7  C   UNL     1      45.772   4.485  11.546  0.00  0.00    +0.000 A 
BRANCH   6   8
ATOM      8  C   UNL     1      45.468   3.504   9.236  0.00  0.00    +0.000 A 
ATOM      9  C   UNL     1      45.882   4.248   8.110  0.00  0.00    +0.000 A 
ATOM     10  C   UNL     1      46.406   3.631   6.968  0.00  0.00    +0.000 A 
ATOM     11  C   UNL     1      46.538   2.248   6.925  0.00  0.00    +0.000 A 
ATOM     12  C   UNL     1      46.130   1.499   8.017  0.00  0.00    +0.000 A 
ATOM     13  F   UNL     1      46.257   0.166   7.984  0.00  0.00    +0.000 F 
ATOM     14  C   UNL     1      45.594   2.106   9.153  0.00  0.00    +0.000 A 
ENDBRANCH   6   8
ENDBRANCH   1   2
BRANCH   1  15
ATOM     15  N   UNL     1      46.470   4.185  14.609  0.00  0.00    +0.000 N 
ATOM     16  H   UNL     1      45.741   3.475  14.595  0.00  0.00    +0.000 HD
BRANCH  15  20
ATOM     17  C   UNL     1      48.602   4.438  18.232  0.00  0.00    +0.000 A 
ATOM     18  C   UNL     1      47.912   3.269  17.920  0.00  0.00    +0.000 A 
ATOM     19  C   UNL     1      47.240   3.153  16.700  0.00  0.00    +0.000 A 
ATOM     20  C   UNL     1      47.246   4.190  15.760  0.00  0.00    +0.000 A 
ATOM     21  C   UNL     1      47.944   5.361  16.092  0.00  0.00    +0.000 A 
ATOM     22  C   UNL     1      48.616   5.490  17.315  0.00  0.00    +0.000 A 
BRANCH  17  24
ATOM     23  N   UNL     1      48.680   4.039  20.633  0.00  0.00    +0.000 N 
ATOM     24  C   UNL     1      49.276   4.614  19.544  0.00  0.00    +0.000 C 
ATOM     25  O   UNL     1      50.330   5.228  19.653  0.00  0.00    +0.000 OA
ATOM     26  H   UNL     1      49.185   4.099  21.508  0.00  0.00    +0.000 HD
ATOM     27  H   UNL     1      47.955   3.341  20.554  0.00  0.00    +0.000 HD
ENDBRANCH  17  24
ENDBRANCH  15  20
ENDBRANCH   1  15
TORSDOF 5
ENDMDL
