MODEL 1
REMARK VINA RESULT:    -8.910      0.000      0.000
REMARK INTER + INTRA:         -13.321
REMARK INTER:                 -12.557
REMARK INTRA:                  -0.764
REMARK UNBOUND:                -0.764
REMARK  Name = 
REMARK  7 active torsions:
REMARK  status: ('A' for Active; 'I' for Inactive)
REMARK    1  A    between atoms: C_2  and  C_4
REMARK    2  A    between atoms: C_7  and  N_8
REMARK    3  A    between atoms: N_8  and  C_9
REMARK    4  A    between atoms: C_9  and  C_10
REMARK    5  A    between atoms: C_10  and  C_13
REMARK    6  A    between atoms: C_17  and  C_18
REMARK    7  A    between atoms: C_18  and  C_19
REMARK                            x       y       z     vdW  Elec       q    Type
REMARK                         _______ _______ _______ _____ _____    ______ ____
ROOT
ATOM      1  C   UNL     1      43.302   4.352  11.185  0.00  0.00    +0.000 C 
ENDROOT
BRANCH   1   2
ATOM      2  C   UNL     1      43.451   5.498  12.215  0.00  0.00    +0.000 C 
ATOM      3  F   UNL     1      42.960   6.646  11.654  0.00  0.00    +0.000 F 
ATOM      4  F   UNL     1      42.638   5.246  13.285  0.00  0.00    +0.000 F 
BRANCH   2   5
ATOM      5  C   UNL     1      44.905   5.616  12.615  0.00  0.00    +0.000 A 
ATOM      6  C   UNL     1      45.652   6.729  12.203  0.00  0.00    +0.000 A 
ATOM      7  C   UNL     1      46.956   6.902  12.651  0.00  0.00    +0.000 A 
ATOM      8  C   UNL     1      47.524   5.977  13.530  0.00  0.00    +0.000 A 
ATOM      9  C   UNL     1      46.806   4.848  13.954  0.00  0.00    +0.000 A 
ATOM     10  C   UNL     1      45.500   4.671  13.471  0.00  0.00    +0.000 A 
BRANCH   9  11
ATOM     11  C   UNL     1      47.405   3.822  14.895  0.00  0.00    +0.000 C 
BRANCH  11  12
ATOM     12  C   UNL     1      47.106   4.139  16.360  0.00  0.00    +0.000 C 
ATOM     13  C   UNL     1      48.134   5.058  17.058  0.00  0.00    +0.000 C 
ATOM     14  N   UNL     1      48.239   4.113  18.174  0.00  0.00    +0.000 NA
ATOM     15  C   UNL     1      47.463   3.103  17.446  0.00  0.00    +0.000 C 
ATOM     16  H   UNL     1      47.799   4.438  19.034  0.00  0.00    +0.000 HD
ENDBRANCH  11  12
ENDBRANCH   9  11
ENDBRANCH   2   5
ENDBRANCH   1   2
BRANCH   1  17
ATOM     17  N   UNL     1      43.736   4.731   9.829  0.00  0.00    +0.000 N 
ATOM     18  H   UNL     1      43.813   5.736   9.685  0.00  0.00    +0.000 HD
BRANCH  17  22
ATOM     19  C   UNL     1      46.667   2.593   7.673  0.00  0.00    +0.000 A 
ATOM     20  C   UNL     1      46.570   3.986   7.589  0.00  0.00    +0.000 A 
ATOM     21  C   UNL     1      45.603   4.667   8.337  0.00  0.00    +0.000 A 
ATOM     22  C   UNL     1      44.724   3.981   9.186  0.00  0.00    +0.000 A 
ATOM     23  C   UNL     1      44.819   2.576   9.212  0.00  0.00    +0.000 A 
ATOM     24  F   UNL     1      44.000   1.842   9.983  0.00  0.00    +0.000 F 
ATOM     25  C   UNL     1      45.774   1.886   8.473  0.00  0.00    +0.000 A 
BRANCH  19  27
ATOM     26  N   UNL     1      48.667   2.571   6.314  0.00  0.00    +0.000 N 
ATOM     27  C   UNL     1      47.691   1.835   6.926  0.00  0.00    +0.000 C 
ATOM     28  O   UNL     1      47.696   0.610   6.890  0.00  0.00    +0.000 OA
ATOM     29  H   UNL     1      49.427   2.047   5.899  0.00  0.00    +0.000 HD
ATOM     30  H   UNL     1      48.828   3.540   6.530  0.00  0.00    +0.000 HD
ENDBRANCH  19  27
ENDBRANCH  17  22
ENDBRANCH   1  17
TORSDOF 7
ENDMDL
MODEL 2
REMARK VINA RESULT:    -8.499      2.114      3.275
REMARK INTER + INTRA:         -12.741
REMARK INTER:                 -11.689
REMARK INTRA:                  -1.052
REMARK UNBOUND:                -0.764
REMARK  Name = 
REMARK  7 active torsions:
REMARK  status: ('A' for Active; 'I' for Inactive)
REMARK    1  A    between atoms: C_2  and  C_4
REMARK    2  A    between atoms: C_7  and  N_8
REMARK    3  A    between atoms: N_8  and  C_9
REMARK    4  A    between atoms: C_9  and  C_10
REMARK    5  A    between atoms: C_10  and  C_13
REMARK    6  A    between atoms: C_17  and  C_18
REMARK    7  A    between atoms: C_18  and  C_19
REMARK                            x       y       z     vdW  Elec       q    Type
REMARK                         _______ _______ _______ _____ _____    ______ ____
ROOT
ATOM      1  C   UNL     1      43.446   4.043  11.393  0.00  0.00    +0.000 C 
ENDROOT
BRANCH   1   2
ATOM      2  C   UNL     1      43.477   5.348  12.225  0.00  0.00    +0.000 C 
ATOM      3  F   UNL     1      42.947   6.355  11.464  0.00  0.00    +0.000 F 
ATOM      4  F   UNL     1      42.630   5.219  13.290  0.00  0.00    +0.000 F 
BRANCH   2   5
ATOM      5  C   UNL     1      44.901   5.626  12.655  0.00  0.00    +0.000 A 
ATOM      6  C   UNL     1      45.564   4.718  13.492  0.00  0.00    +0.000 A 
ATOM      7  C   UNL     1      46.904   4.908  13.809  0.00  0.00    +0.000 A 
ATOM      8  C   UNL     1      47.603   5.995  13.280  0.00  0.00    +0.000 A 
ATOM      9  C   UNL     1      46.964   6.927  12.446  0.00  0.00    +0.000 A 
ATOM     10  C   UNL     1      45.604   6.739  12.158  0.00  0.00    +0.000 A 
BRANCH   9  11
ATOM     11  C   UNL     1      47.696   8.123  11.872  0.00  0.00    +0.000 C 
BRANCH  11  12
ATOM     12  C   UNL     1      49.166   8.158  12.294  0.00  0.00    +0.000 C 
ATOM     13  C   UNL     1      49.848   9.541  12.186  0.00  0.00    +0.000 C 
ATOM     14  N   UNL     1      50.963   8.944  11.445  0.00  0.00    +0.000 NA
ATOM     15  C   UNL     1      50.248   7.671  11.308  0.00  0.00    +0.000 C 
ATOM     16  H   UNL     1      51.830   8.881  11.979  0.00  0.00    +0.000 HD
ENDBRANCH  11  12
ENDBRANCH   9  11
ENDBRANCH   2   5
ENDBRANCH   1   2
BRANCH   1  17
ATOM     17  N   UNL     1      43.573   4.275   9.944  0.00  0.00    +0.000 N 
ATOM     18  H   UNL     1      43.368   5.231   9.659  0.00  0.00    +0.000 HD
BRANCH  17  22
ATOM     19  C   UNL     1      46.674   2.615   7.612  0.00  0.00    +0.000 A 
ATOM     20  C   UNL     1      46.471   3.998   7.678  0.00  0.00    +0.000 A 
ATOM     21  C   UNL     1      45.450   4.517   8.481  0.00  0.00    +0.000 A 
ATOM     22  C   UNL     1      44.620   3.678   9.238  0.00  0.00    +0.000 A 
ATOM     23  C   UNL     1      44.823   2.290   9.112  0.00  0.00    +0.000 A 
ATOM     24  F   UNL     1      44.058   1.416   9.787  0.00  0.00    +0.000 F 
ATOM     25  C   UNL     1      45.834   1.759   8.317  0.00  0.00    +0.000 A 
BRANCH  19  27
ATOM     26  N   UNL     1      48.673   2.896   6.281  0.00  0.00    +0.000 N 
ATOM     27  C   UNL     1      47.758   2.024   6.802  0.00  0.00    +0.000 C 
ATOM     28  O   UNL     1      47.862   0.814   6.639  0.00  0.00    +0.000 OA
ATOM     29  H   UNL     1      49.475   2.480   5.822  0.00  0.00    +0.000 HD
ATOM     30  H   UNL     1      48.755   3.846   6.598  0.00  0.00    +0.000 HD
ENDBRANCH  19  27
ENDBRANCH  17  22
ENDBRANCH   1  17
TORSDOF 7
ENDMDL
MODEL 3
REMARK VINA RESULT:    -8.175      1.591      2.133
REMARK INTER + INTRA:         -12.285
REMARK INTER:                 -11.255
REMARK INTRA:                  -1.030
REMARK UNBOUND:                -0.764
REMARK  Name = 
REMARK  7 active torsions:
REMARK  status: ('A' for Active; 'I' for Inactive)
REMARK    1  A    between atoms: C_2  and  C_4
REMARK    2  A    between atoms: C_7  and  N_8
REMARK    3  A    between atoms: N_8  and  C_9
REMARK    4  A    between atoms: C_9  and  C_10
REMARK    5  A    between atoms: C_10  and  C_13
REMARK    6  A    between atoms: C_17  and  C_18
REMARK    7  A    between atoms: C_18  and  C_19
REMARK                            x       y       z     vdW  Elec       q    Type
REMARK                         _______ _______ _______ _____ _____    ______ ____
ROOT
ATOM      1  C   UNL     1      43.801   5.303  11.096  0.00  0.00    +0.000 C 
ENDROOT
BRANCH   1   2
ATOM      2  C   UNL     1      44.930   6.286  11.489  0.00  0.00    +0.000 C 
ATOM      3  F   UNL     1      45.644   6.593  10.362  0.00  0.00    +0.000 F 
ATOM      4  F   UNL     1      44.373   7.468  11.892  0.00  0.00    +0.000 F 
BRANCH   2   5
ATOM      5  C   UNL     1      45.780   5.655  12.569  0.00  0.00    +0.000 A 
ATOM      6  C   UNL     1      45.733   4.268  12.770  0.00  0.00    +0.000 A 
ATOM      7  C   UNL     1      46.586   3.664  13.686  0.00  0.00    +0.000 A 
ATOM      8  C   UNL     1      47.509   4.432  14.398  0.00  0.00    +0.000 A 
ATOM      9  C   UNL     1      47.575   5.824  14.226  0.00  0.00    +0.000 A 
ATOM     10  C   UNL     1      46.688   6.425  13.319  0.00  0.00    +0.000 A 
BRANCH   9  11
ATOM     11  C   UNL     1      48.556   6.682  14.998  0.00  0.00    +0.000 C 
BRANCH  11  12
ATOM     12  C   UNL     1      49.022   6.008  16.289  0.00  0.00    +0.000 C 
ATOM     13  C   UNL     1      48.653   6.755  17.591  0.00  0.00    +0.000 C 
ATOM     14  N   UNL     1      50.042   6.660  18.052  0.00  0.00    +0.000 NA
ATOM     15  C   UNL     1      50.488   6.172  16.742  0.00  0.00    +0.000 C 
ATOM     16  H   UNL     1      50.182   5.998  18.814  0.00  0.00    +0.000 HD
ENDBRANCH  11  12
ENDBRANCH   9  11
ENDBRANCH   2   5
ENDBRANCH   1   2
BRANCH   1  17
ATOM     17  N   UNL     1      43.783   4.985   9.657  0.00  0.00    +0.000 N 
ATOM     18  H   UNL     1      43.712   5.803   9.054  0.00  0.00    +0.000 HD
BRANCH  17  22
ATOM     19  C   UNL     1      46.239   2.019   7.929  0.00  0.00    +0.000 A 
ATOM     20  C   UNL     1      46.308   3.355   7.518  0.00  0.00    +0.000 A 
ATOM     21  C   UNL     1      45.498   4.318   8.129  0.00  0.00    +0.000 A 
ATOM     22  C   UNL     1      44.614   3.977   9.163  0.00  0.00    +0.000 A 
ATOM     23  C   UNL     1      44.538   2.616   9.520  0.00  0.00    +0.000 A 
ATOM     24  F   UNL     1      43.701   2.202  10.487  0.00  0.00    +0.000 F 
ATOM     25  C   UNL     1      45.336   1.648   8.921  0.00  0.00    +0.000 A 
BRANCH  19  27
ATOM     26  N   UNL     1      46.800  -0.318   7.670  0.00  0.00    +0.000 N 
ATOM     27  C   UNL     1      47.096   0.974   7.334  0.00  0.00    +0.000 C 
ATOM     28  O   UNL     1      47.995   1.241   6.546  0.00  0.00    +0.000 OA
ATOM     29  H   UNL     1      47.314  -1.037   7.175  0.00  0.00    +0.000 HD
ATOM     30  H   UNL     1      45.932  -0.578   8.105  0.00  0.00    +0.000 HD
ENDBRANCH  19  27
ENDBRANCH  17  22
ENDBRANCH   1  17
TORSDOF 7
ENDMDL
MODEL 4
REMARK VINA RESULT:    -8.013      3.268      7.504
REMARK INTER + INTRA:         -12.056
REMARK INTER:                 -10.995
REMARK INTRA:                  -1.061
REMARK UNBOUND:                -0.764
REMARK  Name = 
REMARK  7 active torsions:
REMARK  status: ('A' for Active; 'I' for Inactive)
REMARK    1  A    between atoms: C_2  and  C_4
REMARK    2  A    between atoms: C_7  and  N_8
REMARK    3  A    between atoms: N_8  and  C_9
REMARK    4  A    between atoms: C_9  and  C_10
REMARK    5  A    between atoms: C_10  and  C_13
REMARK    6  A    between atoms: C_17  and  C_18
REMARK    7  A    between atoms: C_18  and  C_19
REMARK                            x       y       z     vdW  Elec       q    Type
REMARK                         _______ _______ _______ _____ _____    ______ ____
ROOT
ATOM      1  C   UNL     1      44.797   5.611  12.890  0.00  0.00    +0.000 C 
ENDROOT
BRANCH   1   2
ATOM      2  C   UNL     1      44.256   5.894  11.467  0.00  0.00    +0.000 C 
ATOM      3  F   UNL     1      42.913   6.142  11.559  0.00  0.00    +0.000 F 
ATOM      4  F   UNL     1      44.804   7.058  11.004  0.00  0.00    +0.000 F 
BRANCH   2   5
ATOM      5  C   UNL     1      44.575   4.715  10.574  0.00  0.00    +0.000 A 
ATOM      6  C   UNL     1      43.959   3.478  10.808  0.00  0.00    +0.000 A 
ATOM      7  C   UNL     1      44.162   2.418   9.933  0.00  0.00    +0.000 A 
ATOM      8  C   UNL     1      44.967   2.584   8.804  0.00  0.00    +0.000 A 
ATOM      9  C   UNL     1      45.606   3.808   8.547  0.00  0.00    +0.000 A 
ATOM     10  C   UNL     1      45.415   4.861   9.454  0.00  0.00    +0.000 A 
BRANCH   9  11
ATOM     11  C   UNL     1      46.496   4.009   7.337  0.00  0.00    +0.000 C 
BRANCH  11  12
ATOM     12  C   UNL     1      46.716   2.711   6.559  0.00  0.00    +0.000 C 
ATOM     13  C   UNL     1      47.982   1.916   6.951  0.00  0.00    +0.000 C 
ATOM     14  N   UNL     1      48.372   1.822   5.541  0.00  0.00    +0.000 NA
ATOM     15  C   UNL     1      47.327   2.772   5.144  0.00  0.00    +0.000 C 
ATOM     16  H   UNL     1      48.263   0.890   5.142  0.00  0.00    +0.000 HD
ENDBRANCH  11  12
ENDBRANCH   9  11
ENDBRANCH   2   5
ENDBRANCH   1   2
BRANCH   1  17
ATOM     17  N   UNL     1      46.137   4.999  12.890  0.00  0.00    +0.000 N 
ATOM     18  H   UNL     1      46.294   4.347  12.124  0.00  0.00    +0.000 HD
BRANCH  17  22
ATOM     19  C   UNL     1      49.371   7.429  14.092  0.00  0.00    +0.000 A 
ATOM     20  C   UNL     1      48.702   6.602  15.001  0.00  0.00    +0.000 A 
ATOM     21  C   UNL     1      47.650   5.789  14.565  0.00  0.00    +0.000 A 
ATOM     22  C   UNL     1      47.250   5.775  13.221  0.00  0.00    +0.000 A 
ATOM     23  C   UNL     1      47.914   6.654  12.343  0.00  0.00    +0.000 A 
ATOM     24  F   UNL     1      47.578   6.718  11.044  0.00  0.00    +0.000 F 
ATOM     25  C   UNL     1      48.961   7.468  12.763  0.00  0.00    +0.000 A 
BRANCH  19  27
ATOM     26  N   UNL     1      51.756   7.757  14.321  0.00  0.00    +0.000 N 
ATOM     27  C   UNL     1      50.506   8.281  14.501  0.00  0.00    +0.000 C 
ATOM     28  O   UNL     1      50.344   9.415  14.937  0.00  0.00    +0.000 OA
ATOM     29  H   UNL     1      52.532   8.383  14.496  0.00  0.00    +0.000 HD
ATOM     30  H   UNL     1      51.925   6.950  13.746  0.00  0.00    +0.000 HD
ENDBRANCH  19  27
ENDBRANCH  17  22
ENDBRANCH   1  17
TORSDOF 7
ENDMDL
MODEL 5
REMARK VINA RESULT:    -7.696      3.060      7.854
REMARK INTER + INTRA:         -11.610
REMARK INTER:                 -10.657
REMARK INTRA:                  -0.954
REMARK UNBOUND:                -0.764
REMARK  Name = 
REMARK  7 active torsions:
REMARK  status: ('A' for Active; 'I' for Inactive)
REMARK    1  A    between atoms: C_2  and  C_4
REMARK    2  A    between atoms: C_7  and  N_8
REMARK    3  A    between atoms: N_8  and  C_9
REMARK    4  A    between atoms: C_9  and  C_10
REMARK    5  A    between atoms: C_10  and  C_13
REMARK    6  A    between atoms: C_17  and  C_18
REMARK    7  A    between atoms: C_18  and  C_19
REMARK                            x       y       z     vdW  Elec       q    Type
REMARK                         _______ _______ _______ _____ _____    ______ ____
ROOT
ATOM      1  C   UNL     1      46.931   6.327  12.171  0.00  0.00    +0.000 C 
ENDROOT
BRANCH   1   2
ATOM      2  C   UNL     1      45.455   6.329  11.708  0.00  0.00    +0.000 C 
ATOM      3  F   UNL     1      44.659   6.496  12.809  0.00  0.00    +0.000 F 
ATOM      4  F   UNL     1      45.231   7.434  10.934  0.00  0.00    +0.000 F 
BRANCH   2   5
ATOM      5  C   UNL     1      45.168   5.042  10.966  0.00  0.00    +0.000 A 
ATOM      6  C   UNL     1      44.412   4.037  11.585  0.00  0.00    +0.000 A 
ATOM      7  C   UNL     1      44.052   2.896  10.878  0.00  0.00    +0.000 A 
ATOM      8  C   UNL     1      44.425   2.753   9.540  0.00  0.00    +0.000 A 
ATOM      9  C   UNL     1      45.190   3.737   8.895  0.00  0.00    +0.000 A 
ATOM     10  C   UNL     1      45.571   4.871   9.629  0.00  0.00    +0.000 A 
BRANCH   9  11
ATOM     11  C   UNL     1      45.621   3.599   7.448  0.00  0.00    +0.000 C 
BRANCH  11  12
ATOM     12  C   UNL     1      47.008   2.969   7.317  0.00  0.00    +0.000 C 
ATOM     13  C   UNL     1      47.499   2.758   5.867  0.00  0.00    +0.000 C 
ATOM     14  N   UNL     1      47.837   1.364   6.173  0.00  0.00    +0.000 NA
ATOM     15  C   UNL     1      47.164   1.442   7.474  0.00  0.00    +0.000 C 
ATOM     16  H   UNL     1      48.839   1.183   6.231  0.00  0.00    +0.000 HD
ENDBRANCH  11  12
ENDBRANCH   9  11
ENDBRANCH   2   5
ENDBRANCH   1   2
BRANCH   1  17
ATOM     17  N   UNL     1      47.112   6.857  13.534  0.00  0.00    +0.000 N 
ATOM     18  H   UNL     1      46.382   7.503  13.827  0.00  0.00    +0.000 HD
BRANCH  17  22
ATOM     19  C   UNL     1      48.260   4.250  16.648  0.00  0.00    +0.000 A 
ATOM     20  C   UNL     1      47.312   3.872  15.691  0.00  0.00    +0.000 A 
ATOM     21  C   UNL     1      46.973   4.750  14.657  0.00  0.00    +0.000 A 
ATOM     22  C   UNL     1      47.573   6.013  14.547  0.00  0.00    +0.000 A 
ATOM     23  C   UNL     1      48.488   6.379  15.553  0.00  0.00    +0.000 A 
ATOM     24  F   UNL     1      49.092   7.579  15.533  0.00  0.00    +0.000 F 
ATOM     25  C   UNL     1      48.834   5.517  16.588  0.00  0.00    +0.000 A 
BRANCH  19  27
ATOM     26  N   UNL     1      47.888   3.349  18.861  0.00  0.00    +0.000 N 
ATOM     27  C   UNL     1      48.672   3.345  17.741  0.00  0.00    +0.000 C 
ATOM     28  O   UNL     1      49.636   2.597  17.636  0.00  0.00    +0.000 OA
ATOM     29  H   UNL     1      48.106   2.650  19.560  0.00  0.00    +0.000 HD
ATOM     30  H   UNL     1      46.970   3.757  18.877  0.00  0.00    +0.000 HD
ENDBRANCH  19  27
ENDBRANCH  17  22
ENDBRANCH   1  17
TORSDOF 7
ENDMDL
MODEL 6
REMARK VINA RESULT:    -7.363      1.975      2.232
REMARK INTER + INTRA:         -11.140
REMARK INTER:                 -10.028
REMARK INTRA:                  -1.113
REMARK UNBOUND:                -0.764
REMARK  Name = 
REMARK  7 active torsions:
REMARK  status: ('A' for Active; 'I' for Inactive)
REMARK    1  A    between atoms: C_2  and  C_4
REMARK    2  A    between atoms: C_7  and  N_8
REMARK    3  A    between atoms: N_8  and  C_9
REMARK    4  A    between atoms: C_9  and  C_10
REMARK    5  A    between atoms: C_10  and  C_13
REMARK    6  A    between atoms: C_17  and  C_18
REMARK    7  A    between atoms: C_18  and  C_19
REMARK                            x       y       z     vdW  Elec       q    Type
REMARK                         _______ _______ _______ _____ _____    ______ ____
ROOT
ATOM      1  C   UNL     1      44.109   3.585  11.827  0.00  0.00    +0.000 C 
ENDROOT
BRANCH   1   2
ATOM      2  C   UNL     1      43.584   4.938  12.363  0.00  0.00    +0.000 C 
ATOM      3  F   UNL     1      42.514   5.318  11.598  0.00  0.00    +0.000 F 
ATOM      4  F   UNL     1      43.078   4.756  13.620  0.00  0.00    +0.000 F 
BRANCH   2   5
ATOM      5  C   UNL     1      44.709   5.950  12.340  0.00  0.00    +0.000 A 
ATOM      6  C   UNL     1      44.502   7.206  11.753  0.00  0.00    +0.000 A 
ATOM      7  C   UNL     1      45.491   8.180  11.819  0.00  0.00    +0.000 A 
ATOM      8  C   UNL     1      46.690   7.919  12.486  0.00  0.00    +0.000 A 
ATOM      9  C   UNL     1      46.931   6.668  13.075  0.00  0.00    +0.000 A 
ATOM     10  C   UNL     1      45.935   5.684  12.977  0.00  0.00    +0.000 A 
BRANCH   9  11
ATOM     11  C   UNL     1      48.230   6.355  13.791  0.00  0.00    +0.000 C 
BRANCH  11  12
ATOM     12  C   UNL     1      48.638   7.465  14.759  0.00  0.00    +0.000 C 
ATOM     13  C   UNL     1      50.021   8.098  14.488  0.00  0.00    +0.000 C 
ATOM     14  N   UNL     1      50.395   7.911  15.893  0.00  0.00    +0.000 NA
ATOM     15  C   UNL     1      49.205   7.091  16.144  0.00  0.00    +0.000 C 
ATOM     16  H   UNL     1      50.427   8.776  16.433  0.00  0.00    +0.000 HD
ENDBRANCH  11  12
ENDBRANCH   9  11
ENDBRANCH   2   5
ENDBRANCH   1   2
BRANCH   1  17
ATOM     17  N   UNL     1      43.675   3.298  10.449  0.00  0.00    +0.000 N 
ATOM     18  H   UNL     1      42.849   3.819  10.160  0.00  0.00    +0.000 HD
BRANCH  17  22
ATOM     19  C   UNL     1      46.458   2.994   7.292  0.00  0.00    +0.000 A 
ATOM     20  C   UNL     1      46.164   4.225   7.890  0.00  0.00    +0.000 A 
ATOM     21  C   UNL     1      45.255   4.287   8.952  0.00  0.00    +0.000 A 
ATOM     22  C   UNL     1      44.631   3.133   9.445  0.00  0.00    +0.000 A 
ATOM     23  C   UNL     1      44.915   1.918   8.790  0.00  0.00    +0.000 A 
ATOM     24  F   UNL     1      44.343   0.769   9.186  0.00  0.00    +0.000 F 
ATOM     25  C   UNL     1      45.815   1.841   7.732  0.00  0.00    +0.000 A 
BRANCH  19  27
ATOM     26  N   UNL     1      48.723   2.596   6.544  0.00  0.00    +0.000 N 
ATOM     27  C   UNL     1      47.433   2.876   6.188  0.00  0.00    +0.000 C 
ATOM     28  O   UNL     1      47.101   2.977   5.014  0.00  0.00    +0.000 OA
ATOM     29  H   UNL     1      49.364   2.404   5.784  0.00  0.00    +0.000 HD
ATOM     30  H   UNL     1      48.971   2.266   7.461  0.00  0.00    +0.000 HD
ENDBRANCH  19  27
ENDBRANCH  17  22
ENDBRANCH   1  17
TORSDOF 7
ENDMDL
MODEL 7
REMARK VINA RESULT:    -6.998      3.298      4.772
REMARK INTER + INTRA:         -10.626
REMARK INTER:                  -9.256
REMARK INTRA:                  -1.369
REMARK UNBOUND:                -0.764
REMARK  Name = 
REMARK  7 active torsions:
REMARK  status: ('A' for Active; 'I' for Inactive)
REMARK    1  A    between atoms: C_2  and  C_4
REMARK    2  A    between atoms: C_7  and  N_8
REMARK    3  A    between atoms: N_8  and  C_9
REMARK    4  A    between atoms: C_9  and  C_10
REMARK    5  A    between atoms: C_10  and  C_13
REMARK    6  A    between atoms: C_17  and  C_18
REMARK    7  A    between atoms: C_18  and  C_19
REMARK                            x       y       z     vdW  Elec       q    Type
REMARK                         _______ _______ _______ _____ _____    ______ ____
ROOT
ATOM      1  C   UNL     1      47.096   8.357  12.594  0.00  0.00    +0.000 C 
ENDROOT
BRANCH   1   2
ATOM      2  C   UNL     1      48.517   7.880  12.979  0.00  0.00    +0.000 C 
ATOM      3  F   UNL     1      48.701   6.622  12.470  0.00  0.00    +0.000 F 
ATOM      4  F   UNL     1      49.439   8.662  12.341  0.00  0.00    +0.000 F 
BRANCH   2   5
ATOM      5  C   UNL     1      48.664   7.931  14.484  0.00  0.00    +0.000 A 
ATOM      6  C   UNL     1      48.342   9.108  15.174  0.00  0.00    +0.000 A 
ATOM      7  C   UNL     1      48.372   9.134  16.564  0.00  0.00    +0.000 A 
ATOM      8  C   UNL     1      48.705   7.983  17.281  0.00  0.00    +0.000 A 
ATOM      9  C   UNL     1      49.041   6.792  16.618  0.00  0.00    +0.000 A 
ATOM     10  C   UNL     1      49.035   6.787  15.214  0.00  0.00    +0.000 A 
BRANCH   9  11
ATOM     11  C   UNL     1      49.421   5.534  17.372  0.00  0.00    +0.000 C 
BRANCH  11  12
ATOM     12  C   UNL     1      48.519   4.352  17.016  0.00  0.00    +0.000 C 
ATOM     13  C   UNL     1      47.073   4.443  17.555  0.00  0.00    +0.000 C 
ATOM     14  N   UNL     1      47.181   3.089  18.107  0.00  0.00    +0.000 NA
ATOM     15  C   UNL     1      48.622   3.047  17.833  0.00  0.00    +0.000 C 
ATOM     16  H   UNL     1      46.640   2.390  17.600  0.00  0.00    +0.000 HD
ENDBRANCH  11  12
ENDBRANCH   9  11
ENDBRANCH   2   5
ENDBRANCH   1   2
BRANCH   1  17
ATOM     17  N   UNL     1      46.027   7.602  13.270  0.00  0.00    +0.000 N 
ATOM     18  H   UNL     1      45.288   8.188  13.656  0.00  0.00    +0.000 HD
BRANCH  17  22
ATOM     19  C   UNL     1      44.441   4.072  11.588  0.00  0.00    +0.000 A 
ATOM     20  C   UNL     1      44.208   5.325  11.010  0.00  0.00    +0.000 A 
ATOM     21  C   UNL     1      44.770   6.473  11.578  0.00  0.00    +0.000 A 
ATOM     22  C   UNL     1      45.578   6.399  12.722  0.00  0.00    +0.000 A 
ATOM     23  C   UNL     1      45.754   5.128  13.303  0.00  0.00    +0.000 A 
ATOM     24  F   UNL     1      46.497   4.973  14.412  0.00  0.00    +0.000 F 
ATOM     25  C   UNL     1      45.201   3.978  12.750  0.00  0.00    +0.000 A 
BRANCH  19  27
ATOM     26  N   UNL     1      44.570   2.309   9.937  0.00  0.00    +0.000 N 
ATOM     27  C   UNL     1      43.894   2.829  11.006  0.00  0.00    +0.000 C 
ATOM     28  O   UNL     1      42.914   2.266  11.479  0.00  0.00    +0.000 OA
ATOM     29  H   UNL     1      44.260   1.402   9.612  0.00  0.00    +0.000 HD
ATOM     30  H   UNL     1      45.498   2.604   9.690  0.00  0.00    +0.000 HD
ENDBRANCH  19  27
ENDBRANCH  17  22
ENDBRANCH   1  17
TORSDOF 7
ENDMDL
MODEL 8
REMARK VINA RESULT:    -6.884      3.727      8.202
REMARK INTER + INTRA:         -10.465
REMARK INTER:                  -9.618
REMARK INTRA:                  -0.847
REMARK UNBOUND:                -0.764
REMARK  Name = 
REMARK  7 active torsions:
REMARK  status: ('A' for Active; 'I' for Inactive)
REMARK    1  A    between atoms: C_2  and  C_4
REMARK    2  A    between atoms: C_7  and  N_8
REMARK    3  A    between atoms: N_8  and  C_9
REMARK    4  A    between atoms: C_9  and  C_10
REMARK    5  A    between atoms: C_10  and  C_13
REMARK    6  A    between atoms: C_17  and  C_18
REMARK    7  A    between atoms: C_18  and  C_19
REMARK                            x       y       z     vdW  Elec       q    Type
REMARK                         _______ _______ _______ _____ _____    ______ ____
ROOT
ATOM      1  C   UNL     1      47.019   4.611  14.252  0.00  0.00    +0.000 C 
ENDROOT
BRANCH   1   2
ATOM      2  C   UNL     1      46.678   5.703  13.210  0.00  0.00    +0.000 C 
ATOM      3  F   UNL     1      46.552   6.899  13.864  0.00  0.00    +0.000 F 
ATOM      4  F   UNL     1      47.744   5.867  12.369  0.00  0.00    +0.000 F 
BRANCH   2   5
ATOM      5  C   UNL     1      45.420   5.304  12.470  0.00  0.00    +0.000 A 
ATOM      6  C   UNL     1      44.168   5.509  13.067  0.00  0.00    +0.000 A 
ATOM      7  C   UNL     1      43.003   5.245  12.357  0.00  0.00    +0.000 A 
ATOM      8  C   UNL     1      43.072   4.792  11.037  0.00  0.00    +0.000 A 
ATOM      9  C   UNL     1      44.311   4.568  10.415  0.00  0.00    +0.000 A 
ATOM     10  C   UNL     1      45.480   4.811  11.153  0.00  0.00    +0.000 A 
BRANCH   9  11
ATOM     11  C   UNL     1      44.413   4.062   8.990  0.00  0.00    +0.000 C 
BRANCH  11  12
ATOM     12  C   UNL     1      45.773   3.427   8.700  0.00  0.00    +0.000 C 
ATOM     13  C   UNL     1      46.280   3.594   7.249  0.00  0.00    +0.000 C 
ATOM     14  N   UNL     1      46.550   2.155   7.166  0.00  0.00    +0.000 NA
ATOM     15  C   UNL     1      45.858   1.909   8.436  0.00  0.00    +0.000 C 
ATOM     16  H   UNL     1      47.542   1.918   7.177  0.00  0.00    +0.000 HD
ENDBRANCH  11  12
ENDBRANCH   9  11
ENDBRANCH   2   5
ENDBRANCH   1   2
BRANCH   1  17
ATOM     17  N   UNL     1      47.099   5.129  15.629  0.00  0.00    +0.000 N 
ATOM     18  H   UNL     1      46.210   5.123  16.126  0.00  0.00    +0.000 HD
BRANCH  17  22
ATOM     19  C   UNL     1      50.583   4.257  17.846  0.00  0.00    +0.000 A 
ATOM     20  C   UNL     1      50.396   5.505  17.241  0.00  0.00    +0.000 A 
ATOM     21  C   UNL     1      49.218   5.771  16.535  0.00  0.00    +0.000 A 
ATOM     22  C   UNL     1      48.203   4.809  16.424  0.00  0.00    +0.000 A 
ATOM     23  C   UNL     1      48.445   3.549  17.005  0.00  0.00    +0.000 A 
ATOM     24  F   UNL     1      47.532   2.566  16.926  0.00  0.00    +0.000 F 
ATOM     25  C   UNL     1      49.611   3.271  17.709  0.00  0.00    +0.000 A 
BRANCH  19  27
ATOM     26  N   UNL     1      52.319   2.689  18.460  0.00  0.00    +0.000 N 
ATOM     27  C   UNL     1      51.797   3.942  18.627  0.00  0.00    +0.000 C 
ATOM     28  O   UNL     1      52.337   4.769  19.351  0.00  0.00    +0.000 OA
ATOM     29  H   UNL     1      53.210   2.514  18.907  0.00  0.00    +0.000 HD
ATOM     30  H   UNL     1      52.050   2.089  17.700  0.00  0.00    +0.000 HD
ENDBRANCH  19  27
ENDBRANCH  17  22
ENDBRANCH   1  17
TORSDOF 7
ENDMDL
MODEL 9
REMARK VINA RESULT:    -6.722      3.328      5.362
REMARK INTER + INTRA:         -10.237
REMARK INTER:                  -9.415
REMARK INTRA:                  -0.822
REMARK UNBOUND:                -0.764
REMARK  Name = 
REMARK  7 active torsions:
REMARK  status: ('A' for Active; 'I' for Inactive)
REMARK    1  A    between atoms: C_2  and  C_4
REMARK    2  A    between atoms: C_7  and  N_8
REMARK    3  A    between atoms: N_8  and  C_9
REMARK    4  A    between atoms: C_9  and  C_10
REMARK    5  A    between atoms: C_10  and  C_13
REMARK    6  A    between atoms: C_17  and  C_18
REMARK    7  A    between atoms: C_18  and  C_19
REMARK                            x       y       z     vdW  Elec       q    Type
REMARK                         _______ _______ _______ _____ _____    ______ ____
ROOT
ATOM      1  C   UNL     1      48.548   6.897  14.124  0.00  0.00    +0.000 C 
ENDROOT
BRANCH   1   2
ATOM      2  C   UNL     1      49.129   7.909  15.140  0.00  0.00    +0.000 C 
ATOM      3  F   UNL     1      50.350   8.326  14.681  0.00  0.00    +0.000 F 
ATOM      4  F   UNL     1      48.349   9.032  15.148  0.00  0.00    +0.000 F 
BRANCH   2   5
ATOM      5  C   UNL     1      49.207   7.255  16.502  0.00  0.00    +0.000 A 
ATOM      6  C   UNL     1      48.442   7.764  17.561  0.00  0.00    +0.000 A 
ATOM      7  C   UNL     1      48.423   7.110  18.787  0.00  0.00    +0.000 A 
ATOM      8  C   UNL     1      49.151   5.930  18.965  0.00  0.00    +0.000 A 
ATOM      9  C   UNL     1      49.933   5.401  17.926  0.00  0.00    +0.000 A 
ATOM     10  C   UNL     1      49.966   6.088  16.703  0.00  0.00    +0.000 A 
BRANCH   9  11
ATOM     11  C   UNL     1      50.743   4.133  18.099  0.00  0.00    +0.000 C 
BRANCH  11  12
ATOM     12  C   UNL     1      49.905   2.875  17.864  0.00  0.00    +0.000 C 
ATOM     13  C   UNL     1      50.550   1.818  16.939  0.00  0.00    +0.000 C 
ATOM     14  N   UNL     1      49.320   1.748  16.144  0.00  0.00    +0.000 NA
ATOM     15  C   UNL     1      48.756   2.913  16.835  0.00  0.00    +0.000 C 
ATOM     16  H   UNL     1      48.789   0.887  16.276  0.00  0.00    +0.000 HD
ENDBRANCH  11  12
ENDBRANCH   9  11
ENDBRANCH   2   5
ENDBRANCH   1   2
BRANCH   1  17
ATOM     17  N   UNL     1      47.112   7.095  13.865  0.00  0.00    +0.000 N 
ATOM     18  H   UNL     1      46.835   8.072  13.797  0.00  0.00    +0.000 HD
BRANCH  17  22
ATOM     19  C   UNL     1      44.950   4.727  11.120  0.00  0.00    +0.000 A 
ATOM     20  C   UNL     1      45.378   6.018  10.792  0.00  0.00    +0.000 A 
ATOM     21  C   UNL     1      46.115   6.767  11.716  0.00  0.00    +0.000 A 
ATOM     22  C   UNL     1      46.448   6.247  12.975  0.00  0.00    +0.000 A 
ATOM     23  C   UNL     1      45.961   4.963  13.289  0.00  0.00    +0.000 A 
ATOM     24  F   UNL     1      46.217   4.401  14.482  0.00  0.00    +0.000 F 
ATOM     25  C   UNL     1      45.227   4.208  12.381  0.00  0.00    +0.000 A 
BRANCH  19  27
ATOM     26  N   UNL     1      44.133   4.339   8.878  0.00  0.00    +0.000 N 
ATOM     27  C   UNL     1      44.195   3.888  10.167  0.00  0.00    +0.000 C 
ATOM     28  O   UNL     1      43.689   2.823  10.497  0.00  0.00    +0.000 OA
ATOM     29  H   UNL     1      43.713   3.710   8.204  0.00  0.00    +0.000 HD
ATOM     30  H   UNL     1      44.736   5.064   8.529  0.00  0.00    +0.000 HD
ENDBRANCH  19  27
ENDBRANCH  17  22
ENDBRANCH   1  17
TORSDOF 7
ENDMDL
