MODEL 1
REMARK VINA RESULT:    -8.462      0.000      0.000
REMARK INTER + INTRA:         -10.701
REMARK INTER:                 -10.194
REMARK INTRA:                  -0.508
REMARK UNBOUND:                -0.508
REMARK  Name = 
REMARK  4 active torsions:
REMARK  status: ('A' for Active; 'I' for Inactive)
REMARK    1  A    between atoms: N_1  and  C_2
REMARK    2  A    between atoms: C_2  and  C_3
REMARK    3  A    between atoms: C_6  and  C_7
REMARK    4  A    between atoms: C_7  and  C_8
REMARK                            x       y       z     vdW  Elec       q    Type
REMARK                         _______ _______ _______ _____ _____    ______ ____
ROOT
ATOM      1  C   UNL     1      43.795   4.394   9.895  0.00  0.00    +0.000 C 
ENDROOT
BRANCH   1   2
ATOM      2  C   UNL     1      44.317   4.410  11.295  0.00  0.00    +0.000 A 
ATOM      3  N   UNL     1      43.819   3.556  12.208  0.00  0.00    +0.000 NA
ATOM      4  N   UNL     1      44.612   3.727  13.281  0.00  0.00    +0.000 N 
ATOM      5  C   UNL     1      45.591   4.660  13.104  0.00  0.00    +0.000 A 
ATOM      6  C   UNL     1      46.621   5.089  13.937  0.00  0.00    +0.000 A 
ATOM      7  F   UNL     1      46.792   4.563  15.156  0.00  0.00    +0.000 F 
ATOM      8  C   UNL     1      47.494   6.063  13.458  0.00  0.00    +0.000 A 
ATOM      9  C   UNL     1      47.317   6.606  12.185  0.00  0.00    +0.000 A 
ATOM     10  C   UNL     1      46.280   6.163  11.353  0.00  0.00    +0.000 A 
ATOM     11  C   UNL     1      45.410   5.159  11.822  0.00  0.00    +0.000 A 
ATOM     12  H   UNL     1      44.451   3.155  14.102  0.00  0.00    +0.000 HD
ENDBRANCH   1   2
BRANCH   1  16
ATOM     13  C   UNL     1      46.657   2.303   7.501  0.00  0.00    +0.000 A 
ATOM     14  C   UNL     1      45.873   1.581   8.402  0.00  0.00    +0.000 A 
ATOM     15  C   UNL     1      44.919   2.240   9.177  0.00  0.00    +0.000 A 
ATOM     16  C   UNL     1      44.759   3.615   9.035  0.00  0.00    +0.000 A 
ATOM     17  N   UNL     1      45.515   4.337   8.166  0.00  0.00    +0.000 NA
ATOM     18  C   UNL     1      46.436   3.674   7.429  0.00  0.00    +0.000 A 
BRANCH  13  19
ATOM     19  C   UNL     1      47.674   1.633   6.624  0.00  0.00    +0.000 C 
BRANCH  19  20
ATOM     20  N   UNL     1      48.716   2.554   6.188  0.00  0.00    +0.000 NA
ATOM     21  H   UNL     1      48.324   3.491   6.112  0.00  0.00    +0.000 HD
ATOM     22  H   UNL     1      49.017   2.296   5.249  0.00  0.00    +0.000 HD
ENDBRANCH  19  20
ENDBRANCH  13  19
ENDBRANCH   1  16
TORSDOF 4
ENDMDL
MODEL 2
REMARK VINA RESULT:    -7.681      2.729      5.927
REMARK INTER + INTRA:          -9.761
REMARK INTER:                  -9.290
REMARK INTRA:                  -0.471
REMARK UNBOUND:                -0.508
REMARK  Name = 
REMARK  4 active torsions:
REMARK  status: ('A' for Active; 'I' for Inactive)
REMARK    1  A    between atoms: N_1  and  C_2
REMARK    2  A    between atoms: C_2  and  C_3
REMARK    3  A    between atoms: C_6  and  C_7
REMARK    4  A    between atoms: C_7  and  C_8
REMARK                            x       y       z     vdW  Elec       q    Type
REMARK                         _______ _______ _______ _____ _____    ______ ____
ROOT
ATOM      1  C   UNL     1      43.335   5.387  10.996  0.00  0.00    +0.000 C 
ENDROOT
BRANCH   1   2
ATOM      2  C   UNL     1      43.922   4.083  10.563  0.00  0.00    +0.000 A 
ATOM      3  N   UNL     1      43.480   2.934  11.107  0.00  0.00    +0.000 NA
ATOM      4  N   UNL     1      44.090   1.976  10.383  0.00  0.00    +0.000 N 
ATOM      5  C   UNL     1      44.911   2.458   9.407  0.00  0.00    +0.000 A 
ATOM      6  C   UNL     1      45.671   1.810   8.436  0.00  0.00    +0.000 A 
ATOM      7  F   UNL     1      45.677   0.475   8.335  0.00  0.00    +0.000 F 
ATOM      8  C   UNL     1      46.407   2.590   7.547  0.00  0.00    +0.000 A 
ATOM      9  C   UNL     1      46.397   3.981   7.651  0.00  0.00    +0.000 A 
ATOM     10  C   UNL     1      45.624   4.622   8.629  0.00  0.00    +0.000 A 
ATOM     11  C   UNL     1      44.856   3.840   9.514  0.00  0.00    +0.000 A 
ATOM     12  H   UNL     1      43.883   1.006  10.589  0.00  0.00    +0.000 HD
ENDBRANCH   1   2
BRANCH   1  16
ATOM     13  C   UNL     1      46.494   7.522  12.935  0.00  0.00    +0.000 A 
ATOM     14  C   UNL     1      45.692   8.193  12.012  0.00  0.00    +0.000 A 
ATOM     15  C   UNL     1      44.643   7.522  11.384  0.00  0.00    +0.000 A 
ATOM     16  C   UNL     1      44.408   6.186  11.694  0.00  0.00    +0.000 A 
ATOM     17  N   UNL     1      45.180   5.512  12.587  0.00  0.00    +0.000 NA
ATOM     18  C   UNL     1      46.193   6.186  13.179  0.00  0.00    +0.000 A 
BRANCH  13  19
ATOM     19  C   UNL     1      47.614   8.210  13.659  0.00  0.00    +0.000 C 
BRANCH  19  20
ATOM     20  N   UNL     1      47.138   8.978  14.804  0.00  0.00    +0.000 NA
ATOM     21  H   UNL     1      47.048   9.956  14.536  0.00  0.00    +0.000 HD
ATOM     22  H   UNL     1      47.844   8.949  15.539  0.00  0.00    +0.000 HD
ENDBRANCH  19  20
ENDBRANCH  13  19
ENDBRANCH   1  16
TORSDOF 4
ENDMDL
MODEL 3
REMARK VINA RESULT:    -7.675      2.016      2.382
REMARK INTER + INTRA:          -9.753
REMARK INTER:                  -9.428
REMARK INTRA:                  -0.326
REMARK UNBOUND:                -0.508
REMARK  Name = 
REMARK  4 active torsions:
REMARK  status: ('A' for Active; 'I' for Inactive)
REMARK    1  A    between atoms: N_1  and  C_2
REMARK    2  A    between atoms: C_2  and  C_3
REMARK    3  A    between atoms: C_6  and  C_7
REMARK    4  A    between atoms: C_7  and  C_8
REMARK                            x       y       z     vdW  Elec       q    Type
REMARK                         _______ _______ _______ _____ _____    ______ ____
ROOT
ATOM      1  C   UNL     1      44.007   3.556  10.714  0.00  0.00    +0.000 C 
ENDROOT
BRANCH   1   2
ATOM      2  C   UNL     1      44.088   5.020  10.999  0.00  0.00    +0.000 A 
ATOM      3  N   UNL     1      43.027   5.812  10.758  0.00  0.00    +0.000 NA
ATOM      4  N   UNL     1      43.385   7.003  11.274  0.00  0.00    +0.000 N 
ATOM      5  C   UNL     1      44.631   7.015  11.827  0.00  0.00    +0.000 A 
ATOM      6  C   UNL     1      45.338   8.014  12.490  0.00  0.00    +0.000 A 
ATOM      7  F   UNL     1      44.805   9.226  12.690  0.00  0.00    +0.000 F 
ATOM      8  C   UNL     1      46.611   7.714  12.970  0.00  0.00    +0.000 A 
ATOM      9  C   UNL     1      47.163   6.450  12.765  0.00  0.00    +0.000 A 
ATOM     10  C   UNL     1      46.440   5.449  12.100  0.00  0.00    +0.000 A 
ATOM     11  C   UNL     1      45.142   5.740  11.636  0.00  0.00    +0.000 A 
ATOM     12  H   UNL     1      42.720   7.767  11.241  0.00  0.00    +0.000 HD
ENDBRANCH   1   2
BRANCH   1  16
ATOM     13  C   UNL     1      46.441   2.547   7.345  0.00  0.00    +0.000 A 
ATOM     14  C   UNL     1      46.079   3.879   7.542  0.00  0.00    +0.000 A 
ATOM     15  C   UNL     1      45.303   4.234   8.646  0.00  0.00    +0.000 A 
ATOM     16  C   UNL     1      44.905   3.247   9.543  0.00  0.00    +0.000 A 
ATOM     17  N   UNL     1      45.244   1.942   9.367  0.00  0.00    +0.000 NA
ATOM     18  C   UNL     1      45.994   1.625   8.286  0.00  0.00    +0.000 A 
BRANCH  13  19
ATOM     19  C   UNL     1      47.300   2.122   6.190  0.00  0.00    +0.000 C 
BRANCH  19  20
ATOM     20  N   UNL     1      48.695   2.506   6.373  0.00  0.00    +0.000 NA
ATOM     21  H   UNL     1      48.761   3.522   6.396  0.00  0.00    +0.000 HD
ATOM     22  H   UNL     1      49.231   2.206   5.559  0.00  0.00    +0.000 HD
ENDBRANCH  19  20
ENDBRANCH  13  19
ENDBRANCH   1  16
TORSDOF 4
ENDMDL
MODEL 4
REMARK VINA RESULT:    -7.358      2.491      6.285
REMARK INTER + INTRA:          -9.371
REMARK INTER:                  -8.967
REMARK INTRA:                  -0.403
REMARK UNBOUND:                -0.508
REMARK  Name = 
REMARK  4 active torsions:
REMARK  status: ('A' for Active; 'I' for Inactive)
REMARK    1  A    between atoms: N_1  and  C_2
REMARK    2  A    between atoms: C_2  and  C_3
REMARK    3  A    between atoms: C_6  and  C_7
REMARK    4  A    between atoms: C_7  and  C_8
REMARK                            x       y       z     vdW  Elec       q    Type
REMARK                         _______ _______ _______ _____ _____    ______ ____
ROOT
ATOM      1  C   UNL     1      44.310   4.400   9.996  0.00  0.00    +0.000 C 
ENDROOT
BRANCH   1   2
ATOM      2  C   UNL     1      45.295   4.116   8.910  0.00  0.00    +0.000 A 
ATOM      3  N   UNL     1      45.977   5.126   8.340  0.00  0.00    +0.000 NA
ATOM      4  N   UNL     1      46.870   4.508   7.545  0.00  0.00    +0.000 N 
ATOM      5  C   UNL     1      46.787   3.147   7.571  0.00  0.00    +0.000 A 
ATOM      6  C   UNL     1      47.544   2.162   6.942  0.00  0.00    +0.000 A 
ATOM      7  F   UNL     1      48.572   2.480   6.145  0.00  0.00    +0.000 F 
ATOM      8  C   UNL     1      47.224   0.828   7.185  0.00  0.00    +0.000 A 
ATOM      9  C   UNL     1      46.155   0.499   8.019  0.00  0.00    +0.000 A 
ATOM     10  C   UNL     1      45.403   1.499   8.652  0.00  0.00    +0.000 A 
ATOM     11  C   UNL     1      45.740   2.849   8.430  0.00  0.00    +0.000 A 
ATOM     12  H   UNL     1      47.533   5.072   7.026  0.00  0.00    +0.000 HD
ENDBRANCH   1   2
BRANCH   1  16
ATOM     13  C   UNL     1      46.551   4.766  13.621  0.00  0.00    +0.000 A 
ATOM     14  C   UNL     1      46.326   5.905  12.847  0.00  0.00    +0.000 A 
ATOM     15  C   UNL     1      45.580   5.812  11.673  0.00  0.00    +0.000 A 
ATOM     16  C   UNL     1      45.063   4.578  11.291  0.00  0.00    +0.000 A 
ATOM     17  N   UNL     1      45.273   3.456  12.028  0.00  0.00    +0.000 NA
ATOM     18  C   UNL     1      46.004   3.573  13.162  0.00  0.00    +0.000 A 
BRANCH  13  19
ATOM     19  C   UNL     1      47.320   4.823  14.908  0.00  0.00    +0.000 C 
BRANCH  19  20
ATOM     20  N   UNL     1      47.003   3.704  15.788  0.00  0.00    +0.000 NA
ATOM     21  H   UNL     1      47.547   3.789  16.645  0.00  0.00    +0.000 HD
ATOM     22  H   UNL     1      47.306   2.837  15.345  0.00  0.00    +0.000 HD
ENDBRANCH  19  20
ENDBRANCH  13  19
ENDBRANCH   1  16
TORSDOF 4
ENDMDL
MODEL 5
REMARK VINA RESULT:    -7.128      2.935      5.727
REMARK INTER + INTRA:          -9.094
REMARK INTER:                  -8.582
REMARK INTRA:                  -0.512
REMARK UNBOUND:                -0.508
REMARK  Name = 
REMARK  4 active torsions:
REMARK  status: ('A' for Active; 'I' for Inactive)
REMARK    1  A    between atoms: N_1  and  C_2
REMARK    2  A    between atoms: C_2  and  C_3
REMARK    3  A    between atoms: C_6  and  C_7
REMARK    4  A    between atoms: C_7  and  C_8
REMARK                            x       y       z     vdW  Elec       q    Type
REMARK                         _______ _______ _______ _____ _____    ______ ____
ROOT
ATOM      1  C   UNL     1      44.023   5.578  12.791  0.00  0.00    +0.000 C 
ENDROOT
BRANCH   1   2
ATOM      2  C   UNL     1      44.167   4.306  12.020  0.00  0.00    +0.000 A 
ATOM      3  N   UNL     1      43.675   3.158  12.521  0.00  0.00    +0.000 NA
ATOM      4  N   UNL     1      43.829   2.274  11.517  0.00  0.00    +0.000 N 
ATOM      5  C   UNL     1      44.405   2.799  10.399  0.00  0.00    +0.000 A 
ATOM      6  C   UNL     1      44.689   2.239   9.156  0.00  0.00    +0.000 A 
ATOM      7  F   UNL     1      44.385   0.965   8.882  0.00  0.00    +0.000 F 
ATOM      8  C   UNL     1      45.276   3.050   8.186  0.00  0.00    +0.000 A 
ATOM      9  C   UNL     1      45.589   4.379   8.472  0.00  0.00    +0.000 A 
ATOM     10  C   UNL     1      45.293   4.933   9.726  0.00  0.00    +0.000 A 
ATOM     11  C   UNL     1      44.676   4.125  10.701  0.00  0.00    +0.000 A 
ATOM     12  H   UNL     1      43.493   1.326  11.648  0.00  0.00    +0.000 HD
ENDBRANCH   1   2
BRANCH   1  16
ATOM     13  C   UNL     1      47.974   7.162  13.217  0.00  0.00    +0.000 A 
ATOM     14  C   UNL     1      46.995   7.943  12.602  0.00  0.00    +0.000 A 
ATOM     15  C   UNL     1      45.695   7.455  12.472  0.00  0.00    +0.000 A 
ATOM     16  C   UNL     1      45.390   6.189  12.965  0.00  0.00    +0.000 A 
ATOM     17  N   UNL     1      46.330   5.411  13.564  0.00  0.00    +0.000 NA
ATOM     18  C   UNL     1      47.585   5.908  13.674  0.00  0.00    +0.000 A 
BRANCH  13  19
ATOM     19  C   UNL     1      49.377   7.657  13.408  0.00  0.00    +0.000 C 
BRANCH  19  20
ATOM     20  N   UNL     1      50.064   6.959  14.487  0.00  0.00    +0.000 NA
ATOM     21  H   UNL     1      51.030   7.279  14.531  0.00  0.00    +0.000 HD
ATOM     22  H   UNL     1      50.105   5.964  14.266  0.00  0.00    +0.000 HD
ENDBRANCH  19  20
ENDBRANCH  13  19
ENDBRANCH   1  16
TORSDOF 4
ENDMDL
MODEL 6
REMARK VINA RESULT:    -7.104      1.697      2.199
REMARK INTER + INTRA:          -9.065
REMARK INTER:                  -8.568
REMARK INTRA:                  -0.497
REMARK UNBOUND:                -0.508
REMARK  Name = 
REMARK  4 active torsions:
REMARK  status: ('A' for Active; 'I' for Inactive)
REMARK    1  A    between atoms: N_1  and  C_2
REMARK    2  A    between atoms: C_2  and  C_3
REMARK    3  A    between atoms: C_6  and  C_7
REMARK    4  A    between atoms: C_7  and  C_8
REMARK                            x       y       z     vdW  Elec       q    Type
REMARK                         _______ _______ _______ _____ _____    ______ ____
ROOT
ATOM      1  C   UNL     1      44.194   4.718  10.254  0.00  0.00    +0.000 C 
ENDROOT
BRANCH   1   2
ATOM      2  C   UNL     1      45.116   5.495  11.136  0.00  0.00    +0.000 A 
ATOM      3  N   UNL     1      45.206   6.831  11.003  0.00  0.00    +0.000 NA
ATOM      4  N   UNL     1      45.979   7.210  12.038  0.00  0.00    +0.000 N 
ATOM      5  C   UNL     1      46.397   6.177  12.824  0.00  0.00    +0.000 A 
ATOM      6  C   UNL     1      47.155   6.153  13.992  0.00  0.00    +0.000 A 
ATOM      7  F   UNL     1      47.611   7.282  14.547  0.00  0.00    +0.000 F 
ATOM      8  C   UNL     1      47.406   4.920  14.590  0.00  0.00    +0.000 A 
ATOM      9  C   UNL     1      46.927   3.744  14.011  0.00  0.00    +0.000 A 
ATOM     10  C   UNL     1      46.160   3.781  12.839  0.00  0.00    +0.000 A 
ATOM     11  C   UNL     1      45.880   5.028  12.245  0.00  0.00    +0.000 A 
ATOM     12  H   UNL     1      46.164   8.197  12.172  0.00  0.00    +0.000 HD
ENDBRANCH   1   2
BRANCH   1  16
ATOM     13  C   UNL     1      46.401   2.133   7.658  0.00  0.00    +0.000 A 
ATOM     14  C   UNL     1      46.451   3.511   7.442  0.00  0.00    +0.000 A 
ATOM     15  C   UNL     1      45.756   4.373   8.290  0.00  0.00    +0.000 A 
ATOM     16  C   UNL     1      45.023   3.844   9.347  0.00  0.00    +0.000 A 
ATOM     17  N   UNL     1      44.958   2.504   9.572  0.00  0.00    +0.000 NA
ATOM     18  C   UNL     1      45.639   1.690   8.732  0.00  0.00    +0.000 A 
BRANCH  13  19
ATOM     19  C   UNL     1      47.157   1.169   6.792  0.00  0.00    +0.000 C 
BRANCH  19  20
ATOM     20  N   UNL     1      48.380   1.754   6.255  0.00  0.00    +0.000 NA
ATOM     21  H   UNL     1      48.467   1.503   5.272  0.00  0.00    +0.000 HD
ATOM     22  H   UNL     1      49.182   1.338   6.726  0.00  0.00    +0.000 HD
ENDBRANCH  19  20
ENDBRANCH  13  19
ENDBRANCH   1  16
TORSDOF 4
ENDMDL
MODEL 7
REMARK VINA RESULT:    -6.788      1.289      1.525
REMARK INTER + INTRA:          -8.684
REMARK INTER:                  -8.264
REMARK INTRA:                  -0.420
REMARK UNBOUND:                -0.508
REMARK  Name = 
REMARK  4 active torsions:
REMARK  status: ('A' for Active; 'I' for Inactive)
REMARK    1  A    between atoms: N_1  and  C_2
REMARK    2  A    between atoms: C_2  and  C_3
REMARK    3  A    between atoms: C_6  and  C_7
REMARK    4  A    between atoms: C_7  and  C_8
REMARK                            x       y       z     vdW  Elec       q    Type
REMARK                         _______ _______ _______ _____ _____    ______ ____
ROOT
ATOM      1  C   UNL     1      43.925   4.179  11.488  0.00  0.00    +0.000 C 
ENDROOT
BRANCH   1   2
ATOM      2  C   UNL     1      44.996   4.522  12.471  0.00  0.00    +0.000 A 
ATOM      3  N   UNL     1      45.583   3.549  13.192  0.00  0.00    +0.000 NA
ATOM      4  N   UNL     1      46.587   4.178  13.832  0.00  0.00    +0.000 N 
ATOM      5  C   UNL     1      46.665   5.513  13.562  0.00  0.00    +0.000 A 
ATOM      6  C   UNL     1      47.568   6.488  13.977  0.00  0.00    +0.000 A 
ATOM      7  F   UNL     1      48.593   6.187  14.784  0.00  0.00    +0.000 F 
ATOM      8  C   UNL     1      47.397   7.788  13.507  0.00  0.00    +0.000 A 
ATOM      9  C   UNL     1      46.330   8.099  12.663  0.00  0.00    +0.000 A 
ATOM     10  C   UNL     1      45.430   7.108  12.247  0.00  0.00    +0.000 A 
ATOM     11  C   UNL     1      45.615   5.786  12.698  0.00  0.00    +0.000 A 
ATOM     12  H   UNL     1      47.205   3.634  14.422  0.00  0.00    +0.000 HD
ENDBRANCH   1   2
BRANCH   1  16
ATOM     13  C   UNL     1      45.928   3.010   7.893  0.00  0.00    +0.000 A 
ATOM     14  C   UNL     1      45.300   2.032   8.667  0.00  0.00    +0.000 A 
ATOM     15  C   UNL     1      44.623   2.394   9.831  0.00  0.00    +0.000 A 
ATOM     16  C   UNL     1      44.579   3.734  10.204  0.00  0.00    +0.000 A 
ATOM     17  N   UNL     1      45.187   4.701   9.467  0.00  0.00    +0.000 NA
ATOM     18  C   UNL     1      45.840   4.322   8.344  0.00  0.00    +0.000 A 
BRANCH  13  19
ATOM     19  C   UNL     1      46.641   2.672   6.617  0.00  0.00    +0.000 C 
BRANCH  19  20
ATOM     20  N   UNL     1      48.077   2.901   6.713  0.00  0.00    +0.000 NA
ATOM     21  H   UNL     1      48.261   3.560   7.467  0.00  0.00    +0.000 HD
ATOM     22  H   UNL     1      48.400   3.353   5.858  0.00  0.00    +0.000 HD
ENDBRANCH  19  20
ENDBRANCH  13  19
ENDBRANCH   1  16
TORSDOF 4
ENDMDL
MODEL 8
REMARK VINA RESULT:    -6.111      4.056      7.143
REMARK INTER + INTRA:          -7.869
REMARK INTER:                  -7.497
REMARK INTRA:                  -0.372
REMARK UNBOUND:                -0.508
REMARK  Name = 
REMARK  4 active torsions:
REMARK  status: ('A' for Active; 'I' for Inactive)
REMARK    1  A    between atoms: N_1  and  C_2
REMARK    2  A    between atoms: C_2  and  C_3
REMARK    3  A    between atoms: C_6  and  C_7
REMARK    4  A    between atoms: C_7  and  C_8
REMARK                            x       y       z     vdW  Elec       q    Type
REMARK                         _______ _______ _______ _____ _____    ______ ____
ROOT
ATOM      1  C   UNL     1      47.707   5.777  13.311  0.00  0.00    +0.000 C 
ENDROOT
BRANCH   1   2
ATOM      2  C   UNL     1      46.250   5.985  13.054  0.00  0.00    +0.000 A 
ATOM      3  N   UNL     1      45.725   7.222  13.120  0.00  0.00    +0.000 NA
ATOM      4  N   UNL     1      44.463   7.064  12.680  0.00  0.00    +0.000 N 
ATOM      5  C   UNL     1      44.149   5.781  12.344  0.00  0.00    +0.000 A 
ATOM      6  C   UNL     1      42.989   5.220  11.816  0.00  0.00    +0.000 A 
ATOM      7  F   UNL     1      41.918   5.974  11.538  0.00  0.00    +0.000 F 
ATOM      8  C   UNL     1      42.977   3.852  11.554  0.00  0.00    +0.000 A 
ATOM      9  C   UNL     1      44.096   3.069  11.841  0.00  0.00    +0.000 A 
ATOM     10  C   UNL     1      45.261   3.644  12.367  0.00  0.00    +0.000 A 
ATOM     11  C   UNL     1      45.287   5.032  12.609  0.00  0.00    +0.000 A 
ATOM     12  H   UNL     1      43.867   7.881  12.605  0.00  0.00    +0.000 HD
ENDBRANCH   1   2
BRANCH   1  16
ATOM     13  C   UNL     1      48.202   4.939  17.476  0.00  0.00    +0.000 A 
ATOM     14  C   UNL     1      47.318   4.159  16.730  0.00  0.00    +0.000 A 
ATOM     15  C   UNL     1      47.158   4.401  15.366  0.00  0.00    +0.000 A 
ATOM     16  C   UNL     1      47.890   5.421  14.765  0.00  0.00    +0.000 A 
ATOM     17  N   UNL     1      48.753   6.195  15.475  0.00  0.00    +0.000 NA
ATOM     18  C   UNL     1      48.887   5.941  16.798  0.00  0.00    +0.000 A 
BRANCH  13  19
ATOM     19  C   UNL     1      48.431   4.696  18.939  0.00  0.00    +0.000 C 
BRANCH  19  20
ATOM     20  N   UNL     1      48.420   3.276  19.268  0.00  0.00    +0.000 NA
ATOM     21  H   UNL     1      49.183   3.076  19.911  0.00  0.00    +0.000 HD
ATOM     22  H   UNL     1      48.612   2.737  18.424  0.00  0.00    +0.000 HD
ENDBRANCH  19  20
ENDBRANCH  13  19
ENDBRANCH   1  16
TORSDOF 4
ENDMDL
MODEL 9
REMARK VINA RESULT:    -6.105      3.822      7.263
REMARK INTER + INTRA:          -7.861
REMARK INTER:                  -8.062
REMARK INTRA:                   0.201
REMARK UNBOUND:                -0.508
REMARK  Name = 
REMARK  4 active torsions:
REMARK  status: ('A' for Active; 'I' for Inactive)
REMARK    1  A    between atoms: N_1  and  C_2
REMARK    2  A    between atoms: C_2  and  C_3
REMARK    3  A    between atoms: C_6  and  C_7
REMARK    4  A    between atoms: C_7  and  C_8
REMARK                            x       y       z     vdW  Elec       q    Type
REMARK                         _______ _______ _______ _____ _____    ______ ____
ROOT
ATOM      1  C   UNL     1      47.589   5.635  13.914  0.00  0.00    +0.000 C 
ENDROOT
BRANCH   1   2
ATOM      2  C   UNL     1      46.641   4.661  13.293  0.00  0.00    +0.000 A 
ATOM      3  N   UNL     1      46.876   3.340  13.391  0.00  0.00    +0.000 NA
ATOM      4  N   UNL     1      45.766   2.774  12.881  0.00  0.00    +0.000 N 
ATOM      5  C   UNL     1      44.833   3.671  12.451  0.00  0.00    +0.000 A 
ATOM      6  C   UNL     1      43.561   3.496  11.915  0.00  0.00    +0.000 A 
ATOM      7  F   UNL     1      43.041   2.274  11.746  0.00  0.00    +0.000 F 
ATOM      8  C   UNL     1      42.822   4.630  11.584  0.00  0.00    +0.000 A 
ATOM      9  C   UNL     1      43.364   5.903  11.765  0.00  0.00    +0.000 A 
ATOM     10  C   UNL     1      44.645   6.068  12.311  0.00  0.00    +0.000 A 
ATOM     11  C   UNL     1      45.385   4.925  12.672  0.00  0.00    +0.000 A 
ATOM     12  H   UNL     1      45.692   1.763  12.878  0.00  0.00    +0.000 HD
ENDBRANCH   1   2
BRANCH   1  16
ATOM     13  C   UNL     1      48.359   4.588  17.989  0.00  0.00    +0.000 A 
ATOM     14  C   UNL     1      47.255   4.028  17.344  0.00  0.00    +0.000 A 
ATOM     15  C   UNL     1      46.998   4.340  16.009  0.00  0.00    +0.000 A 
ATOM     16  C   UNL     1      47.854   5.205  15.335  0.00  0.00    +0.000 A 
ATOM     17  N   UNL     1      48.932   5.764  15.946  0.00  0.00    +0.000 NA
ATOM     18  C   UNL     1      49.157   5.447  17.243  0.00  0.00    +0.000 A 
BRANCH  13  19
ATOM     19  C   UNL     1      48.694   4.258  19.414  0.00  0.00    +0.000 C 
BRANCH  19  20
ATOM     20  N   UNL     1      48.297   2.901  19.772  0.00  0.00    +0.000 NA
ATOM     21  H   UNL     1      47.332   2.910  20.097  0.00  0.00    +0.000 HD
ATOM     22  H   UNL     1      48.860   2.589  20.563  0.00  0.00    +0.000 HD
ENDBRANCH  19  20
ENDBRANCH  13  19
ENDBRANCH   1  16
TORSDOF 4
ENDMDL
