MODEL 1
REMARK VINA RESULT:    -7.651      0.000      0.000
REMARK INTER + INTRA:         -12.413
REMARK INTER:                 -11.229
REMARK INTRA:                  -1.184
REMARK UNBOUND:                -1.184
REMARK  Name = 
REMARK  9 active torsions:
REMARK  status: ('A' for Active; 'I' for Inactive)
REMARK    1  A    between atoms: C_1  and  C_2
REMARK    2  A    between atoms: C_2  and  C_3
REMARK    3  A    between atoms: C_7  and  C_8
REMARK    4  A    between atoms: C_8  and  C_9
REMARK    5  A    between atoms: C_9  and  N_10
REMARK    6  A    between atoms: N_10  and  C_11
REMARK    7  A    between atoms: C_14  and  C_15
REMARK    8  A    between atoms: N_24  and  C_25
REMARK    9  A    between atoms: C_25  and  C_26
REMARK                            x       y       z     vdW  Elec       q    Type
REMARK                         _______ _______ _______ _____ _____    ______ ____
ROOT
ATOM      1  C   UNL     1      47.083   6.544  13.148  0.00  0.00    +0.000 A 
ATOM      2  C   UNL     1      47.541   5.345  13.717  0.00  0.00    +0.000 A 
ATOM      3  C   UNL     1      46.721   4.214  13.781  0.00  0.00    +0.000 A 
ATOM      4  C   UNL     1      45.413   4.258  13.296  0.00  0.00    +0.000 A 
ATOM      5  C   UNL     1      44.917   5.429  12.722  0.00  0.00    +0.000 A 
ATOM      6  C   UNL     1      45.779   6.542  12.637  0.00  0.00    +0.000 A 
ENDROOT
BRANCH   1   8
ATOM      7  C   UNL     1      47.334   8.796  12.125  0.00  0.00    +0.000 C 
ATOM      8  C   UNL     1      47.943   7.830  13.172  0.00  0.00    +0.000 C 
ATOM      9  C   UNL     1      47.923   8.452  14.590  0.00  0.00    +0.000 C 
ATOM     10  C   UNL     1      48.855   9.659  14.714  0.00  0.00    +0.000 C 
ATOM     11  C   UNL     1      50.276   9.340  14.251  0.00  0.00    +0.000 C 
ATOM     12  N   UNL     1      50.281   8.813  12.881  0.00  0.00    +0.000 NA
ATOM     13  C   UNL     1      49.446   7.595  12.797  0.00  0.00    +0.000 C 
BRANCH  12  14
ATOM     14  C   UNL     1      51.662   8.530  12.397  0.00  0.00    +0.000 C 
BRANCH  14  15
ATOM     15  C   UNL     1      51.975   8.623  10.883  0.00  0.00    +0.000 C 
ATOM     16  F   UNL     1      53.286   8.793  10.611  0.00  0.00    +0.000 F 
ATOM     17  F   UNL     1      51.572   7.494  10.248  0.00  0.00    +0.000 F 
ATOM     18  F   UNL     1      51.308   9.657  10.318  0.00  0.00    +0.000 F 
ENDBRANCH  14  15
ENDBRANCH  12  14
ENDBRANCH   1   8
BRANCH   5  19
ATOM     19  C   UNL     1      43.467   5.488  12.257  0.00  0.00    +0.000 C 
BRANCH  19  20
ATOM     20  C   UNL     1      43.181   4.550  11.079  0.00  0.00    +0.000 C 
BRANCH  20  21
ATOM     21  N   UNL     1      43.777   4.968   9.809  0.00  0.00    +0.000 N 
ATOM     22  H   UNL     1      44.252   5.867   9.886  0.00  0.00    +0.000 HD
BRANCH  21  23
ATOM     23  C   UNL     1      44.623   3.992   9.238  0.00  0.00    +0.000 A 
ATOM     24  C   UNL     1      44.530   2.623   9.477  0.00  0.00    +0.000 A 
ATOM     25  N   UNL     1      45.309   1.676   8.917  0.00  0.00    +0.000 NA
ATOM     26  C   UNL     1      46.213   2.135   8.024  0.00  0.00    +0.000 A 
ATOM     27  N   UNL     1      46.372   3.420   7.656  0.00  0.00    +0.000 NA
ATOM     28  C   UNL     1      45.557   4.308   8.263  0.00  0.00    +0.000 A 
BRANCH  26  29
ATOM     29  C   UNL     1      47.098   1.083   7.395  0.00  0.00    +0.000 C 
ATOM     30  N   UNL     1      46.756  -0.220   7.677  0.00  0.00    +0.000 N 
ATOM     31  O   UNL     1      48.060   1.335   6.677  0.00  0.00    +0.000 OA
ATOM     32  H   UNL     1      45.944  -0.418   8.248  0.00  0.00    +0.000 HD
ATOM     33  H   UNL     1      47.296  -0.967   7.266  0.00  0.00    +0.000 HD
ENDBRANCH  26  29
ENDBRANCH  21  23
ENDBRANCH  20  21
ENDBRANCH  19  20
ENDBRANCH   5  19
TORSDOF 8
ENDMDL
MODEL 2
REMARK VINA RESULT:    -7.574      3.149      4.286
REMARK INTER + INTRA:         -12.300
REMARK INTER:                 -11.548
REMARK INTRA:                  -0.752
REMARK UNBOUND:                -1.184
REMARK  Name = 
REMARK  9 active torsions:
REMARK  status: ('A' for Active; 'I' for Inactive)
REMARK    1  A    between atoms: C_1  and  C_2
REMARK    2  A    between atoms: C_2  and  C_3
REMARK    3  A    between atoms: C_7  and  C_8
REMARK    4  A    between atoms: C_8  and  C_9
REMARK    5  A    between atoms: C_9  and  N_10
REMARK    6  A    between atoms: N_10  and  C_11
REMARK    7  A    between atoms: C_14  and  C_15
REMARK    8  A    between atoms: N_24  and  C_25
REMARK    9  A    between atoms: C_25  and  C_26
REMARK                            x       y       z     vdW  Elec       q    Type
REMARK                         _______ _______ _______ _____ _____    ______ ____
ROOT
ATOM      1  C   UNL     1      46.779   7.715  13.011  0.00  0.00    +0.000 A 
ATOM      2  C   UNL     1      46.638   9.035  12.557  0.00  0.00    +0.000 A 
ATOM      3  C   UNL     1      45.537   9.421  11.784  0.00  0.00    +0.000 A 
ATOM      4  C   UNL     1      44.559   8.492  11.430  0.00  0.00    +0.000 A 
ATOM      5  C   UNL     1      44.659   7.168  11.861  0.00  0.00    +0.000 A 
ATOM      6  C   UNL     1      45.760   6.816  12.669  0.00  0.00    +0.000 A 
ENDROOT
BRANCH   1   8
ATOM      7  C   UNL     1      48.928   6.491  12.749  0.00  0.00    +0.000 C 
ATOM      8  C   UNL     1      48.046   7.253  13.770  0.00  0.00    +0.000 C 
ATOM      9  C   UNL     1      48.791   8.482  14.350  0.00  0.00    +0.000 C 
ATOM     10  C   UNL     1      49.986   8.085  15.218  0.00  0.00    +0.000 C 
ATOM     11  C   UNL     1      49.602   7.085  16.308  0.00  0.00    +0.000 C 
ATOM     12  N   UNL     1      48.957   5.898  15.733  0.00  0.00    +0.000 NA
ATOM     13  C   UNL     1      47.751   6.290  14.970  0.00  0.00    +0.000 C 
BRANCH  12  14
ATOM     14  C   UNL     1      48.607   4.894  16.777  0.00  0.00    +0.000 C 
BRANCH  14  15
ATOM     15  C   UNL     1      47.889   3.584  16.366  0.00  0.00    +0.000 C 
ATOM     16  F   UNL     1      46.767   3.337  17.074  0.00  0.00    +0.000 F 
ATOM     17  F   UNL     1      47.540   3.629  15.056  0.00  0.00    +0.000 F 
ATOM     18  F   UNL     1      48.709   2.518  16.523  0.00  0.00    +0.000 F 
ENDBRANCH  14  15
ENDBRANCH  12  14
ENDBRANCH   1   8
BRANCH   5  19
ATOM     19  C   UNL     1      43.622   6.146  11.413  0.00  0.00    +0.000 C 
BRANCH  19  20
ATOM     20  C   UNL     1      44.166   4.713  11.400  0.00  0.00    +0.000 C 
BRANCH  20  21
ATOM     21  N   UNL     1      43.609   3.860  10.349  0.00  0.00    +0.000 N 
ATOM     22  H   UNL     1      42.778   4.270   9.923  0.00  0.00    +0.000 HD
BRANCH  21  23
ATOM     23  C   UNL     1      44.555   3.487   9.368  0.00  0.00    +0.000 A 
ATOM     24  C   UNL     1      45.198   4.374   8.509  0.00  0.00    +0.000 A 
ATOM     25  N   UNL     1      46.125   4.039   7.589  0.00  0.00    +0.000 NA
ATOM     26  C   UNL     1      46.456   2.730   7.563  0.00  0.00    +0.000 A 
ATOM     27  N   UNL     1      45.959   1.777   8.373  0.00  0.00    +0.000 NA
ATOM     28  C   UNL     1      45.033   2.191   9.265  0.00  0.00    +0.000 A 
BRANCH  26  29
ATOM     29  C   UNL     1      47.489   2.340   6.531  0.00  0.00    +0.000 C 
ATOM     30  N   UNL     1      47.470   3.080   5.370  0.00  0.00    +0.000 N 
ATOM     31  O   UNL     1      48.303   1.435   6.681  0.00  0.00    +0.000 OA
ATOM     32  H   UNL     1      46.812   3.843   5.266  0.00  0.00    +0.000 HD
ATOM     33  H   UNL     1      48.152   2.882   4.652  0.00  0.00    +0.000 HD
ENDBRANCH  26  29
ENDBRANCH  21  23
ENDBRANCH  20  21
ENDBRANCH  19  20
ENDBRANCH   5  19
TORSDOF 8
ENDMDL
MODEL 3
REMARK VINA RESULT:    -7.451      1.571      2.020
REMARK INTER + INTRA:         -12.120
REMARK INTER:                 -11.030
REMARK INTRA:                  -1.090
REMARK UNBOUND:                -1.184
REMARK  Name = 
REMARK  9 active torsions:
REMARK  status: ('A' for Active; 'I' for Inactive)
REMARK    1  A    between atoms: C_1  and  C_2
REMARK    2  A    between atoms: C_2  and  C_3
REMARK    3  A    between atoms: C_7  and  C_8
REMARK    4  A    between atoms: C_8  and  C_9
REMARK    5  A    between atoms: C_9  and  N_10
REMARK    6  A    between atoms: N_10  and  C_11
REMARK    7  A    between atoms: C_14  and  C_15
REMARK    8  A    between atoms: N_24  and  C_25
REMARK    9  A    between atoms: C_25  and  C_26
REMARK                            x       y       z     vdW  Elec       q    Type
REMARK                         _______ _______ _______ _____ _____    ______ ____
ROOT
ATOM      1  C   UNL     1      47.133   6.853  12.894  0.00  0.00    +0.000 A 
ATOM      2  C   UNL     1      47.590   5.841  13.754  0.00  0.00    +0.000 A 
ATOM      3  C   UNL     1      46.774   4.757  14.095  0.00  0.00    +0.000 A 
ATOM      4  C   UNL     1      45.473   4.666  13.599  0.00  0.00    +0.000 A 
ATOM      5  C   UNL     1      44.979   5.648  12.739  0.00  0.00    +0.000 A 
ATOM      6  C   UNL     1      45.836   6.711  12.385  0.00  0.00    +0.000 A 
ENDROOT
BRANCH   1   8
ATOM      7  C   UNL     1      48.923   7.750  11.419  0.00  0.00    +0.000 C 
ATOM      8  C   UNL     1      47.987   8.109  12.601  0.00  0.00    +0.000 C 
ATOM      9  C   UNL     1      47.066   9.303  12.246  0.00  0.00    +0.000 C 
ATOM     10  C   UNL     1      47.842  10.608  12.066  0.00  0.00    +0.000 C 
ATOM     11  C   UNL     1      48.738  10.917  13.265  0.00  0.00    +0.000 C 
ATOM     12  N   UNL     1      49.650   9.801  13.545  0.00  0.00    +0.000 NA
ATOM     13  C   UNL     1      48.881   8.564  13.805  0.00  0.00    +0.000 C 
BRANCH  12  14
ATOM     14  C   UNL     1      50.558  10.097  14.689  0.00  0.00    +0.000 C 
BRANCH  14  15
ATOM     15  C   UNL     1      52.075   9.812  14.553  0.00  0.00    +0.000 C 
ATOM     16  F   UNL     1      52.726  10.705  13.778  0.00  0.00    +0.000 F 
ATOM     17  F   UNL     1      52.668   9.826  15.773  0.00  0.00    +0.000 F 
ATOM     18  F   UNL     1      52.287   8.585  14.021  0.00  0.00    +0.000 F 
ENDBRANCH  14  15
ENDBRANCH  12  14
ENDBRANCH   1   8
BRANCH   5  19
ATOM     19  C   UNL     1      43.535   5.576  12.257  0.00  0.00    +0.000 C 
BRANCH  19  20
ATOM     20  C   UNL     1      43.324   4.518  11.168  0.00  0.00    +0.000 C 
BRANCH  20  21
ATOM     21  N   UNL     1      43.820   4.899   9.845  0.00  0.00    +0.000 N 
ATOM     22  H   UNL     1      44.272   5.813   9.853  0.00  0.00    +0.000 HD
BRANCH  21  23
ATOM     23  C   UNL     1      44.654   3.923   9.256  0.00  0.00    +0.000 A 
ATOM     24  C   UNL     1      44.526   2.550   9.447  0.00  0.00    +0.000 A 
ATOM     25  N   UNL     1      45.294   1.605   8.869  0.00  0.00    +0.000 NA
ATOM     26  C   UNL     1      46.224   2.072   8.008  0.00  0.00    +0.000 A 
ATOM     27  N   UNL     1      46.418   3.364   7.686  0.00  0.00    +0.000 NA
ATOM     28  C   UNL     1      45.613   4.251   8.309  0.00  0.00    +0.000 A 
BRANCH  26  29
ATOM     29  C   UNL     1      47.097   1.022   7.359  0.00  0.00    +0.000 C 
ATOM     30  N   UNL     1      46.801  -0.280   7.696  0.00  0.00    +0.000 N 
ATOM     31  O   UNL     1      48.011   1.274   6.581  0.00  0.00    +0.000 OA
ATOM     32  H   UNL     1      46.027  -0.479   8.317  0.00  0.00    +0.000 HD
ATOM     33  H   UNL     1      47.334  -1.027   7.275  0.00  0.00    +0.000 HD
ENDBRANCH  26  29
ENDBRANCH  21  23
ENDBRANCH  20  21
ENDBRANCH  19  20
ENDBRANCH   5  19
TORSDOF 8
ENDMDL
MODEL 4
REMARK VINA RESULT:    -7.425      3.678      4.657
REMARK INTER + INTRA:         -12.081
REMARK INTER:                 -11.541
REMARK INTRA:                  -0.540
REMARK UNBOUND:                -1.184
REMARK  Name = 
REMARK  9 active torsions:
REMARK  status: ('A' for Active; 'I' for Inactive)
REMARK    1  A    between atoms: C_1  and  C_2
REMARK    2  A    between atoms: C_2  and  C_3
REMARK    3  A    between atoms: C_7  and  C_8
REMARK    4  A    between atoms: C_8  and  C_9
REMARK    5  A    between atoms: C_9  and  N_10
REMARK    6  A    between atoms: N_10  and  C_11
REMARK    7  A    between atoms: C_14  and  C_15
REMARK    8  A    between atoms: N_24  and  C_25
REMARK    9  A    between atoms: C_25  and  C_26
REMARK                            x       y       z     vdW  Elec       q    Type
REMARK                         _______ _______ _______ _____ _____    ______ ____
ROOT
ATOM      1  C   UNL     1      48.412   7.153  14.023  0.00  0.00    +0.000 A 
ATOM      2  C   UNL     1      49.023   7.842  12.964  0.00  0.00    +0.000 A 
ATOM      3  C   UNL     1      48.535   7.739  11.657  0.00  0.00    +0.000 A 
ATOM      4  C   UNL     1      47.434   6.931  11.372  0.00  0.00    +0.000 A 
ATOM      5  C   UNL     1      46.795   6.229  12.396  0.00  0.00    +0.000 A 
ATOM      6  C   UNL     1      47.287   6.380  13.709  0.00  0.00    +0.000 A 
ENDROOT
BRANCH   1   8
ATOM      7  C   UNL     1      50.552   7.206  15.289  0.00  0.00    +0.000 C 
ATOM      8  C   UNL     1      49.011   7.172  15.450  0.00  0.00    +0.000 C 
ATOM      9  C   UNL     1      48.498   8.413  16.222  0.00  0.00    +0.000 C 
ATOM     10  C   UNL     1      48.955   8.426  17.681  0.00  0.00    +0.000 C 
ATOM     11  C   UNL     1      48.613   7.123  18.404  0.00  0.00    +0.000 C 
ATOM     12  N   UNL     1      49.164   5.963  17.694  0.00  0.00    +0.000 NA
ATOM     13  C   UNL     1      48.642   5.915  16.310  0.00  0.00    +0.000 C 
BRANCH  12  14
ATOM     14  C   UNL     1      48.871   4.685  18.403  0.00  0.00    +0.000 C 
BRANCH  14  15
ATOM     15  C   UNL     1      47.998   3.610  17.709  0.00  0.00    +0.000 C 
ATOM     16  F   UNL     1      46.773   4.054  17.356  0.00  0.00    +0.000 F 
ATOM     17  F   UNL     1      48.607   3.162  16.584  0.00  0.00    +0.000 F 
ATOM     18  F   UNL     1      47.820   2.539  18.519  0.00  0.00    +0.000 F 
ENDBRANCH  14  15
ENDBRANCH  12  14
ENDBRANCH   1   8
BRANCH   5  19
ATOM     19  C   UNL     1      45.637   5.296  12.066  0.00  0.00    +0.000 C 
BRANCH  19  20
ATOM     20  C   UNL     1      44.707   5.860  10.986  0.00  0.00    +0.000 C 
BRANCH  20  21
ATOM     21  N   UNL     1      44.021   4.847  10.183  0.00  0.00    +0.000 N 
ATOM     22  H   UNL     1      43.263   5.244   9.630  0.00  0.00    +0.000 HD
BRANCH  21  23
ATOM     23  C   UNL     1      44.895   4.084   9.376  0.00  0.00    +0.000 A 
ATOM     24  C   UNL     1      44.943   2.693   9.354  0.00  0.00    +0.000 A 
ATOM     25  N   UNL     1      45.749   1.951   8.569  0.00  0.00    +0.000 NA
ATOM     26  C   UNL     1      46.527   2.656   7.720  0.00  0.00    +0.000 A 
ATOM     27  N   UNL     1      46.540   3.996   7.595  0.00  0.00    +0.000 NA
ATOM     28  C   UNL     1      45.708   4.669   8.418  0.00  0.00    +0.000 A 
BRANCH  26  29
ATOM     29  C   UNL     1      47.442   1.835   6.839  0.00  0.00    +0.000 C 
ATOM     30  N   UNL     1      48.525   2.510   6.324  0.00  0.00    +0.000 N 
ATOM     31  O   UNL     1      47.263   0.650   6.580  0.00  0.00    +0.000 OA
ATOM     32  H   UNL     1      48.679   3.481   6.566  0.00  0.00    +0.000 HD
ATOM     33  H   UNL     1      49.185   2.009   5.748  0.00  0.00    +0.000 HD
ENDBRANCH  26  29
ENDBRANCH  21  23
ENDBRANCH  20  21
ENDBRANCH  19  20
ENDBRANCH   5  19
TORSDOF 8
ENDMDL
MODEL 5
REMARK VINA RESULT:    -7.342      4.318      7.807
REMARK INTER + INTRA:         -11.959
REMARK INTER:                 -10.754
REMARK INTRA:                  -1.205
REMARK UNBOUND:                -1.184
REMARK  Name = 
REMARK  9 active torsions:
REMARK  status: ('A' for Active; 'I' for Inactive)
REMARK    1  A    between atoms: C_1  and  C_2
REMARK    2  A    between atoms: C_2  and  C_3
REMARK    3  A    between atoms: C_7  and  C_8
REMARK    4  A    between atoms: C_8  and  C_9
REMARK    5  A    between atoms: C_9  and  N_10
REMARK    6  A    between atoms: N_10  and  C_11
REMARK    7  A    between atoms: C_14  and  C_15
REMARK    8  A    between atoms: N_24  and  C_25
REMARK    9  A    between atoms: C_25  and  C_26
REMARK                            x       y       z     vdW  Elec       q    Type
REMARK                         _______ _______ _______ _____ _____    ______ ____
ROOT
ATOM      1  C   UNL     1      47.057   6.781  12.556  0.00  0.00    +0.000 A 
ATOM      2  C   UNL     1      47.953   7.172  11.549  0.00  0.00    +0.000 A 
ATOM      3  C   UNL     1      48.906   8.171  11.775  0.00  0.00    +0.000 A 
ATOM      4  C   UNL     1      48.976   8.817  13.009  0.00  0.00    +0.000 A 
ATOM      5  C   UNL     1      48.105   8.459  14.040  0.00  0.00    +0.000 A 
ATOM      6  C   UNL     1      47.179   7.424  13.795  0.00  0.00    +0.000 A 
ENDROOT
BRANCH   1   8
ATOM      7  C   UNL     1      46.401   4.402  12.865  0.00  0.00    +0.000 C 
ATOM      8  C   UNL     1      45.929   5.758  12.281  0.00  0.00    +0.000 C 
ATOM      9  C   UNL     1      44.613   6.230  12.948  0.00  0.00    +0.000 C 
ATOM     10  C   UNL     1      43.428   5.325  12.610  0.00  0.00    +0.000 C 
ATOM     11  C   UNL     1      43.264   5.127  11.103  0.00  0.00    +0.000 C 
ATOM     12  N   UNL     1      44.500   4.616  10.499  0.00  0.00    +0.000 NA
ATOM     13  C   UNL     1      45.620   5.548  10.760  0.00  0.00    +0.000 C 
BRANCH  12  14
ATOM     14  C   UNL     1      44.350   4.382   9.035  0.00  0.00    +0.000 C 
BRANCH  14  15
ATOM     15  C   UNL     1      45.377   3.489   8.295  0.00  0.00    +0.000 C 
ATOM     16  F   UNL     1      45.749   2.398   8.997  0.00  0.00    +0.000 F 
ATOM     17  F   UNL     1      44.863   3.058   7.117  0.00  0.00    +0.000 F 
ATOM     18  F   UNL     1      46.502   4.186   8.008  0.00  0.00    +0.000 F 
ENDBRANCH  14  15
ENDBRANCH  12  14
ENDBRANCH   1   8
BRANCH   5  19
ATOM     19  C   UNL     1      48.144   9.217  15.361  0.00  0.00    +0.000 C 
BRANCH  19  20
ATOM     20  C   UNL     1      49.003   8.521  16.422  0.00  0.00    +0.000 C 
BRANCH  20  21
ATOM     21  N   UNL     1      48.268   7.605  17.296  0.00  0.00    +0.000 N 
ATOM     22  H   UNL     1      47.264   7.636  17.125  0.00  0.00    +0.000 HD
BRANCH  21  23
ATOM     23  C   UNL     1      48.753   6.279  17.253  0.00  0.00    +0.000 A 
ATOM     24  C   UNL     1      47.953   5.146  17.131  0.00  0.00    +0.000 A 
ATOM     25  N   UNL     1      48.401   3.876  17.058  0.00  0.00    +0.000 NA
ATOM     26  C   UNL     1      49.745   3.744  17.067  0.00  0.00    +0.000 A 
ATOM     27  N   UNL     1      50.634   4.752  17.122  0.00  0.00    +0.000 NA
ATOM     28  C   UNL     1      50.108   5.994  17.196  0.00  0.00    +0.000 A 
BRANCH  26  29
ATOM     29  C   UNL     1      50.260   2.324  16.994  0.00  0.00    +0.000 C 
ATOM     30  N   UNL     1      51.131   1.961  17.997  0.00  0.00    +0.000 N 
ATOM     31  O   UNL     1      49.947   1.524  16.119  0.00  0.00    +0.000 OA
ATOM     32  H   UNL     1      51.362   2.620  18.730  0.00  0.00    +0.000 HD
ATOM     33  H   UNL     1      51.490   1.018  18.015  0.00  0.00    +0.000 HD
ENDBRANCH  26  29
ENDBRANCH  21  23
ENDBRANCH  20  21
ENDBRANCH  19  20
ENDBRANCH   5  19
TORSDOF 8
ENDMDL
MODEL 6
REMARK VINA RESULT:    -7.278      4.159      7.910
REMARK INTER + INTRA:         -11.865
REMARK INTER:                 -10.738
REMARK INTRA:                  -1.127
REMARK UNBOUND:                -1.184
REMARK  Name = 
REMARK  9 active torsions:
REMARK  status: ('A' for Active; 'I' for Inactive)
REMARK    1  A    between atoms: C_1  and  C_2
REMARK    2  A    between atoms: C_2  and  C_3
REMARK    3  A    between atoms: C_7  and  C_8
REMARK    4  A    between atoms: C_8  and  C_9
REMARK    5  A    between atoms: C_9  and  N_10
REMARK    6  A    between atoms: N_10  and  C_11
REMARK    7  A    between atoms: C_14  and  C_15
REMARK    8  A    between atoms: N_24  and  C_25
REMARK    9  A    between atoms: C_25  and  C_26
REMARK                            x       y       z     vdW  Elec       q    Type
REMARK                         _______ _______ _______ _____ _____    ______ ____
ROOT
ATOM      1  C   UNL     1      45.657   7.430  12.023  0.00  0.00    +0.000 A 
ATOM      2  C   UNL     1      44.771   8.406  11.540  0.00  0.00    +0.000 A 
ATOM      3  C   UNL     1      45.054   9.769  11.672  0.00  0.00    +0.000 A 
ATOM      4  C   UNL     1      46.221  10.193  12.308  0.00  0.00    +0.000 A 
ATOM      5  C   UNL     1      47.131   9.256  12.801  0.00  0.00    +0.000 A 
ATOM      6  C   UNL     1      46.837   7.889  12.622  0.00  0.00    +0.000 A 
ENDROOT
BRANCH   1   8
ATOM      7  C   UNL     1      46.544   5.155  12.497  0.00  0.00    +0.000 C 
ATOM      8  C   UNL     1      45.301   5.924  11.981  0.00  0.00    +0.000 C 
ATOM      9  C   UNL     1      44.061   5.650  12.869  0.00  0.00    +0.000 C 
ATOM     10  C   UNL     1      43.582   4.200  12.773  0.00  0.00    +0.000 C 
ATOM     11  C   UNL     1      43.356   3.761  11.327  0.00  0.00    +0.000 C 
ATOM     12  N   UNL     1      44.563   3.968  10.516  0.00  0.00    +0.000 NA
ATOM     13  C   UNL     1      44.963   5.392  10.547  0.00  0.00    +0.000 C 
BRANCH  12  14
ATOM     14  C   UNL     1      44.375   3.512   9.110  0.00  0.00    +0.000 C 
BRANCH  14  15
ATOM     15  C   UNL     1      45.605   3.388   8.177  0.00  0.00    +0.000 C 
ATOM     16  F   UNL     1      46.447   4.440   8.250  0.00  0.00    +0.000 F 
ATOM     17  F   UNL     1      46.318   2.276   8.481  0.00  0.00    +0.000 F 
ATOM     18  F   UNL     1      45.217   3.271   6.884  0.00  0.00    +0.000 F 
ENDBRANCH  14  15
ENDBRANCH  12  14
ENDBRANCH   1   8
BRANCH   5  19
ATOM     19  C   UNL     1      48.370   9.728  13.553  0.00  0.00    +0.000 C 
BRANCH  19  20
ATOM     20  C   UNL     1      49.209   8.569  14.103  0.00  0.00    +0.000 C 
BRANCH  20  21
ATOM     21  N   UNL     1      49.289   8.516  15.564  0.00  0.00    +0.000 N 
ATOM     22  H   UNL     1      48.828   9.312  16.002  0.00  0.00    +0.000 HD
BRANCH  21  23
ATOM     23  C   UNL     1      48.828   7.296  16.107  0.00  0.00    +0.000 A 
ATOM     24  C   UNL     1      48.597   6.137  15.371  0.00  0.00    +0.000 A 
ATOM     25  N   UNL     1      48.187   4.958  15.878  0.00  0.00    +0.000 NA
ATOM     26  C   UNL     1      48.041   4.933  17.220  0.00  0.00    +0.000 A 
ATOM     27  N   UNL     1      48.285   5.959  18.057  0.00  0.00    +0.000 NA
ATOM     28  C   UNL     1      48.689   7.107  17.473  0.00  0.00    +0.000 A 
BRANCH  26  29
ATOM     29  C   UNL     1      47.573   3.617  17.801  0.00  0.00    +0.000 C 
ATOM     30  N   UNL     1      48.315   3.144  18.860  0.00  0.00    +0.000 N 
ATOM     31  O   UNL     1      46.607   2.988  17.385  0.00  0.00    +0.000 OA
ATOM     32  H   UNL     1      49.095   3.685  19.214  0.00  0.00    +0.000 HD
ATOM     33  H   UNL     1      48.037   2.282  19.305  0.00  0.00    +0.000 HD
ENDBRANCH  26  29
ENDBRANCH  21  23
ENDBRANCH  20  21
ENDBRANCH  19  20
ENDBRANCH   5  19
TORSDOF 8
ENDMDL
MODEL 7
REMARK VINA RESULT:    -6.721      4.354      6.162
REMARK INTER + INTRA:         -11.049
REMARK INTER:                  -9.989
REMARK INTRA:                  -1.060
REMARK UNBOUND:                -1.184
REMARK  Name = 
REMARK  9 active torsions:
REMARK  status: ('A' for Active; 'I' for Inactive)
REMARK    1  A    between atoms: C_1  and  C_2
REMARK    2  A    between atoms: C_2  and  C_3
REMARK    3  A    between atoms: C_7  and  C_8
REMARK    4  A    between atoms: C_8  and  C_9
REMARK    5  A    between atoms: C_9  and  N_10
REMARK    6  A    between atoms: N_10  and  C_11
REMARK    7  A    between atoms: C_14  and  C_15
REMARK    8  A    between atoms: N_24  and  C_25
REMARK    9  A    between atoms: C_25  and  C_26
REMARK                            x       y       z     vdW  Elec       q    Type
REMARK                         _______ _______ _______ _____ _____    ______ ____
ROOT
ATOM      1  C   UNL     1      50.499   7.357  15.247  0.00  0.00    +0.000 A 
ATOM      2  C   UNL     1      51.567   8.140  14.780  0.00  0.00    +0.000 A 
ATOM      3  C   UNL     1      51.556   8.684  13.492  0.00  0.00    +0.000 A 
ATOM      4  C   UNL     1      50.487   8.444  12.629  0.00  0.00    +0.000 A 
ATOM      5  C   UNL     1      49.404   7.672  13.052  0.00  0.00    +0.000 A 
ATOM      6  C   UNL     1      49.424   7.167  14.369  0.00  0.00    +0.000 A 
ENDROOT
BRANCH   1   8
ATOM      7  C   UNL     1      52.022   6.226  16.855  0.00  0.00    +0.000 C 
ATOM      8  C   UNL     1      50.551   6.660  16.627  0.00  0.00    +0.000 C 
ATOM      9  C   UNL     1      50.077   7.638  17.731  0.00  0.00    +0.000 C 
ATOM     10  C   UNL     1      49.987   6.972  19.105  0.00  0.00    +0.000 C 
ATOM     11  C   UNL     1      49.146   5.696  19.074  0.00  0.00    +0.000 C 
ATOM     12  N   UNL     1      49.651   4.754  18.068  0.00  0.00    +0.000 NA
ATOM     13  C   UNL     1      49.649   5.384  16.729  0.00  0.00    +0.000 C 
BRANCH  12  14
ATOM     14  C   UNL     1      48.866   3.488  18.047  0.00  0.00    +0.000 C 
BRANCH  14  15
ATOM     15  C   UNL     1      47.473   3.465  17.371  0.00  0.00    +0.000 C 
ATOM     16  F   UNL     1      46.743   4.576  17.600  0.00  0.00    +0.000 F 
ATOM     17  F   UNL     1      47.603   3.334  16.027  0.00  0.00    +0.000 F 
ATOM     18  F   UNL     1      46.745   2.408  17.805  0.00  0.00    +0.000 F 
ENDBRANCH  14  15
ENDBRANCH  12  14
ENDBRANCH   1   8
BRANCH   5  19
ATOM     19  C   UNL     1      48.272   7.359  12.081  0.00  0.00    +0.000 C 
BRANCH  19  20
ATOM     20  C   UNL     1      47.015   8.196  12.341  0.00  0.00    +0.000 C 
BRANCH  20  21
ATOM     21  N   UNL     1      46.032   7.560  13.220  0.00  0.00    +0.000 N 
ATOM     22  H   UNL     1      45.283   8.199  13.483  0.00  0.00    +0.000 HD
BRANCH  21  23
ATOM     23  C   UNL     1      45.514   6.353  12.701  0.00  0.00    +0.000 A 
ATOM     24  C   UNL     1      45.471   5.145  13.392  0.00  0.00    +0.000 A 
ATOM     25  N   UNL     1      44.952   3.993  12.923  0.00  0.00    +0.000 NA
ATOM     26  C   UNL     1      44.403   4.073  11.692  0.00  0.00    +0.000 A 
ATOM     27  N   UNL     1      44.323   5.185  10.938  0.00  0.00    +0.000 NA
ATOM     28  C   UNL     1      44.867   6.298  11.476  0.00  0.00    +0.000 A 
BRANCH  26  29
ATOM     29  C   UNL     1      43.824   2.785  11.151  0.00  0.00    +0.000 C 
ATOM     30  N   UNL     1      44.399   2.325   9.988  0.00  0.00    +0.000 N 
ATOM     31  O   UNL     1      42.910   2.167  11.683  0.00  0.00    +0.000 OA
ATOM     32  H   UNL     1      45.172   2.828   9.571  0.00  0.00    +0.000 HD
ATOM     33  H   UNL     1      44.071   1.457   9.591  0.00  0.00    +0.000 HD
ENDBRANCH  26  29
ENDBRANCH  21  23
ENDBRANCH  20  21
ENDBRANCH  19  20
ENDBRANCH   5  19
TORSDOF 8
ENDMDL
MODEL 8
REMARK VINA RESULT:    -6.540      3.831      5.350
REMARK INTER + INTRA:         -10.782
REMARK INTER:                  -9.828
REMARK INTRA:                  -0.955
REMARK UNBOUND:                -1.184
REMARK  Name = 
REMARK  9 active torsions:
REMARK  status: ('A' for Active; 'I' for Inactive)
REMARK    1  A    between atoms: C_1  and  C_2
REMARK    2  A    between atoms: C_2  and  C_3
REMARK    3  A    between atoms: C_7  and  C_8
REMARK    4  A    between atoms: C_8  and  C_9
REMARK    5  A    between atoms: C_9  and  N_10
REMARK    6  A    between atoms: N_10  and  C_11
REMARK    7  A    between atoms: C_14  and  C_15
REMARK    8  A    between atoms: N_24  and  C_25
REMARK    9  A    between atoms: C_25  and  C_26
REMARK                            x       y       z     vdW  Elec       q    Type
REMARK                         _______ _______ _______ _____ _____    ______ ____
ROOT
ATOM      1  C   UNL     1      48.918   7.722  14.400  0.00  0.00    +0.000 A 
ATOM      2  C   UNL     1      49.645   7.317  13.270  0.00  0.00    +0.000 A 
ATOM      3  C   UNL     1      49.229   7.660  11.979  0.00  0.00    +0.000 A 
ATOM      4  C   UNL     1      48.064   8.402  11.785  0.00  0.00    +0.000 A 
ATOM      5  C   UNL     1      47.311   8.828  12.880  0.00  0.00    +0.000 A 
ATOM      6  C   UNL     1      47.774   8.498  14.171  0.00  0.00    +0.000 A 
ENDROOT
BRANCH   1   8
ATOM      7  C   UNL     1      50.858   7.257  15.885  0.00  0.00    +0.000 C 
ATOM      8  C   UNL     1      49.309   7.255  15.822  0.00  0.00    +0.000 C 
ATOM      9  C   UNL     1      48.702   8.211  16.879  0.00  0.00    +0.000 C 
ATOM     10  C   UNL     1      48.948   7.734  18.311  0.00  0.00    +0.000 C 
ATOM     11  C   UNL     1      48.497   6.290  18.524  0.00  0.00    +0.000 C 
ATOM     12  N   UNL     1      49.133   5.388  17.556  0.00  0.00    +0.000 NA
ATOM     13  C   UNL     1      48.813   5.811  16.174  0.00  0.00    +0.000 C 
BRANCH  12  14
ATOM     14  C   UNL     1      48.733   3.969  17.770  0.00  0.00    +0.000 C 
BRANCH  14  15
ATOM     15  C   UNL     1      47.489   3.408  17.038  0.00  0.00    +0.000 C 
ATOM     16  F   UNL     1      47.760   2.915  15.811  0.00  0.00    +0.000 F 
ATOM     17  F   UNL     1      46.927   2.408  17.762  0.00  0.00    +0.000 F 
ATOM     18  F   UNL     1      46.546   4.368  16.888  0.00  0.00    +0.000 F 
ENDBRANCH  14  15
ENDBRANCH  12  14
ENDBRANCH   1   8
BRANCH   5  19
ATOM     19  C   UNL     1      46.004   9.579  12.655  0.00  0.00    +0.000 C 
BRANCH  19  20
ATOM     20  C   UNL     1      44.963   8.748  11.897  0.00  0.00    +0.000 C 
BRANCH  20  21
ATOM     21  N   UNL     1      44.645   7.460  12.516  0.00  0.00    +0.000 N 
ATOM     22  H   UNL     1      43.787   7.499  13.064  0.00  0.00    +0.000 HD
BRANCH  21  23
ATOM     23  C   UNL     1      44.614   6.388  11.595  0.00  0.00    +0.000 A 
ATOM     24  C   UNL     1      45.633   6.085  10.696  0.00  0.00    +0.000 A 
ATOM     25  N   UNL     1      45.632   5.049   9.834  0.00  0.00    +0.000 NA
ATOM     26  C   UNL     1      44.552   4.241   9.912  0.00  0.00    +0.000 A 
ATOM     27  N   UNL     1      43.526   4.382  10.771  0.00  0.00    +0.000 NA
ATOM     28  C   UNL     1      43.598   5.445  11.601  0.00  0.00    +0.000 A 
BRANCH  26  29
ATOM     29  C   UNL     1      44.535   3.080   8.944  0.00  0.00    +0.000 C 
ATOM     30  N   UNL     1      44.570   3.424   7.611  0.00  0.00    +0.000 N 
ATOM     31  O   UNL     1      44.495   1.903   9.285  0.00  0.00    +0.000 OA
ATOM     32  H   UNL     1      44.630   4.397   7.341  0.00  0.00    +0.000 HD
ATOM     33  H   UNL     1      44.585   2.691   6.918  0.00  0.00    +0.000 HD
ENDBRANCH  26  29
ENDBRANCH  21  23
ENDBRANCH  20  21
ENDBRANCH  19  20
ENDBRANCH   5  19
TORSDOF 8
ENDMDL
MODEL 9
REMARK VINA RESULT:    -6.202      2.963      3.742
REMARK INTER + INTRA:         -10.287
REMARK INTER:                  -9.483
REMARK INTRA:                  -0.803
REMARK UNBOUND:                -1.184
REMARK  Name = 
REMARK  9 active torsions:
REMARK  status: ('A' for Active; 'I' for Inactive)
REMARK    1  A    between atoms: C_1  and  C_2
REMARK    2  A    between atoms: C_2  and  C_3
REMARK    3  A    between atoms: C_7  and  C_8
REMARK    4  A    between atoms: C_8  and  C_9
REMARK    5  A    between atoms: C_9  and  N_10
REMARK    6  A    between atoms: N_10  and  C_11
REMARK    7  A    between atoms: C_14  and  C_15
REMARK    8  A    between atoms: N_24  and  C_25
REMARK    9  A    between atoms: C_25  and  C_26
REMARK                            x       y       z     vdW  Elec       q    Type
REMARK                         _______ _______ _______ _____ _____    ______ ____
ROOT
ATOM      1  C   UNL     1      48.506   7.005  14.180  0.00  0.00    +0.000 A 
ATOM      2  C   UNL     1      49.406   7.398  13.176  0.00  0.00    +0.000 A 
ATOM      3  C   UNL     1      48.999   7.507  11.842  0.00  0.00    +0.000 A 
ATOM      4  C   UNL     1      47.688   7.209  11.474  0.00  0.00    +0.000 A 
ATOM      5  C   UNL     1      46.759   6.816  12.440  0.00  0.00    +0.000 A 
ATOM      6  C   UNL     1      47.188   6.750  13.782  0.00  0.00    +0.000 A 
ENDROOT
BRANCH   1   8
ATOM      7  C   UNL     1      48.615   8.057  16.430  0.00  0.00    +0.000 C 
ATOM      8  C   UNL     1      48.973   6.775  15.637  0.00  0.00    +0.000 C 
ATOM      9  C   UNL     1      48.264   5.531  16.228  0.00  0.00    +0.000 C 
ATOM     10  C   UNL     1      48.774   5.175  17.625  0.00  0.00    +0.000 C 
ATOM     11  C   UNL     1      50.295   5.037  17.667  0.00  0.00    +0.000 C 
ATOM     12  N   UNL     1      50.951   6.251  17.164  0.00  0.00    +0.000 NA
ATOM     13  C   UNL     1      50.514   6.532  15.779  0.00  0.00    +0.000 C 
BRANCH  12  14
ATOM     14  C   UNL     1      52.436   6.150  17.230  0.00  0.00    +0.000 C 
BRANCH  14  15
ATOM     15  C   UNL     1      53.306   7.204  16.501  0.00  0.00    +0.000 C 
ATOM     16  F   UNL     1      53.337   7.047  15.162  0.00  0.00    +0.000 F 
ATOM     17  F   UNL     1      52.841   8.453  16.753  0.00  0.00    +0.000 F 
ATOM     18  F   UNL     1      54.585   7.160  16.942  0.00  0.00    +0.000 F 
ENDBRANCH  14  15
ENDBRANCH  12  14
ENDBRANCH   1   8
BRANCH   5  19
ATOM     19  C   UNL     1      45.348   6.427  12.019  0.00  0.00    +0.000 C 
BRANCH  19  20
ATOM     20  C   UNL     1      45.149   4.910  11.933  0.00  0.00    +0.000 C 
BRANCH  20  21
ATOM     21  N   UNL     1      44.330   4.466  10.804  0.00  0.00    +0.000 N 
ATOM     22  H   UNL     1      43.709   5.201  10.469  0.00  0.00    +0.000 HD
BRANCH  21  23
ATOM     23  C   UNL     1      45.086   3.914   9.745  0.00  0.00    +0.000 A 
ATOM     24  C   UNL     1      45.202   2.553   9.479  0.00  0.00    +0.000 A 
ATOM     25  N   UNL     1      45.893   2.012   8.456  0.00  0.00    +0.000 NA
ATOM     26  C   UNL     1      46.471   2.904   7.622  0.00  0.00    +0.000 A 
ATOM     27  N   UNL     1      46.391   4.243   7.727  0.00  0.00    +0.000 NA
ATOM     28  C   UNL     1      45.684   4.708   8.779  0.00  0.00    +0.000 A 
BRANCH  26  29
ATOM     29  C   UNL     1      47.256   2.310   6.475  0.00  0.00    +0.000 C 
ATOM     30  N   UNL     1      47.161   2.990   5.281  0.00  0.00    +0.000 N 
ATOM     31  O   UNL     1      47.940   1.297   6.563  0.00  0.00    +0.000 OA
ATOM     32  H   UNL     1      46.615   3.841   5.226  0.00  0.00    +0.000 HD
ATOM     33  H   UNL     1      47.682   2.655   4.485  0.00  0.00    +0.000 HD
ENDBRANCH  26  29
ENDBRANCH  21  23
ENDBRANCH  20  21
ENDBRANCH  19  20
ENDBRANCH   5  19
TORSDOF 8
ENDMDL
