MODEL 1
REMARK VINA RESULT:    -8.457      0.000      0.000
REMARK INTER + INTRA:         -11.130
REMARK INTER:                 -10.435
REMARK INTRA:                  -0.695
REMARK UNBOUND:                -0.695
REMARK  Name = 
REMARK  4 active torsions:
REMARK  status: ('A' for Active; 'I' for Inactive)
REMARK    1  A    between atoms: C_2  and  C_4
REMARK    2  A    between atoms: C_7  and  C_8
REMARK    3  A    between atoms: C_8  and  N_9
REMARK    4  A    between atoms: C_12  and  N_13
REMARK                            x       y       z     vdW  Elec       q    Type
REMARK                         _______ _______ _______ _____ _____    ______ ____
ROOT
ATOM      1  N   UNL     1      43.985   3.993  11.692  0.00  0.00    +0.000 N 
ATOM      2  C   UNL     1      45.131   4.471  12.320  0.00  0.00    +0.000 A 
ATOM      3  C   UNL     1      45.649   5.744  12.080  0.00  0.00    +0.000 A 
ATOM      4  C   UNL     1      46.806   6.184  12.721  0.00  0.00    +0.000 A 
ATOM      5  C   UNL     1      47.382   5.313  13.640  0.00  0.00    +0.000 A 
ATOM      6  C   UNL     1      46.781   4.087  13.875  0.00  0.00    +0.000 A 
ATOM      7  N   UNL     1      45.684   3.646  13.224  0.00  0.00    +0.000 NA
ATOM      8  H   UNL     1      43.987   2.982  11.823  0.00  0.00    +0.000 HD
ENDROOT
BRANCH   4   9
ATOM      9  N   UNL     1      47.346   7.438  12.498  0.00  0.00    +0.000 N 
ATOM     10  C   UNL     1      48.558   7.629  11.684  0.00  0.00    +0.000 C 
ATOM     11  C   UNL     1      49.751   8.058  12.548  0.00  0.00    +0.000 C 
ATOM     12  O   UNL     1      49.434   9.206  13.349  0.00  0.00    +0.000 OA
ATOM     13  C   UNL     1      48.338   8.906  14.229  0.00  0.00    +0.000 C 
ATOM     14  C   UNL     1      47.066   8.525  13.452  0.00  0.00    +0.000 C 
ENDBRANCH   4   9
BRANCH   1  15
ATOM     15  C   UNL     1      43.739   4.434  10.328  0.00  0.00    +0.000 C 
BRANCH  15  19
ATOM     16  C   UNL     1      46.462   2.499   7.684  0.00  0.00    +0.000 A 
ATOM     17  C   UNL     1      46.331   3.884   7.607  0.00  0.00    +0.000 A 
ATOM     18  C   UNL     1      45.420   4.527   8.444  0.00  0.00    +0.000 A 
ATOM     19  C   UNL     1      44.662   3.764   9.332  0.00  0.00    +0.000 A 
ATOM     20  N   UNL     1      44.766   2.414   9.400  0.00  0.00    +0.000 NA
ATOM     21  C   UNL     1      45.651   1.808   8.570  0.00  0.00    +0.000 A 
BRANCH  16  23
ATOM     22  N   UNL     1      48.544   2.416   6.444  0.00  0.00    +0.000 N 
ATOM     23  C   UNL     1      47.432   1.740   6.859  0.00  0.00    +0.000 C 
ATOM     24  O   UNL     1      47.270   0.554   6.611  0.00  0.00    +0.000 OA
ATOM     25  H   UNL     1      49.255   1.868   5.980  0.00  0.00    +0.000 HD
ATOM     26  H   UNL     1      48.827   3.297   6.852  0.00  0.00    +0.000 HD
ENDBRANCH  16  23
ENDBRANCH  15  19
ENDBRANCH   1  15
TORSDOF 4
ENDMDL
MODEL 2
REMARK VINA RESULT:    -8.112      1.722      2.584
REMARK INTER + INTRA:         -10.704
REMARK INTER:                 -10.141
REMARK INTRA:                  -0.563
REMARK UNBOUND:                -0.695
REMARK  Name = 
REMARK  4 active torsions:
REMARK  status: ('A' for Active; 'I' for Inactive)
REMARK    1  A    between atoms: C_2  and  C_4
REMARK    2  A    between atoms: C_7  and  C_8
REMARK    3  A    between atoms: C_8  and  N_9
REMARK    4  A    between atoms: C_12  and  N_13
REMARK                            x       y       z     vdW  Elec       q    Type
REMARK                         _______ _______ _______ _____ _____    ______ ____
ROOT
ATOM      1  N   UNL     1      44.077   5.975  10.255  0.00  0.00    +0.000 N 
ATOM      2  C   UNL     1      44.832   6.545  11.276  0.00  0.00    +0.000 A 
ATOM      3  C   UNL     1      45.861   5.863  11.925  0.00  0.00    +0.000 A 
ATOM      4  C   UNL     1      46.589   6.463  12.951  0.00  0.00    +0.000 A 
ATOM      5  C   UNL     1      46.269   7.783  13.256  0.00  0.00    +0.000 A 
ATOM      6  C   UNL     1      45.276   8.421  12.531  0.00  0.00    +0.000 A 
ATOM      7  N   UNL     1      44.544   7.825  11.565  0.00  0.00    +0.000 NA
ATOM      8  H   UNL     1      43.245   6.556  10.155  0.00  0.00    +0.000 HD
ENDROOT
BRANCH   4   9
ATOM      9  N   UNL     1      47.610   5.810  13.617  0.00  0.00    +0.000 N 
ATOM     10  C   UNL     1      47.418   4.486  14.229  0.00  0.00    +0.000 C 
ATOM     11  C   UNL     1      47.440   4.566  15.760  0.00  0.00    +0.000 C 
ATOM     12  O   UNL     1      48.621   5.230  16.235  0.00  0.00    +0.000 OA
ATOM     13  C   UNL     1      48.674   6.571  15.722  0.00  0.00    +0.000 C 
ATOM     14  C   UNL     1      48.721   6.595  14.184  0.00  0.00    +0.000 C 
ENDBRANCH   4   9
BRANCH   1  15
ATOM     15  C   UNL     1      43.820   4.546  10.334  0.00  0.00    +0.000 C 
BRANCH  15  19
ATOM     16  C   UNL     1      46.359   2.270   7.781  0.00  0.00    +0.000 A 
ATOM     17  C   UNL     1      46.289   3.648   7.592  0.00  0.00    +0.000 A 
ATOM     18  C   UNL     1      45.438   4.402   8.399  0.00  0.00    +0.000 A 
ATOM     19  C   UNL     1      44.676   3.753   9.371  0.00  0.00    +0.000 A 
ATOM     20  N   UNL     1      44.720   2.409   9.549  0.00  0.00    +0.000 NA
ATOM     21  C   UNL     1      45.548   1.695   8.746  0.00  0.00    +0.000 A 
BRANCH  16  23
ATOM     22  N   UNL     1      48.380   1.989   6.472  0.00  0.00    +0.000 N 
ATOM     23  C   UNL     1      47.264   1.400   6.994  0.00  0.00    +0.000 C 
ATOM     24  O   UNL     1      47.049   0.203   6.867  0.00  0.00    +0.000 OA
ATOM     25  H   UNL     1      49.050   1.373   6.034  0.00  0.00    +0.000 HD
ATOM     26  H   UNL     1      48.712   2.893   6.783  0.00  0.00    +0.000 HD
ENDBRANCH  16  23
ENDBRANCH  15  19
ENDBRANCH   1  15
TORSDOF 4
ENDMDL
MODEL 3
REMARK VINA RESULT:    -7.214      3.182      3.868
REMARK INTER + INTRA:          -9.596
REMARK INTER:                  -9.011
REMARK INTRA:                  -0.585
REMARK UNBOUND:                -0.695
REMARK  Name = 
REMARK  4 active torsions:
REMARK  status: ('A' for Active; 'I' for Inactive)
REMARK    1  A    between atoms: C_2  and  C_4
REMARK    2  A    between atoms: C_7  and  C_8
REMARK    3  A    between atoms: C_8  and  N_9
REMARK    4  A    between atoms: C_12  and  N_13
REMARK                            x       y       z     vdW  Elec       q    Type
REMARK                         _______ _______ _______ _____ _____    ______ ____
ROOT
ATOM      1  N   UNL     1      44.672   5.221  11.544  0.00  0.00    +0.000 N 
ATOM      2  C   UNL     1      45.076   6.523  11.823  0.00  0.00    +0.000 A 
ATOM      3  C   UNL     1      44.371   7.643  11.384  0.00  0.00    +0.000 A 
ATOM      4  C   UNL     1      44.813   8.933  11.674  0.00  0.00    +0.000 A 
ATOM      5  C   UNL     1      45.956   9.041  12.460  0.00  0.00    +0.000 A 
ATOM      6  C   UNL     1      46.573   7.886  12.913  0.00  0.00    +0.000 A 
ATOM      7  N   UNL     1      46.167   6.638  12.597  0.00  0.00    +0.000 NA
ATOM      8  H   UNL     1      45.478   4.625  11.727  0.00  0.00    +0.000 HD
ENDROOT
BRANCH   4   9
ATOM      9  N   UNL     1      44.139  10.063  11.246  0.00  0.00    +0.000 N 
ATOM     10  C   UNL     1      42.689  10.224  11.441  0.00  0.00    +0.000 C 
ATOM     11  C   UNL     1      41.932  10.144  10.109  0.00  0.00    +0.000 C 
ATOM     12  O   UNL     1      42.467  11.063   9.144  0.00  0.00    +0.000 OA
ATOM     13  C   UNL     1      43.847  10.757   8.885  0.00  0.00    +0.000 C 
ATOM     14  C   UNL     1      44.709  10.874  10.155  0.00  0.00    +0.000 C 
ENDBRANCH   4   9
BRANCH   1  15
ATOM     15  C   UNL     1      44.014   4.986  10.268  0.00  0.00    +0.000 C 
BRANCH  15  19
ATOM     16  C   UNL     1      46.429   2.430   7.862  0.00  0.00    +0.000 A 
ATOM     17  C   UNL     1      46.515   3.806   7.664  0.00  0.00    +0.000 A 
ATOM     18  C   UNL     1      45.707   4.654   8.422  0.00  0.00    +0.000 A 
ATOM     19  C   UNL     1      44.831   4.098   9.354  0.00  0.00    +0.000 A 
ATOM     20  N   UNL     1      44.723   2.759   9.540  0.00  0.00    +0.000 NA
ATOM     21  C   UNL     1      45.511   1.953   8.786  0.00  0.00    +0.000 A 
BRANCH  16  23
ATOM     22  N   UNL     1      48.398   1.960   6.529  0.00  0.00    +0.000 N 
ATOM     23  C   UNL     1      47.276   1.462   7.128  0.00  0.00    +0.000 C 
ATOM     24  O   UNL     1      47.012   0.268   7.108  0.00  0.00    +0.000 OA
ATOM     25  H   UNL     1      49.031   1.283   6.127  0.00  0.00    +0.000 HD
ATOM     26  H   UNL     1      48.773   2.872   6.754  0.00  0.00    +0.000 HD
ENDBRANCH  16  23
ENDBRANCH  15  19
ENDBRANCH   1  15
TORSDOF 4
ENDMDL
MODEL 4
REMARK VINA RESULT:    -7.177      1.767      2.549
REMARK INTER + INTRA:          -9.550
REMARK INTER:                  -9.063
REMARK INTRA:                  -0.488
REMARK UNBOUND:                -0.695
REMARK  Name = 
REMARK  4 active torsions:
REMARK  status: ('A' for Active; 'I' for Inactive)
REMARK    1  A    between atoms: C_2  and  C_4
REMARK    2  A    between atoms: C_7  and  C_8
REMARK    3  A    between atoms: C_8  and  N_9
REMARK    4  A    between atoms: C_12  and  N_13
REMARK                            x       y       z     vdW  Elec       q    Type
REMARK                         _______ _______ _______ _____ _____    ______ ____
ROOT
ATOM      1  N   UNL     1      44.184   6.185  10.590  0.00  0.00    +0.000 N 
ATOM      2  C   UNL     1      44.979   6.906  11.475  0.00  0.00    +0.000 A 
ATOM      3  C   UNL     1      46.198   6.428  11.956  0.00  0.00    +0.000 A 
ATOM      4  C   UNL     1      46.963   7.174  12.851  0.00  0.00    +0.000 A 
ATOM      5  C   UNL     1      46.473   8.430  13.198  0.00  0.00    +0.000 A 
ATOM      6  C   UNL     1      45.284   8.868  12.636  0.00  0.00    +0.000 A 
ATOM      7  N   UNL     1      44.525   8.127  11.801  0.00  0.00    +0.000 NA
ATOM      8  H   UNL     1      43.259   6.614  10.620  0.00  0.00    +0.000 HD
ENDROOT
BRANCH   4   9
ATOM      9  N   UNL     1      48.172   6.724  13.350  0.00  0.00    +0.000 N 
ATOM     10  C   UNL     1      48.326   6.301  14.751  0.00  0.00    +0.000 C 
ATOM     11  C   UNL     1      49.188   7.292  15.544  0.00  0.00    +0.000 C 
ATOM     12  O   UNL     1      50.446   7.532  14.895  0.00  0.00    +0.000 OA
ATOM     13  C   UNL     1      50.228   8.085  13.587  0.00  0.00    +0.000 C 
ATOM     14  C   UNL     1      49.423   7.131  12.687  0.00  0.00    +0.000 C 
ENDBRANCH   4   9
BRANCH   1  15
ATOM     15  C   UNL     1      44.191   4.736  10.714  0.00  0.00    +0.000 C 
BRANCH  15  19
ATOM     16  C   UNL     1      46.387   2.930   7.542  0.00  0.00    +0.000 A 
ATOM     17  C   UNL     1      45.744   2.104   8.460  0.00  0.00    +0.000 A 
ATOM     18  C   UNL     1      45.048   2.680   9.522  0.00  0.00    +0.000 A 
ATOM     19  C   UNL     1      45.020   4.070   9.638  0.00  0.00    +0.000 A 
ATOM     20  N   UNL     1      45.661   4.884   8.762  0.00  0.00    +0.000 NA
ATOM     21  C   UNL     1      46.340   4.301   7.743  0.00  0.00    +0.000 A 
BRANCH  16  23
ATOM     22  N   UNL     1      48.282   1.736   6.614  0.00  0.00    +0.000 N 
ATOM     23  C   UNL     1      47.117   2.404   6.365  0.00  0.00    +0.000 C 
ATOM     24  O   UNL     1      46.669   2.514   5.233  0.00  0.00    +0.000 OA
ATOM     25  H   UNL     1      48.718   1.282   5.824  0.00  0.00    +0.000 HD
ATOM     26  H   UNL     1      48.529   1.404   7.538  0.00  0.00    +0.000 HD
ENDBRANCH  16  23
ENDBRANCH  15  19
ENDBRANCH   1  15
TORSDOF 4
ENDMDL
MODEL 5
REMARK VINA RESULT:    -7.058      4.272      7.910
REMARK INTER + INTRA:          -9.403
REMARK INTER:                  -8.837
REMARK INTRA:                  -0.566
REMARK UNBOUND:                -0.695
REMARK  Name = 
REMARK  4 active torsions:
REMARK  status: ('A' for Active; 'I' for Inactive)
REMARK    1  A    between atoms: C_2  and  C_4
REMARK    2  A    between atoms: C_7  and  C_8
REMARK    3  A    between atoms: C_8  and  N_9
REMARK    4  A    between atoms: C_12  and  N_13
REMARK                            x       y       z     vdW  Elec       q    Type
REMARK                         _______ _______ _______ _____ _____    ______ ____
ROOT
ATOM      1  N   UNL     1      47.882   5.878  15.418  0.00  0.00    +0.000 N 
ATOM      2  C   UNL     1      47.473   6.035  14.098  0.00  0.00    +0.000 A 
ATOM      3  C   UNL     1      46.255   5.551  13.621  0.00  0.00    +0.000 A 
ATOM      4  C   UNL     1      45.884   5.718  12.288  0.00  0.00    +0.000 A 
ATOM      5  C   UNL     1      46.764   6.430  11.478  0.00  0.00    +0.000 A 
ATOM      6  C   UNL     1      47.929   6.936  12.031  0.00  0.00    +0.000 A 
ATOM      7  N   UNL     1      48.305   6.738  13.312  0.00  0.00    +0.000 NA
ATOM      8  H   UNL     1      48.884   6.062  15.432  0.00  0.00    +0.000 HD
ENDROOT
BRANCH   4   9
ATOM      9  N   UNL     1      44.686   5.243  11.785  0.00  0.00    +0.000 N 
ATOM     10  C   UNL     1      43.663   4.640  12.654  0.00  0.00    +0.000 C 
ATOM     11  C   UNL     1      43.538   3.131  12.408  0.00  0.00    +0.000 C 
ATOM     12  O   UNL     1      43.326   2.840  11.018  0.00  0.00    +0.000 OA
ATOM     13  C   UNL     1      44.434   3.323  10.240  0.00  0.00    +0.000 C 
ATOM     14  C   UNL     1      44.603   4.847  10.368  0.00  0.00    +0.000 C 
ENDBRANCH   4   9
BRANCH   1  15
ATOM     15  C   UNL     1      47.473   4.661  16.102  0.00  0.00    +0.000 C 
BRANCH  15  19
ATOM     16  C   UNL     1      50.906   2.496  17.398  0.00  0.00    +0.000 A 
ATOM     17  C   UNL     1      49.791   1.780  16.968  0.00  0.00    +0.000 A 
ATOM     18  C   UNL     1      48.649   2.475  16.571  0.00  0.00    +0.000 A 
ATOM     19  C   UNL     1      48.654   3.868  16.621  0.00  0.00    +0.000 A 
ATOM     20  N   UNL     1      49.725   4.575  17.058  0.00  0.00    +0.000 NA
ATOM     21  C   UNL     1      50.822   3.879  17.448  0.00  0.00    +0.000 A 
BRANCH  16  23
ATOM     22  N   UNL     1      52.105   0.510  18.099  0.00  0.00    +0.000 N 
ATOM     23  C   UNL     1      52.172   1.841  17.800  0.00  0.00    +0.000 C 
ATOM     24  O   UNL     1      53.233   2.449  17.810  0.00  0.00    +0.000 OA
ATOM     25  H   UNL     1      52.984   0.041  18.263  0.00  0.00    +0.000 HD
ATOM     26  H   UNL     1      51.311  -0.064  17.843  0.00  0.00    +0.000 HD
ENDBRANCH  16  23
ENDBRANCH  15  19
ENDBRANCH   1  15
TORSDOF 4
ENDMDL
MODEL 6
REMARK VINA RESULT:    -6.892      3.047      7.831
REMARK INTER + INTRA:          -9.199
REMARK INTER:                  -8.753
REMARK INTRA:                  -0.446
REMARK UNBOUND:                -0.695
REMARK  Name = 
REMARK  4 active torsions:
REMARK  status: ('A' for Active; 'I' for Inactive)
REMARK    1  A    between atoms: C_2  and  C_4
REMARK    2  A    between atoms: C_7  and  C_8
REMARK    3  A    between atoms: C_8  and  N_9
REMARK    4  A    between atoms: C_12  and  N_13
REMARK                            x       y       z     vdW  Elec       q    Type
REMARK                         _______ _______ _______ _____ _____    ______ ____
ROOT
ATOM      1  N   UNL     1      45.345   4.078  13.762  0.00  0.00    +0.000 N 
ATOM      2  C   UNL     1      44.685   4.381  12.575  0.00  0.00    +0.000 A 
ATOM      3  C   UNL     1      44.912   3.687  11.386  0.00  0.00    +0.000 A 
ATOM      4  C   UNL     1      44.240   4.027  10.213  0.00  0.00    +0.000 A 
ATOM      5  C   UNL     1      43.303   5.052  10.304  0.00  0.00    +0.000 A 
ATOM      6  C   UNL     1      43.083   5.658  11.530  0.00  0.00    +0.000 A 
ATOM      7  N   UNL     1      43.765   5.356  12.655  0.00  0.00    +0.000 NA
ATOM      8  H   UNL     1      45.213   4.881  14.377  0.00  0.00    +0.000 HD
ENDROOT
BRANCH   4   9
ATOM      9  N   UNL     1      44.449   3.362   9.019  0.00  0.00    +0.000 N 
ATOM     10  C   UNL     1      44.634   1.903   8.962  0.00  0.00    +0.000 C 
ATOM     11  C   UNL     1      46.076   1.535   8.591  0.00  0.00    +0.000 C 
ATOM     12  O   UNL     1      46.493   2.194   7.385  0.00  0.00    +0.000 OA
ATOM     13  C   UNL     1      46.432   3.620   7.556  0.00  0.00    +0.000 C 
ATOM     14  C   UNL     1      45.004   4.099   7.870  0.00  0.00    +0.000 C 
ENDBRANCH   4   9
BRANCH   1  15
ATOM     15  C   UNL     1      46.717   3.604  13.660  0.00  0.00    +0.000 C 
BRANCH  15  19
ATOM     16  C   UNL     1      48.694   3.912  17.421  0.00  0.00    +0.000 A 
ATOM     17  C   UNL     1      48.201   5.074  16.831  0.00  0.00    +0.000 A 
ATOM     18  C   UNL     1      47.580   4.993  15.585  0.00  0.00    +0.000 A 
ATOM     19  C   UNL     1      47.474   3.750  14.962  0.00  0.00    +0.000 A 
ATOM     20  N   UNL     1      47.970   2.615  15.517  0.00  0.00    +0.000 NA
ATOM     21  C   UNL     1      48.578   2.719  16.724  0.00  0.00    +0.000 A 
BRANCH  16  23
ATOM     22  N   UNL     1      48.576   3.438  19.795  0.00  0.00    +0.000 N 
ATOM     23  C   UNL     1      49.333   3.901  18.757  0.00  0.00    +0.000 C 
ATOM     24  O   UNL     1      50.499   4.239  18.912  0.00  0.00    +0.000 OA
ATOM     25  H   UNL     1      49.049   3.325  20.681  0.00  0.00    +0.000 HD
ATOM     26  H   UNL     1      47.724   2.912  19.652  0.00  0.00    +0.000 HD
ENDBRANCH  16  23
ENDBRANCH  15  19
ENDBRANCH   1  15
TORSDOF 4
ENDMDL
MODEL 7
REMARK VINA RESULT:    -6.764      4.320      5.750
REMARK INTER + INTRA:          -9.041
REMARK INTER:                  -8.569
REMARK INTRA:                  -0.472
REMARK UNBOUND:                -0.695
REMARK  Name = 
REMARK  4 active torsions:
REMARK  status: ('A' for Active; 'I' for Inactive)
REMARK    1  A    between atoms: C_2  and  C_4
REMARK    2  A    between atoms: C_7  and  C_8
REMARK    3  A    between atoms: C_8  and  N_9
REMARK    4  A    between atoms: C_12  and  N_13
REMARK                            x       y       z     vdW  Elec       q    Type
REMARK                         _______ _______ _______ _____ _____    ______ ____
ROOT
ATOM      1  N   UNL     1      47.186   3.273  15.208  0.00  0.00    +0.000 N 
ATOM      2  C   UNL     1      48.222   3.155  16.129  0.00  0.00    +0.000 A 
ATOM      3  C   UNL     1      48.378   4.027  17.206  0.00  0.00    +0.000 A 
ATOM      4  C   UNL     1      49.436   3.884  18.103  0.00  0.00    +0.000 A 
ATOM      5  C   UNL     1      50.290   2.805  17.896  0.00  0.00    +0.000 A 
ATOM      6  C   UNL     1      50.042   1.942  16.841  0.00  0.00    +0.000 A 
ATOM      7  N   UNL     1      49.041   2.106  15.950  0.00  0.00    +0.000 NA
ATOM      8  H   UNL     1      47.455   2.712  14.400  0.00  0.00    +0.000 HD
ENDROOT
BRANCH   4   9
ATOM      9  N   UNL     1      49.620   4.737  19.176  0.00  0.00    +0.000 N 
ATOM     10  C   UNL     1      48.751   4.693  20.363  0.00  0.00    +0.000 C 
ATOM     11  C   UNL     1      47.857   5.937  20.450  0.00  0.00    +0.000 C 
ATOM     12  O   UNL     1      48.628   7.145  20.372  0.00  0.00    +0.000 OA
ATOM     13  C   UNL     1      49.337   7.198  19.123  0.00  0.00    +0.000 C 
ATOM     14  C   UNL     1      50.315   6.020  18.967  0.00  0.00    +0.000 C 
ENDBRANCH   4   9
BRANCH   1  15
ATOM     15  C   UNL     1      46.722   4.616  14.894  0.00  0.00    +0.000 C 
BRANCH  15  19
ATOM     16  C   UNL     1      45.501   4.826  10.818  0.00  0.00    +0.000 A 
ATOM     17  C   UNL     1      46.059   5.959  11.405  0.00  0.00    +0.000 A 
ATOM     18  C   UNL     1      46.434   5.915  12.747  0.00  0.00    +0.000 A 
ATOM     19  C   UNL     1      46.235   4.737  13.467  0.00  0.00    +0.000 A 
ATOM     20  N   UNL     1      45.672   3.635  12.912  0.00  0.00    +0.000 NA
ATOM     21  C   UNL     1      45.306   3.703  11.608  0.00  0.00    +0.000 A 
BRANCH  16  23
ATOM     22  N   UNL     1      43.816   4.431   9.122  0.00  0.00    +0.000 N 
ATOM     23  C   UNL     1      45.110   4.774   9.390  0.00  0.00    +0.000 C 
ATOM     24  O   UNL     1      45.893   5.077   8.501  0.00  0.00    +0.000 OA
ATOM     25  H   UNL     1      43.521   4.506   8.158  0.00  0.00    +0.000 HD
ATOM     26  H   UNL     1      43.094   4.440   9.831  0.00  0.00    +0.000 HD
ENDBRANCH  16  23
ENDBRANCH  15  19
ENDBRANCH   1  15
TORSDOF 4
ENDMDL
MODEL 8
REMARK VINA RESULT:    -6.549      1.781      7.069
REMARK INTER + INTRA:          -8.775
REMARK INTER:                  -8.206
REMARK INTRA:                  -0.569
REMARK UNBOUND:                -0.695
REMARK  Name = 
REMARK  4 active torsions:
REMARK  status: ('A' for Active; 'I' for Inactive)
REMARK    1  A    between atoms: C_2  and  C_4
REMARK    2  A    between atoms: C_7  and  C_8
REMARK    3  A    between atoms: C_8  and  N_9
REMARK    4  A    between atoms: C_12  and  N_13
REMARK                            x       y       z     vdW  Elec       q    Type
REMARK                         _______ _______ _______ _____ _____    ______ ____
ROOT
ATOM      1  N   UNL     1      45.685   4.423  13.980  0.00  0.00    +0.000 N 
ATOM      2  C   UNL     1      44.749   4.516  12.954  0.00  0.00    +0.000 A 
ATOM      3  C   UNL     1      44.939   3.927  11.704  0.00  0.00    +0.000 A 
ATOM      4  C   UNL     1      43.984   4.051  10.696  0.00  0.00    +0.000 A 
ATOM      5  C   UNL     1      42.820   4.744  11.018  0.00  0.00    +0.000 A 
ATOM      6  C   UNL     1      42.671   5.251  12.299  0.00  0.00    +0.000 A 
ATOM      7  N   UNL     1      43.615   5.166  13.261  0.00  0.00    +0.000 NA
ATOM      8  H   UNL     1      45.441   5.147  14.657  0.00  0.00    +0.000 HD
ENDROOT
BRANCH   4   9
ATOM      9  N   UNL     1      44.147   3.484   9.445  0.00  0.00    +0.000 N 
ATOM     10  C   UNL     1      44.334   2.035   9.266  0.00  0.00    +0.000 C 
ATOM     11  C   UNL     1      45.761   1.707   8.809  0.00  0.00    +0.000 C 
ATOM     12  O   UNL     1      46.128   2.462   7.645  0.00  0.00    +0.000 OA
ATOM     13  C   UNL     1      46.069   3.869   7.930  0.00  0.00    +0.000 C 
ATOM     14  C   UNL     1      44.653   4.313   8.338  0.00  0.00    +0.000 C 
ENDBRANCH   4   9
BRANCH   1  15
ATOM     15  C   UNL     1      47.089   4.387  13.601  0.00  0.00    +0.000 C 
BRANCH  15  19
ATOM     16  C   UNL     1      48.638   8.350  13.391  0.00  0.00    +0.000 A 
ATOM     17  C   UNL     1      47.931   7.853  12.298  0.00  0.00    +0.000 A 
ATOM     18  C   UNL     1      47.446   6.546  12.340  0.00  0.00    +0.000 A 
ATOM     19  C   UNL     1      47.686   5.771  13.474  0.00  0.00    +0.000 A 
ATOM     20  N   UNL     1      48.392   6.237  14.535  0.00  0.00    +0.000 NA
ATOM     21  C   UNL     1      48.863   7.507  14.469  0.00  0.00    +0.000 A 
BRANCH  16  23
ATOM     22  N   UNL     1      48.446  10.626  14.202  0.00  0.00    +0.000 N 
ATOM     23  C   UNL     1      49.156   9.737  13.446  0.00  0.00    +0.000 C 
ATOM     24  O   UNL     1      50.196  10.054  12.888  0.00  0.00    +0.000 OA
ATOM     25  H   UNL     1      48.861  11.538  14.330  0.00  0.00    +0.000 HD
ATOM     26  H   UNL     1      47.751  10.331  14.876  0.00  0.00    +0.000 HD
ENDBRANCH  16  23
ENDBRANCH  15  19
ENDBRANCH   1  15
TORSDOF 4
ENDMDL
MODEL 9
REMARK VINA RESULT:    -6.486      3.359      5.328
REMARK INTER + INTRA:          -8.698
REMARK INTER:                  -8.026
REMARK INTRA:                  -0.672
REMARK UNBOUND:                -0.695
REMARK  Name = 
REMARK  4 active torsions:
REMARK  status: ('A' for Active; 'I' for Inactive)
REMARK    1  A    between atoms: C_2  and  C_4
REMARK    2  A    between atoms: C_7  and  C_8
REMARK    3  A    between atoms: C_8  and  N_9
REMARK    4  A    between atoms: C_12  and  N_13
REMARK                            x       y       z     vdW  Elec       q    Type
REMARK                         _______ _______ _______ _____ _____    ______ ____
ROOT
ATOM      1  N   UNL     1      47.810   7.691  12.685  0.00  0.00    +0.000 N 
ATOM      2  C   UNL     1      48.662   7.439  13.756  0.00  0.00    +0.000 A 
ATOM      3  C   UNL     1      48.323   6.585  14.806  0.00  0.00    +0.000 A 
ATOM      4  C   UNL     1      49.199   6.366  15.869  0.00  0.00    +0.000 A 
ATOM      5  C   UNL     1      50.436   7.000  15.801  0.00  0.00    +0.000 A 
ATOM      6  C   UNL     1      50.731   7.787  14.700  0.00  0.00    +0.000 A 
ATOM      7  N   UNL     1      49.866   8.030  13.692  0.00  0.00    +0.000 NA
ATOM      8  H   UNL     1      48.166   8.529  12.227  0.00  0.00    +0.000 HD
ENDROOT
BRANCH   4   9
ATOM      9  N   UNL     1      48.888   5.530  16.926  0.00  0.00    +0.000 N 
ATOM     10  C   UNL     1      49.912   5.055  17.870  0.00  0.00    +0.000 C 
ATOM     11  C   UNL     1      50.180   3.555  17.699  0.00  0.00    +0.000 C 
ATOM     12  O   UNL     1      48.965   2.793  17.770  0.00  0.00    +0.000 OA
ATOM     13  C   UNL     1      48.065   3.202  16.727  0.00  0.00    +0.000 C 
ATOM     14  C   UNL     1      47.682   4.687  16.850  0.00  0.00    +0.000 C 
ENDBRANCH   4   9
BRANCH   1  15
ATOM     15  C   UNL     1      46.382   7.700  12.957  0.00  0.00    +0.000 C 
BRANCH  15  19
ATOM     16  C   UNL     1      44.554   4.173  11.419  0.00  0.00    +0.000 A 
ATOM     17  C   UNL     1      45.101   5.085  10.519  0.00  0.00    +0.000 A 
ATOM     18  C   UNL     1      45.674   6.259  11.006  0.00  0.00    +0.000 A 
ATOM     19  C   UNL     1      45.678   6.490  12.382  0.00  0.00    +0.000 A 
ATOM     20  N   UNL     1      45.129   5.619  13.265  0.00  0.00    +0.000 NA
ATOM     21  C   UNL     1      44.568   4.489  12.769  0.00  0.00    +0.000 A 
BRANCH  16  23
ATOM     22  N   UNL     1      44.575   2.240   9.957  0.00  0.00    +0.000 N 
ATOM     23  C   UNL     1      43.959   2.885  10.991  0.00  0.00    +0.000 C 
ATOM     24  O   UNL     1      42.999   2.399  11.572  0.00  0.00    +0.000 OA
ATOM     25  H   UNL     1      44.238   1.312   9.742  0.00  0.00    +0.000 HD
ATOM     26  H   UNL     1      45.507   2.481   9.646  0.00  0.00    +0.000 HD
ENDBRANCH  16  23
ENDBRANCH  15  19
ENDBRANCH   1  15
TORSDOF 4
ENDMDL
