MODEL 1
REMARK VINA RESULT:    -8.527      0.000      0.000
REMARK INTER + INTRA:         -13.867
REMARK INTER:                 -12.515
REMARK INTRA:                  -1.352
REMARK UNBOUND:                -1.352
REMARK  Name = 
REMARK  8 active torsions:
REMARK  status: ('A' for Active; 'I' for Inactive)
REMARK    1  A    between atoms: C_2  and  C_3
REMARK    2  A    between atoms: C_3  and  N_4
REMARK    3  A    between atoms: C_5  and  C_7
REMARK    4  A    between atoms: N_17  and  C_18
REMARK    5  A    between atoms: C_18  and  C_19
REMARK    6  A    between atoms: C_22  and  C_23
REMARK    7  A    between atoms: N_25  and  C_26
REMARK    8  A    between atoms: C_26  and  C_27
REMARK                            x       y       z     vdW  Elec       q    Type
REMARK                         _______ _______ _______ _____ _____    ______ ____
ROOT
ATOM      1  O   UNL     1      47.535   9.145  12.169  0.00  0.00    +0.000 OA
ATOM      2  C   UNL     1      47.414   8.668  13.295  0.00  0.00    +0.000 C 
ATOM      3  N   UNL     1      46.448   7.744  13.631  0.00  0.00    +0.000 N 
ATOM      4  H   UNL     1      46.272   7.589  14.621  0.00  0.00    +0.000 HD
ENDROOT
BRANCH   2   5
ATOM      5  C   UNL     1      48.270   9.125  14.472  0.00  0.00    +0.000 C 
BRANCH   5   6
ATOM      6  N   UNL     1      48.306   8.099  15.492  0.00  0.00    +0.000 N 
ATOM      7  C   UNL     1      49.486   7.565  15.942  0.00  0.00    +0.000 C 
ATOM      8  O   UNL     1      50.573   7.949  15.516  0.00  0.00    +0.000 OA
ATOM      9  H   UNL     1      47.443   7.578  15.632  0.00  0.00    +0.000 HD
BRANCH   7  10
ATOM     10  C   UNL     1      49.384   6.561  17.008  0.00  0.00    +0.000 A 
ATOM     11  C   UNL     1      50.035   6.763  18.216  0.00  0.00    +0.000 A 
ATOM     12  S   UNL     1      49.762   5.524  19.357  0.00  0.00    +0.000 S 
ATOM     13  C   UNL     1      48.802   4.649  18.257  0.00  0.00    +0.000 A 
ATOM     14  N   UNL     1      48.256   3.451  18.601  0.00  0.00    +0.000 NA
ATOM     15  C   UNL     1      47.586   2.880  17.656  0.00  0.00    +0.000 A 
ATOM     16  N   UNL     1      47.407   3.401  16.399  0.00  0.00    +0.000 N 
ATOM     17  C   UNL     1      47.898   4.628  16.026  0.00  0.00    +0.000 A 
ATOM     18  O   UNL     1      47.658   5.107  14.924  0.00  0.00    +0.000 OA
ATOM     19  C   UNL     1      48.680   5.301  17.044  0.00  0.00    +0.000 A 
ATOM     20  H   UNL     1      46.861   2.910  15.708  0.00  0.00    +0.000 HD
ENDBRANCH   7  10
ENDBRANCH   5   6
ENDBRANCH   2   5
BRANCH   3  21
ATOM     21  C   UNL     1      45.491   7.287  12.647  0.00  0.00    +0.000 C 
BRANCH  21  22
ATOM     22  C   UNL     1      45.717   5.827  12.227  0.00  0.00    +0.000 C 
ATOM     23  C   UNL     1      44.954   4.820  13.107  0.00  0.00    +0.000 C 
ATOM     24  C   UNL     1      43.447   4.814  12.850  0.00  0.00    +0.000 C 
ATOM     25  C   UNL     1      43.114   4.571  11.372  0.00  0.00    +0.000 C 
ATOM     26  C   UNL     1      43.843   5.594  10.490  0.00  0.00    +0.000 C 
ATOM     27  C   UNL     1      45.355   5.631  10.746  0.00  0.00    +0.000 C 
BRANCH  25  28
ATOM     28  C   UNL     1      43.425   3.137  10.931  0.00  0.00    +0.000 C 
ATOM     29  O   UNL     1      43.037   2.142  11.542  0.00  0.00    +0.000 OA
ATOM     30  N   UNL     1      44.188   3.024   9.794  0.00  0.00    +0.000 N 
ATOM     31  H   UNL     1      44.731   3.818   9.466  0.00  0.00    +0.000 HD
BRANCH  30  32
ATOM     32  C   UNL     1      44.568   1.713   9.324  0.00  0.00    +0.000 C 
BRANCH  32  33
ATOM     33  C   UNL     1      45.750   1.796   8.401  0.00  0.00    +0.000 C 
ATOM     34  N   UNL     1      46.460   0.770   8.064  0.00  0.00    +0.000 NA
ATOM     35  O   UNL     1      47.409   1.207   7.114  0.00  0.00    +0.000 OA
ATOM     36  C   UNL     1      47.349   2.634   7.019  0.00  0.00    +0.000 C 
ATOM     37  C   UNL     1      46.103   3.072   7.737  0.00  0.00    +0.000 C 
ENDBRANCH  32  33
ENDBRANCH  30  32
ENDBRANCH  25  28
ENDBRANCH  21  22
ENDBRANCH   3  21
TORSDOF 8
ENDMDL
MODEL 2
REMARK VINA RESULT:    -8.046      1.377      2.210
REMARK INTER + INTRA:         -13.161
REMARK INTER:                 -12.339
REMARK INTRA:                  -0.822
REMARK UNBOUND:                -1.352
REMARK  Name = 
REMARK  8 active torsions:
REMARK  status: ('A' for Active; 'I' for Inactive)
REMARK    1  A    between atoms: C_2  and  C_3
REMARK    2  A    between atoms: C_3  and  N_4
REMARK    3  A    between atoms: C_5  and  C_7
REMARK    4  A    between atoms: N_17  and  C_18
REMARK    5  A    between atoms: C_18  and  C_19
REMARK    6  A    between atoms: C_22  and  C_23
REMARK    7  A    between atoms: N_25  and  C_26
REMARK    8  A    between atoms: C_26  and  C_27
REMARK                            x       y       z     vdW  Elec       q    Type
REMARK                         _______ _______ _______ _____ _____    ______ ____
ROOT
ATOM      1  O   UNL     1      46.237   9.954  12.365  0.00  0.00    +0.000 OA
ATOM      2  C   UNL     1      46.653   8.850  12.706  0.00  0.00    +0.000 C 
ATOM      3  N   UNL     1      45.909   7.693  12.610  0.00  0.00    +0.000 N 
ATOM      4  H   UNL     1      46.235   6.882  13.129  0.00  0.00    +0.000 HD
ENDROOT
BRANCH   2   5
ATOM      5  C   UNL     1      48.014   8.657  13.366  0.00  0.00    +0.000 C 
BRANCH   5   6
ATOM      6  N   UNL     1      47.904   7.743  14.482  0.00  0.00    +0.000 N 
ATOM      7  C   UNL     1      48.211   6.411  14.363  0.00  0.00    +0.000 C 
ATOM      8  O   UNL     1      48.617   5.935  13.305  0.00  0.00    +0.000 OA
ATOM      9  H   UNL     1      47.308   8.044  15.250  0.00  0.00    +0.000 HD
BRANCH   7  10
ATOM     10  C   UNL     1      48.095   5.602  15.582  0.00  0.00    +0.000 A 
ATOM     11  C   UNL     1      47.272   4.485  15.598  0.00  0.00    +0.000 A 
ATOM     12  S   UNL     1      47.301   3.635  17.076  0.00  0.00    +0.000 S 
ATOM     13  C   UNL     1      48.378   4.758  17.765  0.00  0.00    +0.000 A 
ATOM     14  N   UNL     1      48.804   4.626  19.050  0.00  0.00    +0.000 NA
ATOM     15  C   UNL     1      49.586   5.573  19.452  0.00  0.00    +0.000 A 
ATOM     16  N   UNL     1      49.985   6.636  18.684  0.00  0.00    +0.000 N 
ATOM     17  C   UNL     1      49.620   6.782  17.368  0.00  0.00    +0.000 A 
ATOM     18  O   UNL     1      50.054   7.698  16.679  0.00  0.00    +0.000 OA
ATOM     19  C   UNL     1      48.721   5.758  16.874  0.00  0.00    +0.000 A 
ATOM     20  H   UNL     1      50.609   7.337  19.054  0.00  0.00    +0.000 HD
ENDBRANCH   7  10
ENDBRANCH   5   6
ENDBRANCH   2   5
BRANCH   3  21
ATOM     21  C   UNL     1      44.555   7.727  12.100  0.00  0.00    +0.000 C 
BRANCH  21  22
ATOM     22  C   UNL     1      44.276   6.620  11.073  0.00  0.00    +0.000 C 
ATOM     23  C   UNL     1      45.438   5.620  10.933  0.00  0.00    +0.000 C 
ATOM     24  C   UNL     1      45.573   4.678  12.130  0.00  0.00    +0.000 C 
ATOM     25  C   UNL     1      44.270   3.924  12.420  0.00  0.00    +0.000 C 
ATOM     26  C   UNL     1      43.111   4.916  12.598  0.00  0.00    +0.000 C 
ATOM     27  C   UNL     1      42.971   5.884  11.417  0.00  0.00    +0.000 C 
BRANCH  25  28
ATOM     28  C   UNL     1      43.946   2.879  11.347  0.00  0.00    +0.000 C 
ATOM     29  O   UNL     1      42.954   2.153  11.388  0.00  0.00    +0.000 OA
ATOM     30  N   UNL     1      44.854   2.790  10.320  0.00  0.00    +0.000 N 
ATOM     31  H   UNL     1      45.788   3.175  10.434  0.00  0.00    +0.000 HD
BRANCH  30  32
ATOM     32  C   UNL     1      44.657   1.805   9.284  0.00  0.00    +0.000 C 
BRANCH  32  33
ATOM     33  C   UNL     1      45.840   1.754   8.360  0.00  0.00    +0.000 C 
ATOM     34  N   UNL     1      46.458   0.660   8.059  0.00  0.00    +0.000 NA
ATOM     35  O   UNL     1      47.439   0.981   7.095  0.00  0.00    +0.000 OA
ATOM     36  C   UNL     1      47.502   2.403   6.951  0.00  0.00    +0.000 C 
ATOM     37  C   UNL     1      46.300   2.971   7.652  0.00  0.00    +0.000 C 
ENDBRANCH  32  33
ENDBRANCH  30  32
ENDBRANCH  25  28
ENDBRANCH  21  22
ENDBRANCH   3  21
TORSDOF 8
ENDMDL
MODEL 3
REMARK VINA RESULT:    -7.489      1.948      2.456
REMARK INTER + INTRA:         -12.343
REMARK INTER:                 -11.183
REMARK INTRA:                  -1.160
REMARK UNBOUND:                -1.352
REMARK  Name = 
REMARK  8 active torsions:
REMARK  status: ('A' for Active; 'I' for Inactive)
REMARK    1  A    between atoms: C_2  and  C_3
REMARK    2  A    between atoms: C_3  and  N_4
REMARK    3  A    between atoms: C_5  and  C_7
REMARK    4  A    between atoms: N_17  and  C_18
REMARK    5  A    between atoms: C_18  and  C_19
REMARK    6  A    between atoms: C_22  and  C_23
REMARK    7  A    between atoms: N_25  and  C_26
REMARK    8  A    between atoms: C_26  and  C_27
REMARK                            x       y       z     vdW  Elec       q    Type
REMARK                         _______ _______ _______ _____ _____    ______ ____
ROOT
ATOM      1  O   UNL     1      45.010   8.854  11.805  0.00  0.00    +0.000 OA
ATOM      2  C   UNL     1      45.905   8.512  12.572  0.00  0.00    +0.000 C 
ATOM      3  N   UNL     1      45.876   7.345  13.306  0.00  0.00    +0.000 N 
ATOM      4  H   UNL     1      46.529   7.262  14.081  0.00  0.00    +0.000 HD
ENDROOT
BRANCH   2   5
ATOM      5  C   UNL     1      47.112   9.398  12.868  0.00  0.00    +0.000 C 
BRANCH   5   6
ATOM      6  N   UNL     1      47.628   9.115  14.190  0.00  0.00    +0.000 N 
ATOM      7  C   UNL     1      48.725   9.765  14.695  0.00  0.00    +0.000 C 
ATOM      8  O   UNL     1      49.310  10.637  14.055  0.00  0.00    +0.000 OA
ATOM      9  H   UNL     1      47.353   8.224  14.596  0.00  0.00    +0.000 HD
BRANCH   7  10
ATOM     10  C   UNL     1      49.120   9.414  16.064  0.00  0.00    +0.000 A 
ATOM     11  C   UNL     1      49.171  10.394  17.045  0.00  0.00    +0.000 A 
ATOM     12  S   UNL     1      49.594   9.798  18.586  0.00  0.00    +0.000 S 
ATOM     13  C   UNL     1      49.771   8.215  17.986  0.00  0.00    +0.000 A 
ATOM     14  N   UNL     1      50.148   7.193  18.802  0.00  0.00    +0.000 NA
ATOM     15  C   UNL     1      50.283   6.056  18.203  0.00  0.00    +0.000 A 
ATOM     16  N   UNL     1      50.069   5.847  16.865  0.00  0.00    +0.000 N 
ATOM     17  C   UNL     1      49.639   6.838  16.016  0.00  0.00    +0.000 A 
ATOM     18  O   UNL     1      49.378   6.608  14.841  0.00  0.00    +0.000 OA
ATOM     19  C   UNL     1      49.497   8.141  16.633  0.00  0.00    +0.000 A 
ATOM     20  H   UNL     1      50.178   4.929  16.460  0.00  0.00    +0.000 HD
ENDBRANCH   7  10
ENDBRANCH   5   6
ENDBRANCH   2   5
BRANCH   3  21
ATOM     21  C   UNL     1      44.745   6.446  13.216  0.00  0.00    +0.000 C 
BRANCH  21  22
ATOM     22  C   UNL     1      45.141   5.035  12.759  0.00  0.00    +0.000 C 
ATOM     23  C   UNL     1      43.938   4.082  12.630  0.00  0.00    +0.000 C 
ATOM     24  C   UNL     1      43.054   4.385  11.420  0.00  0.00    +0.000 C 
ATOM     25  C   UNL     1      43.853   4.394  10.111  0.00  0.00    +0.000 C 
ATOM     26  C   UNL     1      45.035   5.369  10.217  0.00  0.00    +0.000 C 
ATOM     27  C   UNL     1      45.923   5.095  11.437  0.00  0.00    +0.000 C 
BRANCH  25  28
ATOM     28  C   UNL     1      44.324   2.994   9.702  0.00  0.00    +0.000 C 
ATOM     29  O   UNL     1      43.843   1.959  10.159  0.00  0.00    +0.000 OA
ATOM     30  N   UNL     1      45.346   2.962   8.785  0.00  0.00    +0.000 N 
ATOM     31  H   UNL     1      45.917   3.789   8.632  0.00  0.00    +0.000 HD
BRANCH  30  32
ATOM     32  C   UNL     1      45.886   1.689   8.371  0.00  0.00    +0.000 C 
BRANCH  32  33
ATOM     33  C   UNL     1      46.826   1.857   7.211  0.00  0.00    +0.000 C 
ATOM     34  N   UNL     1      47.873   1.121   7.035  0.00  0.00    +0.000 NA
ATOM     35  O   UNL     1      48.448   1.494   5.800  0.00  0.00    +0.000 OA
ATOM     36  C   UNL     1      47.772   2.653   5.303  0.00  0.00    +0.000 C 
ATOM     37  C   UNL     1      46.531   2.830   6.134  0.00  0.00    +0.000 C 
ENDBRANCH  32  33
ENDBRANCH  30  32
ENDBRANCH  25  28
ENDBRANCH  21  22
ENDBRANCH   3  21
TORSDOF 8
ENDMDL
MODEL 4
REMARK VINA RESULT:    -7.441      2.918      3.907
REMARK INTER + INTRA:         -12.273
REMARK INTER:                 -11.900
REMARK INTRA:                  -0.374
REMARK UNBOUND:                -1.352
REMARK  Name = 
REMARK  8 active torsions:
REMARK  status: ('A' for Active; 'I' for Inactive)
REMARK    1  A    between atoms: C_2  and  C_3
REMARK    2  A    between atoms: C_3  and  N_4
REMARK    3  A    between atoms: C_5  and  C_7
REMARK    4  A    between atoms: N_17  and  C_18
REMARK    5  A    between atoms: C_18  and  C_19
REMARK    6  A    between atoms: C_22  and  C_23
REMARK    7  A    between atoms: N_25  and  C_26
REMARK    8  A    between atoms: C_26  and  C_27
REMARK                            x       y       z     vdW  Elec       q    Type
REMARK                         _______ _______ _______ _____ _____    ______ ____
ROOT
ATOM      1  O   UNL     1      47.852   3.018  15.195  0.00  0.00    +0.000 OA
ATOM      2  C   UNL     1      47.514   3.824  16.057  0.00  0.00    +0.000 C 
ATOM      3  N   UNL     1      47.157   5.128  15.784  0.00  0.00    +0.000 N 
ATOM      4  H   UNL     1      47.127   5.779  16.564  0.00  0.00    +0.000 HD
ENDROOT
BRANCH   2   5
ATOM      5  C   UNL     1      47.545   3.491  17.545  0.00  0.00    +0.000 C 
BRANCH   5   6
ATOM      6  N   UNL     1      48.902   3.220  17.969  0.00  0.00    +0.000 N 
ATOM      7  C   UNL     1      49.895   4.161  17.869  0.00  0.00    +0.000 C 
ATOM      8  O   UNL     1      49.673   5.289  17.435  0.00  0.00    +0.000 OA
ATOM      9  H   UNL     1      49.159   2.238  18.045  0.00  0.00    +0.000 HD
BRANCH   7  10
ATOM     10  C   UNL     1      51.217   3.771  18.372  0.00  0.00    +0.000 A 
ATOM     11  C   UNL     1      51.931   4.636  19.189  0.00  0.00    +0.000 A 
ATOM     12  S   UNL     1      53.421   3.998  19.724  0.00  0.00    +0.000 S 
ATOM     13  C   UNL     1      53.185   2.561  18.843  0.00  0.00    +0.000 A 
ATOM     14  N   UNL     1      54.120   1.572  18.849  0.00  0.00    +0.000 NA
ATOM     15  C   UNL     1      53.827   0.558  18.104  0.00  0.00    +0.000 A 
ATOM     16  N   UNL     1      52.683   0.441  17.357  0.00  0.00    +0.000 N 
ATOM     17  C   UNL     1      51.691   1.392  17.361  0.00  0.00    +0.000 A 
ATOM     18  O   UNL     1      50.643   1.228  16.748  0.00  0.00    +0.000 OA
ATOM     19  C   UNL     1      51.981   2.564  18.163  0.00  0.00    +0.000 A 
ATOM     20  H   UNL     1      52.507  -0.385  16.805  0.00  0.00    +0.000 HD
ENDBRANCH   7  10
ENDBRANCH   5   6
ENDBRANCH   2   5
BRANCH   3  21
ATOM     21  C   UNL     1      47.179   5.628  14.427  0.00  0.00    +0.000 C 
BRANCH  21  22
ATOM     22  C   UNL     1      46.518   4.668  13.426  0.00  0.00    +0.000 C 
ATOM     23  C   UNL     1      44.980   4.677  13.506  0.00  0.00    +0.000 C 
ATOM     24  C   UNL     1      44.352   5.945  12.929  0.00  0.00    +0.000 C 
ATOM     25  C   UNL     1      44.799   6.204  11.484  0.00  0.00    +0.000 C 
ATOM     26  C   UNL     1      46.333   6.234  11.401  0.00  0.00    +0.000 C 
ATOM     27  C   UNL     1      46.984   4.979  11.995  0.00  0.00    +0.000 C 
BRANCH  25  28
ATOM     28  C   UNL     1      44.210   5.191  10.498  0.00  0.00    +0.000 C 
ATOM     29  O   UNL     1      43.117   4.649  10.658  0.00  0.00    +0.000 OA
ATOM     30  N   UNL     1      44.995   4.906   9.408  0.00  0.00    +0.000 N 
ATOM     31  H   UNL     1      45.987   5.127   9.425  0.00  0.00    +0.000 HD
BRANCH  30  32
ATOM     32  C   UNL     1      44.542   3.930   8.445  0.00  0.00    +0.000 C 
BRANCH  32  33
ATOM     33  C   UNL     1      45.667   3.025   8.030  0.00  0.00    +0.000 C 
ATOM     34  N   UNL     1      45.814   1.824   8.482  0.00  0.00    +0.000 NA
ATOM     35  O   UNL     1      46.906   1.245   7.798  0.00  0.00    +0.000 OA
ATOM     36  C   UNL     1      47.544   2.252   7.005  0.00  0.00    +0.000 C 
ATOM     37  C   UNL     1      46.624   3.441   6.979  0.00  0.00    +0.000 C 
ENDBRANCH  32  33
ENDBRANCH  30  32
ENDBRANCH  25  28
ENDBRANCH  21  22
ENDBRANCH   3  21
TORSDOF 8
ENDMDL
MODEL 5
REMARK VINA RESULT:    -7.384      2.322      2.744
REMARK INTER + INTRA:         -12.189
REMARK INTER:                 -11.365
REMARK INTRA:                  -0.824
REMARK UNBOUND:                -1.352
REMARK  Name = 
REMARK  8 active torsions:
REMARK  status: ('A' for Active; 'I' for Inactive)
REMARK    1  A    between atoms: C_2  and  C_3
REMARK    2  A    between atoms: C_3  and  N_4
REMARK    3  A    between atoms: C_5  and  C_7
REMARK    4  A    between atoms: N_17  and  C_18
REMARK    5  A    between atoms: C_18  and  C_19
REMARK    6  A    between atoms: C_22  and  C_23
REMARK    7  A    between atoms: N_25  and  C_26
REMARK    8  A    between atoms: C_26  and  C_27
REMARK                            x       y       z     vdW  Elec       q    Type
REMARK                         _______ _______ _______ _____ _____    ______ ____
ROOT
ATOM      1  O   UNL     1      48.888   9.602  15.148  0.00  0.00    +0.000 OA
ATOM      2  C   UNL     1      48.539   8.521  15.614  0.00  0.00    +0.000 C 
ATOM      3  N   UNL     1      47.974   7.513  14.861  0.00  0.00    +0.000 N 
ATOM      4  H   UNL     1      47.504   6.762  15.360  0.00  0.00    +0.000 HD
ENDROOT
BRANCH   2   5
ATOM      5  C   UNL     1      48.609   8.213  17.106  0.00  0.00    +0.000 C 
BRANCH   5   6
ATOM      6  N   UNL     1      49.675   7.271  17.373  0.00  0.00    +0.000 N 
ATOM      7  C   UNL     1      49.448   6.083  18.020  0.00  0.00    +0.000 C 
ATOM      8  O   UNL     1      48.323   5.751  18.385  0.00  0.00    +0.000 OA
ATOM      9  H   UNL     1      50.620   7.647  17.349  0.00  0.00    +0.000 HD
BRANCH   7  10
ATOM     10  C   UNL     1      50.609   5.201  18.191  0.00  0.00    +0.000 A 
ATOM     11  C   UNL     1      51.760   5.679  18.801  0.00  0.00    +0.000 A 
ATOM     12  S   UNL     1      52.986   4.504  18.965  0.00  0.00    +0.000 S 
ATOM     13  C   UNL     1      52.038   3.326  18.183  0.00  0.00    +0.000 A 
ATOM     14  N   UNL     1      52.514   2.069  17.973  0.00  0.00    +0.000 NA
ATOM     15  C   UNL     1      51.703   1.294  17.332  0.00  0.00    +0.000 A 
ATOM     16  N   UNL     1      50.459   1.660  16.887  0.00  0.00    +0.000 N 
ATOM     17  C   UNL     1      49.920   2.902  17.121  0.00  0.00    +0.000 A 
ATOM     18  O   UNL     1      48.775   3.179  16.783  0.00  0.00    +0.000 OA
ATOM     19  C   UNL     1      50.800   3.820  17.816  0.00  0.00    +0.000 A 
ATOM     20  H   UNL     1      49.867   1.001  16.403  0.00  0.00    +0.000 HD
ENDBRANCH   7  10
ENDBRANCH   5   6
ENDBRANCH   2   5
BRANCH   3  21
ATOM     21  C   UNL     1      47.744   7.693  13.444  0.00  0.00    +0.000 C 
BRANCH  21  22
ATOM     22  C   UNL     1      47.719   6.366  12.670  0.00  0.00    +0.000 C 
ATOM     23  C   UNL     1      47.398   5.153  13.563  0.00  0.00    +0.000 C 
ATOM     24  C   UNL     1      45.935   5.095  14.002  0.00  0.00    +0.000 C 
ATOM     25  C   UNL     1      44.973   5.130  12.808  0.00  0.00    +0.000 C 
ATOM     26  C   UNL     1      45.261   6.358  11.931  0.00  0.00    +0.000 C 
ATOM     27  C   UNL     1      46.729   6.446  11.497  0.00  0.00    +0.000 C 
BRANCH  25  28
ATOM     28  C   UNL     1      45.013   3.839  11.985  0.00  0.00    +0.000 C 
ATOM     29  O   UNL     1      45.328   2.747  12.455  0.00  0.00    +0.000 OA
ATOM     30  N   UNL     1      44.683   3.976  10.658  0.00  0.00    +0.000 N 
ATOM     31  H   UNL     1      44.704   4.894  10.222  0.00  0.00    +0.000 HD
BRANCH  30  32
ATOM     32  C   UNL     1      44.734   2.821   9.793  0.00  0.00    +0.000 C 
BRANCH  32  33
ATOM     33  C   UNL     1      45.494   3.129   8.534  0.00  0.00    +0.000 C 
ATOM     34  N   UNL     1      45.580   4.315   8.029  0.00  0.00    +0.000 NA
ATOM     35  O   UNL     1      46.449   4.239   6.919  0.00  0.00    +0.000 OA
ATOM     36  C   UNL     1      46.759   2.865   6.663  0.00  0.00    +0.000 C 
ATOM     37  C   UNL     1      46.285   2.078   7.853  0.00  0.00    +0.000 C 
ENDBRANCH  32  33
ENDBRANCH  30  32
ENDBRANCH  25  28
ENDBRANCH  21  22
ENDBRANCH   3  21
TORSDOF 8
ENDMDL
MODEL 6
REMARK VINA RESULT:    -7.260      1.965      2.352
REMARK INTER + INTRA:         -12.007
REMARK INTER:                 -10.472
REMARK INTRA:                  -1.536
REMARK UNBOUND:                -1.352
REMARK  Name = 
REMARK  8 active torsions:
REMARK  status: ('A' for Active; 'I' for Inactive)
REMARK    1  A    between atoms: C_2  and  C_3
REMARK    2  A    between atoms: C_3  and  N_4
REMARK    3  A    between atoms: C_5  and  C_7
REMARK    4  A    between atoms: N_17  and  C_18
REMARK    5  A    between atoms: C_18  and  C_19
REMARK    6  A    between atoms: C_22  and  C_23
REMARK    7  A    between atoms: N_25  and  C_26
REMARK    8  A    between atoms: C_26  and  C_27
REMARK                            x       y       z     vdW  Elec       q    Type
REMARK                         _______ _______ _______ _____ _____    ______ ____
ROOT
ATOM      1  O   UNL     1      50.125   8.871  11.905  0.00  0.00    +0.000 OA
ATOM      2  C   UNL     1      49.960   8.547  13.077  0.00  0.00    +0.000 C 
ATOM      3  N   UNL     1      48.732   8.215  13.610  0.00  0.00    +0.000 N 
ATOM      4  H   UNL     1      48.650   8.195  14.623  0.00  0.00    +0.000 HD
ENDROOT
BRANCH   2   5
ATOM      5  C   UNL     1      51.091   8.569  14.100  0.00  0.00    +0.000 C 
BRANCH   5   6
ATOM      6  N   UNL     1      51.060   7.367  14.906  0.00  0.00    +0.000 N 
ATOM      7  C   UNL     1      51.621   7.318  16.157  0.00  0.00    +0.000 C 
ATOM      8  O   UNL     1      52.159   8.301  16.662  0.00  0.00    +0.000 OA
ATOM      9  H   UNL     1      50.894   6.497  14.406  0.00  0.00    +0.000 HD
BRANCH   7  10
ATOM     10  C   UNL     1      51.484   6.051  16.885  0.00  0.00    +0.000 A 
ATOM     11  C   UNL     1      52.614   5.383  17.335  0.00  0.00    +0.000 A 
ATOM     12  S   UNL     1      52.266   3.959  18.207  0.00  0.00    +0.000 S 
ATOM     13  C   UNL     1      50.592   4.159  17.972  0.00  0.00    +0.000 A 
ATOM     14  N   UNL     1      49.702   3.253  18.460  0.00  0.00    +0.000 NA
ATOM     15  C   UNL     1      48.468   3.510  18.171  0.00  0.00    +0.000 A 
ATOM     16  N   UNL     1      48.045   4.593  17.444  0.00  0.00    +0.000 N 
ATOM     17  C   UNL     1      48.905   5.557  16.975  0.00  0.00    +0.000 A 
ATOM     18  O   UNL     1      48.494   6.556  16.398  0.00  0.00    +0.000 OA
ATOM     19  C   UNL     1      50.304   5.303  17.251  0.00  0.00    +0.000 A 
ATOM     20  H   UNL     1      47.064   4.744  17.264  0.00  0.00    +0.000 HD
ENDBRANCH   7  10
ENDBRANCH   5   6
ENDBRANCH   2   5
BRANCH   3  21
ATOM     21  C   UNL     1      47.540   8.249  12.790  0.00  0.00    +0.000 C 
BRANCH  21  22
ATOM     22  C   UNL     1      47.333   6.957  11.985  0.00  0.00    +0.000 C 
ATOM     23  C   UNL     1      47.597   5.683  12.809  0.00  0.00    +0.000 C 
ATOM     24  C   UNL     1      46.505   5.391  13.838  0.00  0.00    +0.000 C 
ATOM     25  C   UNL     1      45.114   5.316  13.196  0.00  0.00    +0.000 C 
ATOM     26  C   UNL     1      44.826   6.599  12.403  0.00  0.00    +0.000 C 
ATOM     27  C   UNL     1      45.921   6.922  11.378  0.00  0.00    +0.000 C 
BRANCH  25  28
ATOM     28  C   UNL     1      44.939   4.071  12.321  0.00  0.00    +0.000 C 
ATOM     29  O   UNL     1      45.328   2.952  12.651  0.00  0.00    +0.000 OA
ATOM     30  N   UNL     1      44.319   4.283  11.113  0.00  0.00    +0.000 N 
ATOM     31  H   UNL     1      44.260   5.223  10.731  0.00  0.00    +0.000 HD
BRANCH  30  32
ATOM     32  C   UNL     1      44.148   3.177  10.202  0.00  0.00    +0.000 C 
BRANCH  32  33
ATOM     33  C   UNL     1      45.036   3.331   9.000  0.00  0.00    +0.000 C 
ATOM     34  N   UNL     1      45.274   4.468   8.435  0.00  0.00    +0.000 NA
ATOM     35  O   UNL     1      46.223   4.242   7.413  0.00  0.00    +0.000 OA
ATOM     36  C   UNL     1      46.424   2.832   7.270  0.00  0.00    +0.000 C 
ATOM     37  C   UNL     1      45.781   2.172   8.457  0.00  0.00    +0.000 C 
ENDBRANCH  32  33
ENDBRANCH  30  32
ENDBRANCH  25  28
ENDBRANCH  21  22
ENDBRANCH   3  21
TORSDOF 8
ENDMDL
MODEL 7
REMARK VINA RESULT:    -7.136      2.286      2.579
REMARK INTER + INTRA:         -11.826
REMARK INTER:                 -11.092
REMARK INTRA:                  -0.734
REMARK UNBOUND:                -1.352
REMARK  Name = 
REMARK  8 active torsions:
REMARK  status: ('A' for Active; 'I' for Inactive)
REMARK    1  A    between atoms: C_2  and  C_3
REMARK    2  A    between atoms: C_3  and  N_4
REMARK    3  A    between atoms: C_5  and  C_7
REMARK    4  A    between atoms: N_17  and  C_18
REMARK    5  A    between atoms: C_18  and  C_19
REMARK    6  A    between atoms: C_22  and  C_23
REMARK    7  A    between atoms: N_25  and  C_26
REMARK    8  A    between atoms: C_26  and  C_27
REMARK                            x       y       z     vdW  Elec       q    Type
REMARK                         _______ _______ _______ _____ _____    ______ ____
ROOT
ATOM      1  O   UNL     1      48.222   6.781  14.847  0.00  0.00    +0.000 OA
ATOM      2  C   UNL     1      48.492   7.526  13.909  0.00  0.00    +0.000 C 
ATOM      3  N   UNL     1      47.617   7.800  12.878  0.00  0.00    +0.000 N 
ATOM      4  H   UNL     1      48.001   8.224  12.038  0.00  0.00    +0.000 HD
ENDROOT
BRANCH   2   5
ATOM      5  C   UNL     1      49.869   8.157  13.735  0.00  0.00    +0.000 C 
BRANCH   5   6
ATOM      6  N   UNL     1      50.873   7.359  14.405  0.00  0.00    +0.000 N 
ATOM      7  C   UNL     1      51.295   7.644  15.678  0.00  0.00    +0.000 C 
ATOM      8  O   UNL     1      50.824   8.579  16.321  0.00  0.00    +0.000 OA
ATOM      9  H   UNL     1      51.466   6.790  13.804  0.00  0.00    +0.000 HD
BRANCH   7  10
ATOM     10  C   UNL     1      52.289   6.731  16.256  0.00  0.00    +0.000 A 
ATOM     11  C   UNL     1      53.642   6.951  16.038  0.00  0.00    +0.000 A 
ATOM     12  S   UNL     1      54.653   5.826  16.828  0.00  0.00    +0.000 S 
ATOM     13  C   UNL     1      53.316   4.978  17.451  0.00  0.00    +0.000 A 
ATOM     14  N   UNL     1      53.484   3.868  18.219  0.00  0.00    +0.000 NA
ATOM     15  C   UNL     1      52.383   3.303  18.588  0.00  0.00    +0.000 A 
ATOM     16  N   UNL     1      51.128   3.751  18.264  0.00  0.00    +0.000 N 
ATOM     17  C   UNL     1      50.911   4.895  17.534  0.00  0.00    +0.000 A 
ATOM     18  O   UNL     1      49.781   5.318  17.325  0.00  0.00    +0.000 OA
ATOM     19  C   UNL     1      52.117   5.554  17.073  0.00  0.00    +0.000 A 
ATOM     20  H   UNL     1      50.304   3.271  18.595  0.00  0.00    +0.000 HD
ENDBRANCH   7  10
ENDBRANCH   5   6
ENDBRANCH   2   5
BRANCH   3  21
ATOM     21  C   UNL     1      46.305   7.191  12.844  0.00  0.00    +0.000 C 
BRANCH  21  22
ATOM     22  C   UNL     1      46.325   5.759  12.291  0.00  0.00    +0.000 C 
ATOM     23  C   UNL     1      45.509   4.770  13.144  0.00  0.00    +0.000 C 
ATOM     24  C   UNL     1      43.998   4.957  13.007  0.00  0.00    +0.000 C 
ATOM     25  C   UNL     1      43.538   4.887  11.546  0.00  0.00    +0.000 C 
ATOM     26  C   UNL     1      44.322   5.896  10.694  0.00  0.00    +0.000 C 
ATOM     27  C   UNL     1      45.841   5.738  10.832  0.00  0.00    +0.000 C 
BRANCH  25  28
ATOM     28  C   UNL     1      43.643   3.472  10.967  0.00  0.00    +0.000 C 
ATOM     29  O   UNL     1      43.176   2.478  11.521  0.00  0.00    +0.000 OA
ATOM     30  N   UNL     1      44.315   3.374   9.773  0.00  0.00    +0.000 N 
ATOM     31  H   UNL     1      44.929   4.126   9.472  0.00  0.00    +0.000 HD
BRANCH  30  32
ATOM     32  C   UNL     1      44.503   2.075   9.171  0.00  0.00    +0.000 C 
BRANCH  32  33
ATOM     33  C   UNL     1      45.755   2.044   8.342  0.00  0.00    +0.000 C 
ATOM     34  N   UNL     1      46.446   0.971   8.140  0.00  0.00    +0.000 NA
ATOM     35  O   UNL     1      47.483   1.299   7.239  0.00  0.00    +0.000 OA
ATOM     36  C   UNL     1      47.489   2.715   7.034  0.00  0.00    +0.000 C 
ATOM     37  C   UNL     1      46.211   3.251   7.614  0.00  0.00    +0.000 C 
ENDBRANCH  32  33
ENDBRANCH  30  32
ENDBRANCH  25  28
ENDBRANCH  21  22
ENDBRANCH   3  21
TORSDOF 8
ENDMDL
MODEL 8
REMARK VINA RESULT:    -7.123      2.677      4.083
REMARK INTER + INTRA:         -11.807
REMARK INTER:                 -11.421
REMARK INTRA:                  -0.387
REMARK UNBOUND:                -1.352
REMARK  Name = 
REMARK  8 active torsions:
REMARK  status: ('A' for Active; 'I' for Inactive)
REMARK    1  A    between atoms: C_2  and  C_3
REMARK    2  A    between atoms: C_3  and  N_4
REMARK    3  A    between atoms: C_5  and  C_7
REMARK    4  A    between atoms: N_17  and  C_18
REMARK    5  A    between atoms: C_18  and  C_19
REMARK    6  A    between atoms: C_22  and  C_23
REMARK    7  A    between atoms: N_25  and  C_26
REMARK    8  A    between atoms: C_26  and  C_27
REMARK                            x       y       z     vdW  Elec       q    Type
REMARK                         _______ _______ _______ _____ _____    ______ ____
ROOT
ATOM      1  O   UNL     1      47.545   2.870  14.784  0.00  0.00    +0.000 OA
ATOM      2  C   UNL     1      47.499   3.562  15.798  0.00  0.00    +0.000 C 
ATOM      3  N   UNL     1      47.198   4.908  15.789  0.00  0.00    +0.000 N 
ATOM      4  H   UNL     1      47.415   5.442  16.626  0.00  0.00    +0.000 HD
ENDROOT
BRANCH   2   5
ATOM      5  C   UNL     1      47.866   3.020  17.175  0.00  0.00    +0.000 C 
BRANCH   5   6
ATOM      6  N   UNL     1      49.171   3.504  17.572  0.00  0.00    +0.000 N 
ATOM      7  C   UNL     1      50.323   2.840  17.238  0.00  0.00    +0.000 C 
ATOM      8  O   UNL     1      50.304   1.812  16.565  0.00  0.00    +0.000 OA
ATOM      9  H   UNL     1      49.187   4.159  18.351  0.00  0.00    +0.000 HD
BRANCH   7  10
ATOM     10  C   UNL     1      51.583   3.460  17.668  0.00  0.00    +0.000 A 
ATOM     11  C   UNL     1      52.515   2.717  18.378  0.00  0.00    +0.000 A 
ATOM     12  S   UNL     1      53.940   3.580  18.746  0.00  0.00    +0.000 S 
ATOM     13  C   UNL     1      53.340   4.994  18.011  0.00  0.00    +0.000 A 
ATOM     14  N   UNL     1      54.071   6.140  17.993  0.00  0.00    +0.000 NA
ATOM     15  C   UNL     1      53.475   7.144  17.439  0.00  0.00    +0.000 A 
ATOM     16  N   UNL     1      52.217   7.103  16.896  0.00  0.00    +0.000 N 
ATOM     17  C   UNL     1      51.464   5.954  16.849  0.00  0.00    +0.000 A 
ATOM     18  O   UNL     1      50.375   5.924  16.287  0.00  0.00    +0.000 OA
ATOM     19  C   UNL     1      52.077   4.804  17.480  0.00  0.00    +0.000 A 
ATOM     20  H   UNL     1      51.811   7.920  16.465  0.00  0.00    +0.000 HD
ENDBRANCH   7  10
ENDBRANCH   5   6
ENDBRANCH   2   5
BRANCH   3  21
ATOM     21  C   UNL     1      46.928   5.594  14.544  0.00  0.00    +0.000 C 
BRANCH  21  22
ATOM     22  C   UNL     1      46.304   4.678  13.481  0.00  0.00    +0.000 C 
ATOM     23  C   UNL     1      44.764   4.700  13.494  0.00  0.00    +0.000 C 
ATOM     24  C   UNL     1      44.173   5.995  12.936  0.00  0.00    +0.000 C 
ATOM     25  C   UNL     1      44.686   6.302  11.523  0.00  0.00    +0.000 C 
ATOM     26  C   UNL     1      46.222   6.318  11.509  0.00  0.00    +0.000 C 
ATOM     27  C   UNL     1      46.835   5.035  12.084  0.00  0.00    +0.000 C 
BRANCH  25  28
ATOM     28  C   UNL     1      44.131   5.331  10.476  0.00  0.00    +0.000 C 
ATOM     29  O   UNL     1      43.018   4.813  10.556  0.00  0.00    +0.000 OA
ATOM     30  N   UNL     1      44.973   5.056   9.425  0.00  0.00    +0.000 N 
ATOM     31  H   UNL     1      45.967   5.251   9.506  0.00  0.00    +0.000 HD
BRANCH  30  32
ATOM     32  C   UNL     1      44.554   4.119   8.410  0.00  0.00    +0.000 C 
BRANCH  32  33
ATOM     33  C   UNL     1      45.733   3.377   7.847  0.00  0.00    +0.000 C 
ATOM     34  N   UNL     1      46.636   3.935   7.110  0.00  0.00    +0.000 NA
ATOM     35  O   UNL     1      47.632   2.967   6.856  0.00  0.00    +0.000 OA
ATOM     36  C   UNL     1      47.184   1.700   7.348  0.00  0.00    +0.000 C 
ATOM     37  C   UNL     1      45.977   1.960   8.204  0.00  0.00    +0.000 C 
ENDBRANCH  32  33
ENDBRANCH  30  32
ENDBRANCH  25  28
ENDBRANCH  21  22
ENDBRANCH   3  21
TORSDOF 8
ENDMDL
MODEL 9
REMARK VINA RESULT:    -6.905      4.263      5.121
REMARK INTER + INTRA:         -11.487
REMARK INTER:                 -10.381
REMARK INTRA:                  -1.106
REMARK UNBOUND:                -1.352
REMARK  Name = 
REMARK  8 active torsions:
REMARK  status: ('A' for Active; 'I' for Inactive)
REMARK    1  A    between atoms: C_2  and  C_3
REMARK    2  A    between atoms: C_3  and  N_4
REMARK    3  A    between atoms: C_5  and  C_7
REMARK    4  A    between atoms: N_17  and  C_18
REMARK    5  A    between atoms: C_18  and  C_19
REMARK    6  A    between atoms: C_22  and  C_23
REMARK    7  A    between atoms: N_25  and  C_26
REMARK    8  A    between atoms: C_26  and  C_27
REMARK                            x       y       z     vdW  Elec       q    Type
REMARK                         _______ _______ _______ _____ _____    ______ ____
ROOT
ATOM      1  O   UNL     1      48.641   7.821  13.798  0.00  0.00    +0.000 OA
ATOM      2  C   UNL     1      48.274   8.277  12.718  0.00  0.00    +0.000 C 
ATOM      3  N   UNL     1      47.017   8.068  12.190  0.00  0.00    +0.000 N 
ATOM      4  H   UNL     1      46.883   8.273  11.204  0.00  0.00    +0.000 HD
ENDROOT
BRANCH   2   5
ATOM      5  C   UNL     1      49.211   9.051  11.796  0.00  0.00    +0.000 C 
BRANCH   5   6
ATOM      6  N   UNL     1      50.534   8.464  11.821  0.00  0.00    +0.000 N 
ATOM      7  C   UNL     1      51.669   9.232  11.748  0.00  0.00    +0.000 C 
ATOM      8  O   UNL     1      51.616  10.458  11.681  0.00  0.00    +0.000 OA
ATOM      9  H   UNL     1      50.590   7.477  11.582  0.00  0.00    +0.000 HD
BRANCH   7  10
ATOM     10  C   UNL     1      52.947   8.515  11.825  0.00  0.00    +0.000 A 
ATOM     11  C   UNL     1      53.870   8.846  12.807  0.00  0.00    +0.000 A 
ATOM     12  S   UNL     1      55.273   7.876  12.782  0.00  0.00    +0.000 S 
ATOM     13  C   UNL     1      54.718   7.011  11.425  0.00  0.00    +0.000 A 
ATOM     14  N   UNL     1      55.468   6.023  10.866  0.00  0.00    +0.000 NA
ATOM     15  C   UNL     1      54.941   5.481   9.818  0.00  0.00    +0.000 A 
ATOM     16  N   UNL     1      53.729   5.834   9.282  0.00  0.00    +0.000 N 
ATOM     17  C   UNL     1      52.917   6.790   9.843  0.00  0.00    +0.000 A 
ATOM     18  O   UNL     1      51.803   7.030   9.391  0.00  0.00    +0.000 OA
ATOM     19  C   UNL     1      53.474   7.447  11.008  0.00  0.00    +0.000 A 
ATOM     20  H   UNL     1      53.366   5.362   8.468  0.00  0.00    +0.000 HD
ENDBRANCH   7  10
ENDBRANCH   5   6
ENDBRANCH   2   5
BRANCH   3  21
ATOM     21  C   UNL     1      46.046   7.263  12.899  0.00  0.00    +0.000 C 
BRANCH  21  22
ATOM     22  C   UNL     1      46.106   5.778  12.512  0.00  0.00    +0.000 C 
ATOM     23  C   UNL     1      45.025   4.928  13.208  0.00  0.00    +0.000 C 
ATOM     24  C   UNL     1      43.620   5.166  12.654  0.00  0.00    +0.000 C 
ATOM     25  C   UNL     1      43.554   4.952  11.136  0.00  0.00    +0.000 C 
ATOM     26  C   UNL     1      44.605   5.823  10.432  0.00  0.00    +0.000 C 
ATOM     27  C   UNL     1      46.019   5.614  10.986  0.00  0.00    +0.000 C 
BRANCH  25  28
ATOM     28  C   UNL     1      43.704   3.478  10.746  0.00  0.00    +0.000 C 
ATOM     29  O   UNL     1      43.243   2.552  11.412  0.00  0.00    +0.000 OA
ATOM     30  N   UNL     1      44.409   3.244   9.591  0.00  0.00    +0.000 N 
ATOM     31  H   UNL     1      45.015   3.966   9.211  0.00  0.00    +0.000 HD
BRANCH  30  32
ATOM     32  C   UNL     1      44.639   1.884   9.165  0.00  0.00    +0.000 C 
BRANCH  32  33
ATOM     33  C   UNL     1      45.860   1.794   8.295  0.00  0.00    +0.000 C 
ATOM     34  N   UNL     1      46.474   0.684   8.047  0.00  0.00    +0.000 NA
ATOM     35  O   UNL     1      47.501   0.967   7.120  0.00  0.00    +0.000 OA
ATOM     36  C   UNL     1      47.591   2.385   6.945  0.00  0.00    +0.000 C 
ATOM     37  C   UNL     1      46.369   2.987   7.579  0.00  0.00    +0.000 C 
ENDBRANCH  32  33
ENDBRANCH  30  32
ENDBRANCH  25  28
ENDBRANCH  21  22
ENDBRANCH   3  21
TORSDOF 8
ENDMDL
