MODEL 1
REMARK VINA RESULT:    -7.951      0.000      0.000
REMARK INTER + INTRA:         -11.434
REMARK INTER:                 -10.739
REMARK INTRA:                  -0.694
REMARK UNBOUND:                -0.694
REMARK  Name = 
REMARK  7 active torsions:
REMARK  status: ('A' for Active; 'I' for Inactive)
REMARK    1  A    between atoms: C_1  and  C_2
REMARK    2  A    between atoms: C_7  and  C_8
REMARK    3  A    between atoms: N_10  and  C_11
REMARK    4  A    between atoms: C_11  and  C_12
REMARK    5  A    between atoms: C_15  and  O_16
REMARK    6  A    between atoms: O_16  and  C_17
REMARK    7  A    between atoms: C_17  and  C_18
REMARK                            x       y       z     vdW  Elec       q    Type
REMARK                         _______ _______ _______ _____ _____    ______ ____
ROOT
ATOM      1  C   UNL     1      47.625   5.644  14.556  0.00  0.00    +0.000 C 
ATOM      2  O   UNL     1      48.568   6.021  13.860  0.00  0.00    +0.000 OA
ATOM      3  N   UNL     1      46.329   5.828  14.150  0.00  0.00    +0.000 N 
ATOM      4  H   UNL     1      45.552   5.500  14.716  0.00  0.00    +0.000 HD
ENDROOT
BRANCH   1  11
ATOM      5  C   UNL     1      49.923   6.144  20.998  0.00  0.00    +0.000 C 
ATOM      6  C   UNL     1      49.366   5.826  19.640  0.00  0.00    +0.000 A 
ATOM      7  N   UNL     1      48.925   4.642  19.354  0.00  0.00    +0.000 NA
ATOM      8  C   UNL     1      48.455   4.503  18.084  0.00  0.00    +0.000 A 
ATOM      9  S   UNL     1      47.841   3.010  17.546  0.00  0.00    +0.000 S 
ATOM     10  C   UNL     1      47.511   3.645  15.999  0.00  0.00    +0.000 A 
ATOM     11  C   UNL     1      47.853   4.984  15.852  0.00  0.00    +0.000 A 
ATOM     12  C   UNL     1      48.402   5.473  17.098  0.00  0.00    +0.000 A 
ATOM     13  C   UNL     1      48.897   6.784  17.472  0.00  0.00    +0.000 A 
ATOM     14  O   UNL     1      48.904   7.760  16.731  0.00  0.00    +0.000 OA
ATOM     15  N   UNL     1      49.372   6.876  18.758  0.00  0.00    +0.000 N 
ATOM     16  H   UNL     1      49.718   7.784  19.032  0.00  0.00    +0.000 HD
ENDBRANCH   1  11
BRANCH   3  17
ATOM     17  C   UNL     1      46.021   6.469  12.898  0.00  0.00    +0.000 C 
BRANCH  17  18
ATOM     18  C   UNL     1      45.564   5.478  11.862  0.00  0.00    +0.000 A 
ATOM     19  C   UNL     1      45.632   5.770  10.493  0.00  0.00    +0.000 A 
ATOM     20  C   UNL     1      45.235   4.821   9.547  0.00  0.00    +0.000 A 
ATOM     21  C   UNL     1      44.768   3.569   9.954  0.00  0.00    +0.000 A 
ATOM     22  C   UNL     1      44.632   3.302  11.317  0.00  0.00    +0.000 A 
ATOM     23  C   UNL     1      45.035   4.244  12.263  0.00  0.00    +0.000 A 
BRANCH  21  24
ATOM     24  O   UNL     1      44.477   2.682   8.954  0.00  0.00    +0.000 OA
BRANCH  24  25
ATOM     25  C   UNL     1      45.459   1.658   8.757  0.00  0.00    +0.000 C 
BRANCH  25  26
ATOM     26  C   UNL     1      46.317   1.983   7.565  0.00  0.00    +0.000 A 
ATOM     27  C   UNL     1      47.448   1.221   7.291  0.00  0.00    +0.000 A 
ATOM     28  N   UNL     1      48.230   1.429   6.205  0.00  0.00    +0.000 NA
ATOM     29  C   UNL     1      47.837   2.440   5.400  0.00  0.00    +0.000 A 
ATOM     30  C   UNL     1      46.708   3.199   5.656  0.00  0.00    +0.000 A 
ATOM     31  N   UNL     1      45.921   2.985   6.735  0.00  0.00    +0.000 NA
ENDBRANCH  25  26
ENDBRANCH  24  25
ENDBRANCH  21  24
ENDBRANCH  17  18
ENDBRANCH   3  17
TORSDOF 6
ENDMDL
MODEL 2
REMARK VINA RESULT:    -7.889      2.655      3.323
REMARK INTER + INTRA:         -11.350
REMARK INTER:                 -10.972
REMARK INTRA:                  -0.378
REMARK UNBOUND:                -0.694
REMARK  Name = 
REMARK  7 active torsions:
REMARK  status: ('A' for Active; 'I' for Inactive)
REMARK    1  A    between atoms: C_1  and  C_2
REMARK    2  A    between atoms: C_7  and  C_8
REMARK    3  A    between atoms: N_10  and  C_11
REMARK    4  A    between atoms: C_11  and  C_12
REMARK    5  A    between atoms: C_15  and  O_16
REMARK    6  A    between atoms: O_16  and  C_17
REMARK    7  A    between atoms: C_17  and  C_18
REMARK                            x       y       z     vdW  Elec       q    Type
REMARK                         _______ _______ _______ _____ _____    ______ ____
ROOT
ATOM      1  C   UNL     1      47.273   4.139  16.430  0.00  0.00    +0.000 C 
ATOM      2  O   UNL     1      46.467   3.453  17.058  0.00  0.00    +0.000 OA
ATOM      3  N   UNL     1      46.933   4.714  15.234  0.00  0.00    +0.000 N 
ATOM      4  H   UNL     1      47.593   5.294  14.725  0.00  0.00    +0.000 HD
ENDROOT
BRANCH   1  11
ATOM      5  C   UNL     1      53.436   1.505  17.885  0.00  0.00    +0.000 C 
ATOM      6  C   UNL     1      52.172   2.275  17.633  0.00  0.00    +0.000 A 
ATOM      7  N   UNL     1      52.086   3.536  17.914  0.00  0.00    +0.000 NA
ATOM      8  C   UNL     1      50.878   4.099  17.635  0.00  0.00    +0.000 A 
ATOM      9  S   UNL     1      50.596   5.747  17.946  0.00  0.00    +0.000 S 
ATOM     10  C   UNL     1      48.995   5.636  17.374  0.00  0.00    +0.000 A 
ATOM     11  C   UNL     1      48.637   4.365  16.938  0.00  0.00    +0.000 A 
ATOM     12  C   UNL     1      49.766   3.474  17.095  0.00  0.00    +0.000 A 
ATOM     13  C   UNL     1      49.918   2.065  16.788  0.00  0.00    +0.000 A 
ATOM     14  O   UNL     1      49.044   1.366  16.288  0.00  0.00    +0.000 OA
ATOM     15  N   UNL     1      51.149   1.537  17.096  0.00  0.00    +0.000 N 
ATOM     16  H   UNL     1      51.268   0.557  16.885  0.00  0.00    +0.000 HD
ENDBRANCH   1  11
BRANCH   3  17
ATOM     17  C   UNL     1      45.622   4.537  14.665  0.00  0.00    +0.000 C 
BRANCH  17  18
ATOM     18  C   UNL     1      45.637   4.704  13.170  0.00  0.00    +0.000 A 
ATOM     19  C   UNL     1      45.053   3.752  12.323  0.00  0.00    +0.000 A 
ATOM     20  C   UNL     1      45.049   3.944  10.939  0.00  0.00    +0.000 A 
ATOM     21  C   UNL     1      45.625   5.088  10.382  0.00  0.00    +0.000 A 
ATOM     22  C   UNL     1      46.270   6.002  11.216  0.00  0.00    +0.000 A 
ATOM     23  C   UNL     1      46.269   5.816  12.599  0.00  0.00    +0.000 A 
BRANCH  21  24
ATOM     24  O   UNL     1      45.503   5.224   9.026  0.00  0.00    +0.000 OA
BRANCH  24  25
ATOM     25  C   UNL     1      44.854   4.128   8.370  0.00  0.00    +0.000 C 
BRANCH  25  26
ATOM     26  C   UNL     1      45.868   3.101   7.947  0.00  0.00    +0.000 A 
ATOM     27  C   UNL     1      45.723   1.774   8.339  0.00  0.00    +0.000 A 
ATOM     28  N   UNL     1      46.571   0.794   7.947  0.00  0.00    +0.000 NA
ATOM     29  C   UNL     1      47.580   1.196   7.145  0.00  0.00    +0.000 A 
ATOM     30  C   UNL     1      47.731   2.511   6.740  0.00  0.00    +0.000 A 
ATOM     31  N   UNL     1      46.878   3.489   7.123  0.00  0.00    +0.000 NA
ENDBRANCH  25  26
ENDBRANCH  24  25
ENDBRANCH  21  24
ENDBRANCH  17  18
ENDBRANCH   3  17
TORSDOF 6
ENDMDL
MODEL 3
REMARK VINA RESULT:    -7.605      4.774      9.317
REMARK INTER + INTRA:         -10.967
REMARK INTER:                 -10.067
REMARK INTRA:                  -0.900
REMARK UNBOUND:                -0.694
REMARK  Name = 
REMARK  7 active torsions:
REMARK  status: ('A' for Active; 'I' for Inactive)
REMARK    1  A    between atoms: C_1  and  C_2
REMARK    2  A    between atoms: C_7  and  C_8
REMARK    3  A    between atoms: N_10  and  C_11
REMARK    4  A    between atoms: C_11  and  C_12
REMARK    5  A    between atoms: C_15  and  O_16
REMARK    6  A    between atoms: O_16  and  C_17
REMARK    7  A    between atoms: C_17  and  C_18
REMARK                            x       y       z     vdW  Elec       q    Type
REMARK                         _______ _______ _______ _____ _____    ______ ____
ROOT
ATOM      1  C   UNL     1      48.263   6.270  14.790  0.00  0.00    +0.000 C 
ATOM      2  O   UNL     1      49.418   6.638  14.580  0.00  0.00    +0.000 OA
ATOM      3  N   UNL     1      47.869   5.850  16.033  0.00  0.00    +0.000 N 
ATOM      4  H   UNL     1      46.911   5.563  16.211  0.00  0.00    +0.000 HD
ENDROOT
BRANCH   1  11
ATOM      5  C   UNL     1      44.073   2.605  10.784  0.00  0.00    +0.000 C 
ATOM      6  C   UNL     1      44.907   3.585  11.557  0.00  0.00    +0.000 A 
ATOM      7  N   UNL     1      44.859   4.855  11.307  0.00  0.00    +0.000 NA
ATOM      8  C   UNL     1      45.673   5.619  12.085  0.00  0.00    +0.000 A 
ATOM      9  S   UNL     1      45.731   7.307  11.885  0.00  0.00    +0.000 S 
ATOM     10  C   UNL     1      46.890   7.468  13.124  0.00  0.00    +0.000 A 
ATOM     11  C   UNL     1      47.259   6.264  13.713  0.00  0.00    +0.000 A 
ATOM     12  C   UNL     1      46.523   5.185  13.089  0.00  0.00    +0.000 A 
ATOM     13  C   UNL     1      46.532   3.757  13.337  0.00  0.00    +0.000 A 
ATOM     14  O   UNL     1      47.208   3.207  14.200  0.00  0.00    +0.000 OA
ATOM     15  N   UNL     1      45.704   3.024  12.522  0.00  0.00    +0.000 N 
ATOM     16  H   UNL     1      45.700   2.028  12.685  0.00  0.00    +0.000 HD
ENDBRANCH   1  11
BRANCH   3  17
ATOM     17  C   UNL     1      48.791   5.820  17.140  0.00  0.00    +0.000 C 
BRANCH  17  18
ATOM     18  C   UNL     1      49.545   4.519  17.201  0.00  0.00    +0.000 A 
ATOM     19  C   UNL     1      50.920   4.485  17.470  0.00  0.00    +0.000 A 
ATOM     20  C   UNL     1      51.593   3.263  17.557  0.00  0.00    +0.000 A 
ATOM     21  C   UNL     1      50.904   2.062  17.378  0.00  0.00    +0.000 A 
ATOM     22  C   UNL     1      49.551   2.095  17.039  0.00  0.00    +0.000 A 
ATOM     23  C   UNL     1      48.875   3.313  16.960  0.00  0.00    +0.000 A 
BRANCH  21  24
ATOM     24  O   UNL     1      51.632   0.917  17.558  0.00  0.00    +0.000 OA
BRANCH  24  25
ATOM     25  C   UNL     1      53.042   1.123  17.709  0.00  0.00    +0.000 C 
BRANCH  25  26
ATOM     26  C   UNL     1      53.757  -0.200  17.760  0.00  0.00    +0.000 A 
ATOM     27  C   UNL     1      54.583  -0.588  16.710  0.00  0.00    +0.000 A 
ATOM     28  N   UNL     1      55.295  -1.740  16.720  0.00  0.00    +0.000 NA
ATOM     29  C   UNL     1      55.145  -2.497  17.828  0.00  0.00    +0.000 A 
ATOM     30  C   UNL     1      54.333  -2.118  18.884  0.00  0.00    +0.000 A 
ATOM     31  N   UNL     1      53.630  -0.963  18.879  0.00  0.00    +0.000 NA
ENDBRANCH  25  26
ENDBRANCH  24  25
ENDBRANCH  21  24
ENDBRANCH  17  18
ENDBRANCH   3  17
TORSDOF 6
ENDMDL
MODEL 4
REMARK VINA RESULT:    -7.411      2.107      2.833
REMARK INTER + INTRA:         -10.705
REMARK INTER:                  -9.701
REMARK INTRA:                  -1.004
REMARK UNBOUND:                -0.694
REMARK  Name = 
REMARK  7 active torsions:
REMARK  status: ('A' for Active; 'I' for Inactive)
REMARK    1  A    between atoms: C_1  and  C_2
REMARK    2  A    between atoms: C_7  and  C_8
REMARK    3  A    between atoms: N_10  and  C_11
REMARK    4  A    between atoms: C_11  and  C_12
REMARK    5  A    between atoms: C_15  and  O_16
REMARK    6  A    between atoms: O_16  and  C_17
REMARK    7  A    between atoms: C_17  and  C_18
REMARK                            x       y       z     vdW  Elec       q    Type
REMARK                         _______ _______ _______ _____ _____    ______ ____
ROOT
ATOM      1  C   UNL     1      48.312   8.880  15.057  0.00  0.00    +0.000 C 
ATOM      2  O   UNL     1      49.055   9.607  14.398  0.00  0.00    +0.000 OA
ATOM      3  N   UNL     1      47.307   8.167  14.459  0.00  0.00    +0.000 N 
ATOM      4  H   UNL     1      46.705   7.554  15.000  0.00  0.00    +0.000 HD
ENDROOT
BRANCH   1  11
ATOM      5  C   UNL     1      49.327   4.756  20.442  0.00  0.00    +0.000 C 
ATOM      6  C   UNL     1      49.106   5.825  19.411  0.00  0.00    +0.000 A 
ATOM      7  N   UNL     1      48.976   7.069  19.747  0.00  0.00    +0.000 NA
ATOM      8  C   UNL     1      48.777   7.921  18.705  0.00  0.00    +0.000 A 
ATOM      9  S   UNL     1      48.584   9.590  18.975  0.00  0.00    +0.000 S 
ATOM     10  C   UNL     1      48.395   9.891  17.308  0.00  0.00    +0.000 A 
ATOM     11  C   UNL     1      48.472   8.751  16.516  0.00  0.00    +0.000 A 
ATOM     12  C   UNL     1      48.704   7.600  17.360  0.00  0.00    +0.000 A 
ATOM     13  C   UNL     1      48.868   6.196  17.035  0.00  0.00    +0.000 A 
ATOM     14  O   UNL     1      48.852   5.742  15.897  0.00  0.00    +0.000 OA
ATOM     15  N   UNL     1      49.055   5.371  18.117  0.00  0.00    +0.000 N 
ATOM     16  H   UNL     1      49.172   4.391  17.904  0.00  0.00    +0.000 HD
ENDBRANCH   1  11
BRANCH   3  17
ATOM     17  C   UNL     1      47.079   8.242  13.038  0.00  0.00    +0.000 C 
BRANCH  17  18
ATOM     18  C   UNL     1      46.364   7.022  12.524  0.00  0.00    +0.000 A 
ATOM     19  C   UNL     1      45.463   7.102  11.454  0.00  0.00    +0.000 A 
ATOM     20  C   UNL     1      44.836   5.950  10.971  0.00  0.00    +0.000 A 
ATOM     21  C   UNL     1      45.101   4.706  11.547  0.00  0.00    +0.000 A 
ATOM     22  C   UNL     1      45.942   4.633  12.657  0.00  0.00    +0.000 A 
ATOM     23  C   UNL     1      46.575   5.780  13.137  0.00  0.00    +0.000 A 
BRANCH  21  24
ATOM     24  O   UNL     1      44.499   3.629  10.955  0.00  0.00    +0.000 OA
BRANCH  24  25
ATOM     25  C   UNL     1      44.187   3.804   9.568  0.00  0.00    +0.000 C 
BRANCH  25  26
ATOM     26  C   UNL     1      45.239   3.150   8.713  0.00  0.00    +0.000 A 
ATOM     27  C   UNL     1      45.502   1.791   8.848  0.00  0.00    +0.000 A 
ATOM     28  N   UNL     1      46.397   1.134   8.072  0.00  0.00    +0.000 NA
ATOM     29  C   UNL     1      47.026   1.896   7.152  0.00  0.00    +0.000 A 
ATOM     30  C   UNL     1      46.766   3.247   7.001  0.00  0.00    +0.000 A 
ATOM     31  N   UNL     1      45.866   3.902   7.769  0.00  0.00    +0.000 NA
ENDBRANCH  25  26
ENDBRANCH  24  25
ENDBRANCH  21  24
ENDBRANCH  17  18
ENDBRANCH   3  17
TORSDOF 6
ENDMDL
MODEL 5
REMARK VINA RESULT:    -7.387      2.098      2.840
REMARK INTER + INTRA:         -10.672
REMARK INTER:                  -9.988
REMARK INTRA:                  -0.684
REMARK UNBOUND:                -0.694
REMARK  Name = 
REMARK  7 active torsions:
REMARK  status: ('A' for Active; 'I' for Inactive)
REMARK    1  A    between atoms: C_1  and  C_2
REMARK    2  A    between atoms: C_7  and  C_8
REMARK    3  A    between atoms: N_10  and  C_11
REMARK    4  A    between atoms: C_11  and  C_12
REMARK    5  A    between atoms: C_15  and  O_16
REMARK    6  A    between atoms: O_16  and  C_17
REMARK    7  A    between atoms: C_17  and  C_18
REMARK                            x       y       z     vdW  Elec       q    Type
REMARK                         _______ _______ _______ _____ _____    ______ ____
ROOT
ATOM      1  C   UNL     1      47.653   8.117  13.519  0.00  0.00    +0.000 C 
ATOM      2  O   UNL     1      48.108   8.712  12.542  0.00  0.00    +0.000 OA
ATOM      3  N   UNL     1      46.323   7.797  13.595  0.00  0.00    +0.000 N 
ATOM      4  H   UNL     1      45.951   7.290  14.393  0.00  0.00    +0.000 HD
ENDROOT
BRANCH   1  11
ATOM      5  C   UNL     1      49.308   3.398  18.211  0.00  0.00    +0.000 C 
ATOM      6  C   UNL     1      49.113   4.550  17.269  0.00  0.00    +0.000 A 
ATOM      7  N   UNL     1      49.839   5.619  17.352  0.00  0.00    +0.000 NA
ATOM      8  C   UNL     1      49.544   6.580  16.434  0.00  0.00    +0.000 A 
ATOM      9  S   UNL     1      50.404   8.047  16.408  0.00  0.00    +0.000 S 
ATOM     10  C   UNL     1      49.486   8.622  15.093  0.00  0.00    +0.000 A 
ATOM     11  C   UNL     1      48.518   7.730  14.645  0.00  0.00    +0.000 A 
ATOM     12  C   UNL     1      48.575   6.527  15.447  0.00  0.00    +0.000 A 
ATOM     13  C   UNL     1      47.797   5.305  15.388  0.00  0.00    +0.000 A 
ATOM     14  O   UNL     1      46.915   5.083  14.566  0.00  0.00    +0.000 OA
ATOM     15  N   UNL     1      48.120   4.369  16.340  0.00  0.00    +0.000 N 
ATOM     16  H   UNL     1      47.587   3.512  16.309  0.00  0.00    +0.000 HD
ENDBRANCH   1  11
BRANCH   3  17
ATOM     17  C   UNL     1      45.407   8.144  12.539  0.00  0.00    +0.000 C 
BRANCH  17  18
ATOM     18  C   UNL     1      45.052   6.950  11.695  0.00  0.00    +0.000 A 
ATOM     19  C   UNL     1      43.759   6.408  11.706  0.00  0.00    +0.000 A 
ATOM     20  C   UNL     1      43.442   5.319  10.889  0.00  0.00    +0.000 A 
ATOM     21  C   UNL     1      44.408   4.760  10.050  0.00  0.00    +0.000 A 
ATOM     22  C   UNL     1      45.713   5.251  10.090  0.00  0.00    +0.000 A 
ATOM     23  C   UNL     1      46.031   6.342  10.899  0.00  0.00    +0.000 A 
BRANCH  21  24
ATOM     24  O   UNL     1      43.981   3.748   9.233  0.00  0.00    +0.000 OA
BRANCH  24  25
ATOM     25  C   UNL     1      44.662   2.501   9.417  0.00  0.00    +0.000 C 
BRANCH  25  26
ATOM     26  C   UNL     1      45.617   2.258   8.281  0.00  0.00    +0.000 A 
ATOM     27  C   UNL     1      45.800   3.230   7.303  0.00  0.00    +0.000 A 
ATOM     28  N   UNL     1      46.684   3.094   6.285  0.00  0.00    +0.000 NA
ATOM     29  C   UNL     1      47.379   1.936   6.282  0.00  0.00    +0.000 A 
ATOM     30  C   UNL     1      47.213   0.965   7.254  0.00  0.00    +0.000 A 
ATOM     31  N   UNL     1      46.338   1.105   8.276  0.00  0.00    +0.000 NA
ENDBRANCH  25  26
ENDBRANCH  24  25
ENDBRANCH  21  24
ENDBRANCH  17  18
ENDBRANCH   3  17
TORSDOF 6
ENDMDL
MODEL 6
REMARK VINA RESULT:    -7.290      2.265      2.909
REMARK INTER + INTRA:         -10.541
REMARK INTER:                  -9.652
REMARK INTRA:                  -0.889
REMARK UNBOUND:                -0.694
REMARK  Name = 
REMARK  7 active torsions:
REMARK  status: ('A' for Active; 'I' for Inactive)
REMARK    1  A    between atoms: C_1  and  C_2
REMARK    2  A    between atoms: C_7  and  C_8
REMARK    3  A    between atoms: N_10  and  C_11
REMARK    4  A    between atoms: C_11  and  C_12
REMARK    5  A    between atoms: C_15  and  O_16
REMARK    6  A    between atoms: O_16  and  C_17
REMARK    7  A    between atoms: C_17  and  C_18
REMARK                            x       y       z     vdW  Elec       q    Type
REMARK                         _______ _______ _______ _____ _____    ______ ____
ROOT
ATOM      1  C   UNL     1      48.701   7.688  13.577  0.00  0.00    +0.000 C 
ATOM      2  O   UNL     1      48.898   7.848  12.373  0.00  0.00    +0.000 OA
ATOM      3  N   UNL     1      47.430   7.657  14.088  0.00  0.00    +0.000 N 
ATOM      4  H   UNL     1      47.267   7.507  15.079  0.00  0.00    +0.000 HD
ENDROOT
BRANCH   1  11
ATOM      5  C   UNL     1      51.130   4.728  19.267  0.00  0.00    +0.000 C 
ATOM      6  C   UNL     1      50.798   5.471  18.005  0.00  0.00    +0.000 A 
ATOM      7  N   UNL     1      51.649   6.278  17.455  0.00  0.00    +0.000 NA
ATOM      8  C   UNL     1      51.206   6.883  16.319  0.00  0.00    +0.000 A 
ATOM      9  S   UNL     1      52.200   7.974  15.474  0.00  0.00    +0.000 S 
ATOM     10  C   UNL     1      50.994   8.247  14.302  0.00  0.00    +0.000 A 
ATOM     11  C   UNL     1      49.823   7.529  14.517  0.00  0.00    +0.000 A 
ATOM     12  C   UNL     1      49.973   6.724  15.710  0.00  0.00    +0.000 A 
ATOM     13  C   UNL     1      49.061   5.802  16.359  0.00  0.00    +0.000 A 
ATOM     14  O   UNL     1      47.940   5.529  15.945  0.00  0.00    +0.000 OA
ATOM     15  N   UNL     1      49.544   5.224  17.507  0.00  0.00    +0.000 N 
ATOM     16  H   UNL     1      48.920   4.578  17.967  0.00  0.00    +0.000 HD
ENDBRANCH   1  11
BRANCH   3  17
ATOM     17  C   UNL     1      46.278   7.811  13.237  0.00  0.00    +0.000 C 
BRANCH  17  18
ATOM     18  C   UNL     1      45.936   6.529  12.527  0.00  0.00    +0.000 A 
ATOM     19  C   UNL     1      45.849   5.313  13.218  0.00  0.00    +0.000 A 
ATOM     20  C   UNL     1      45.496   4.140  12.544  0.00  0.00    +0.000 A 
ATOM     21  C   UNL     1      45.223   4.167  11.175  0.00  0.00    +0.000 A 
ATOM     22  C   UNL     1      45.378   5.361  10.471  0.00  0.00    +0.000 A 
ATOM     23  C   UNL     1      45.722   6.534  11.142  0.00  0.00    +0.000 A 
BRANCH  21  24
ATOM     24  O   UNL     1      44.812   2.985  10.621  0.00  0.00    +0.000 OA
BRANCH  24  25
ATOM     25  C   UNL     1      44.384   3.079   9.257  0.00  0.00    +0.000 C 
BRANCH  25  26
ATOM     26  C   UNL     1      45.455   2.554   8.339  0.00  0.00    +0.000 A 
ATOM     27  C   UNL     1      46.050   3.398   7.407  0.00  0.00    +0.000 A 
ATOM     28  N   UNL     1      47.055   3.001   6.590  0.00  0.00    +0.000 NA
ATOM     29  C   UNL     1      47.443   1.716   6.742  0.00  0.00    +0.000 A 
ATOM     30  C   UNL     1      46.866   0.869   7.672  0.00  0.00    +0.000 A 
ATOM     31  N   UNL     1      45.869   1.268   8.495  0.00  0.00    +0.000 NA
ENDBRANCH  25  26
ENDBRANCH  24  25
ENDBRANCH  21  24
ENDBRANCH  17  18
ENDBRANCH   3  17
TORSDOF 6
ENDMDL
MODEL 7
REMARK VINA RESULT:    -7.106      2.051      2.959
REMARK INTER + INTRA:         -10.293
REMARK INTER:                  -9.338
REMARK INTRA:                  -0.955
REMARK UNBOUND:                -0.694
REMARK  Name = 
REMARK  7 active torsions:
REMARK  status: ('A' for Active; 'I' for Inactive)
REMARK    1  A    between atoms: C_1  and  C_2
REMARK    2  A    between atoms: C_7  and  C_8
REMARK    3  A    between atoms: N_10  and  C_11
REMARK    4  A    between atoms: C_11  and  C_12
REMARK    5  A    between atoms: C_15  and  O_16
REMARK    6  A    between atoms: O_16  and  C_17
REMARK    7  A    between atoms: C_17  and  C_18
REMARK                            x       y       z     vdW  Elec       q    Type
REMARK                         _______ _______ _______ _____ _____    ______ ____
ROOT
ATOM      1  C   UNL     1      48.531   7.542  16.380  0.00  0.00    +0.000 C 
ATOM      2  O   UNL     1      48.282   8.747  16.359  0.00  0.00    +0.000 OA
ATOM      3  N   UNL     1      48.468   6.787  15.239  0.00  0.00    +0.000 N 
ATOM      4  H   UNL     1      48.691   5.796  15.253  0.00  0.00    +0.000 HD
ENDROOT
BRANCH   1  11
ATOM      5  C   UNL     1      53.108   3.728  19.777  0.00  0.00    +0.000 C 
ATOM      6  C   UNL     1      51.990   4.564  19.223  0.00  0.00    +0.000 A 
ATOM      7  N   UNL     1      50.947   4.851  19.935  0.00  0.00    +0.000 NA
ATOM      8  C   UNL     1      50.016   5.611  19.297  0.00  0.00    +0.000 A 
ATOM      9  S   UNL     1      48.584   6.076  20.091  0.00  0.00    +0.000 S 
ATOM     10  C   UNL     1      48.031   6.914  18.714  0.00  0.00    +0.000 A 
ATOM     11  C   UNL     1      48.903   6.864  17.633  0.00  0.00    +0.000 A 
ATOM     12  C   UNL     1      50.072   6.096  18.001  0.00  0.00    +0.000 A 
ATOM     13  C   UNL     1      51.265   5.756  17.250  0.00  0.00    +0.000 A 
ATOM     14  O   UNL     1      51.487   6.119  16.100  0.00  0.00    +0.000 OA
ATOM     15  N   UNL     1      52.172   4.978  17.928  0.00  0.00    +0.000 N 
ATOM     16  H   UNL     1      53.008   4.736  17.417  0.00  0.00    +0.000 HD
ENDBRANCH   1  11
BRANCH   3  17
ATOM     17  C   UNL     1      48.106   7.372  13.973  0.00  0.00    +0.000 C 
BRANCH  17  18
ATOM     18  C   UNL     1      47.141   6.502  13.214  0.00  0.00    +0.000 A 
ATOM     19  C   UNL     1      46.904   5.174  13.593  0.00  0.00    +0.000 A 
ATOM     20  C   UNL     1      45.978   4.394  12.894  0.00  0.00    +0.000 A 
ATOM     21  C   UNL     1      45.276   4.929  11.812  0.00  0.00    +0.000 A 
ATOM     22  C   UNL     1      45.561   6.228  11.389  0.00  0.00    +0.000 A 
ATOM     23  C   UNL     1      46.479   7.010  12.089  0.00  0.00    +0.000 A 
BRANCH  21  24
ATOM     24  O   UNL     1      44.336   4.114  11.242  0.00  0.00    +0.000 OA
BRANCH  24  25
ATOM     25  C   UNL     1      44.091   4.363   9.853  0.00  0.00    +0.000 C 
BRANCH  25  26
ATOM     26  C   UNL     1      45.065   3.590   9.006  0.00  0.00    +0.000 A 
ATOM     27  C   UNL     1      45.204   2.217   9.181  0.00  0.00    +0.000 A 
ATOM     28  N   UNL     1      46.024   1.457   8.415  0.00  0.00    +0.000 NA
ATOM     29  C   UNL     1      46.708   2.130   7.465  0.00  0.00    +0.000 A 
ATOM     30  C   UNL     1      46.571   3.494   7.275  0.00  0.00    +0.000 A 
ATOM     31  N   UNL     1      45.745   4.252   8.033  0.00  0.00    +0.000 NA
ENDBRANCH  25  26
ENDBRANCH  24  25
ENDBRANCH  21  24
ENDBRANCH  17  18
ENDBRANCH   3  17
TORSDOF 6
ENDMDL
MODEL 8
REMARK VINA RESULT:    -7.092      3.073      4.278
REMARK INTER + INTRA:         -10.274
REMARK INTER:                  -9.438
REMARK INTRA:                  -0.836
REMARK UNBOUND:                -0.694
REMARK  Name = 
REMARK  7 active torsions:
REMARK  status: ('A' for Active; 'I' for Inactive)
REMARK    1  A    between atoms: C_1  and  C_2
REMARK    2  A    between atoms: C_7  and  C_8
REMARK    3  A    between atoms: N_10  and  C_11
REMARK    4  A    between atoms: C_11  and  C_12
REMARK    5  A    between atoms: C_15  and  O_16
REMARK    6  A    between atoms: O_16  and  C_17
REMARK    7  A    between atoms: C_17  and  C_18
REMARK                            x       y       z     vdW  Elec       q    Type
REMARK                         _______ _______ _______ _____ _____    ______ ____
ROOT
ATOM      1  C   UNL     1      48.362   5.931  15.234  0.00  0.00    +0.000 C 
ATOM      2  O   UNL     1      48.676   4.978  15.946  0.00  0.00    +0.000 OA
ATOM      3  N   UNL     1      47.236   5.891  14.454  0.00  0.00    +0.000 N 
ATOM      4  H   UNL     1      46.967   6.685  13.880  0.00  0.00    +0.000 HD
ENDROOT
BRANCH   1  11
ATOM      5  C   UNL     1      51.552  10.641  11.403  0.00  0.00    +0.000 C 
ATOM      6  C   UNL     1      50.925   9.727  12.416  0.00  0.00    +0.000 A 
ATOM      7  N   UNL     1      51.078   9.925  13.687  0.00  0.00    +0.000 NA
ATOM      8  C   UNL     1      50.455   9.013  14.482  0.00  0.00    +0.000 A 
ATOM      9  S   UNL     1      50.557   9.128  16.176  0.00  0.00    +0.000 S 
ATOM     10  C   UNL     1      49.601   7.732  16.381  0.00  0.00    +0.000 A 
ATOM     11  C   UNL     1      49.186   7.151  15.188  0.00  0.00    +0.000 A 
ATOM     12  C   UNL     1      49.696   7.928  14.079  0.00  0.00    +0.000 A 
ATOM     13  C   UNL     1      49.546   7.757  12.647  0.00  0.00    +0.000 A 
ATOM     14  O   UNL     1      48.892   6.864  12.120  0.00  0.00    +0.000 OA
ATOM     15  N   UNL     1      50.200   8.692  11.882  0.00  0.00    +0.000 N 
ATOM     16  H   UNL     1      50.103   8.585  10.884  0.00  0.00    +0.000 HD
ENDBRANCH   1  11
BRANCH   3  17
ATOM     17  C   UNL     1      46.380   4.733  14.436  0.00  0.00    +0.000 C 
BRANCH  17  18
ATOM     18  C   UNL     1      45.755   4.525  13.083  0.00  0.00    +0.000 A 
ATOM     19  C   UNL     1      45.817   5.513  12.091  0.00  0.00    +0.000 A 
ATOM     20  C   UNL     1      45.259   5.284  10.830  0.00  0.00    +0.000 A 
ATOM     21  C   UNL     1      44.636   4.068  10.542  0.00  0.00    +0.000 A 
ATOM     22  C   UNL     1      44.510   3.111  11.549  0.00  0.00    +0.000 A 
ATOM     23  C   UNL     1      45.072   3.333  12.806  0.00  0.00    +0.000 A 
BRANCH  21  24
ATOM     24  O   UNL     1      44.190   3.910   9.258  0.00  0.00    +0.000 OA
BRANCH  24  25
ATOM     25  C   UNL     1      45.127   4.299   8.246  0.00  0.00    +0.000 C 
BRANCH  25  26
ATOM     26  C   UNL     1      46.030   3.145   7.903  0.00  0.00    +0.000 A 
ATOM     27  C   UNL     1      45.720   1.863   8.343  0.00  0.00    +0.000 A 
ATOM     28  N   UNL     1      46.462   0.776   8.024  0.00  0.00    +0.000 NA
ATOM     29  C   UNL     1      47.537   1.024   7.244  0.00  0.00    +0.000 A 
ATOM     30  C   UNL     1      47.850   2.294   6.792  0.00  0.00    +0.000 A 
ATOM     31  N   UNL     1      47.104   3.379   7.103  0.00  0.00    +0.000 NA
ENDBRANCH  25  26
ENDBRANCH  24  25
ENDBRANCH  21  24
ENDBRANCH  17  18
ENDBRANCH   3  17
TORSDOF 6
ENDMDL
MODEL 9
REMARK VINA RESULT:    -7.026      4.300      5.489
REMARK INTER + INTRA:         -10.185
REMARK INTER:                  -9.130
REMARK INTRA:                  -1.056
REMARK UNBOUND:                -0.694
REMARK  Name = 
REMARK  7 active torsions:
REMARK  status: ('A' for Active; 'I' for Inactive)
REMARK    1  A    between atoms: C_1  and  C_2
REMARK    2  A    between atoms: C_7  and  C_8
REMARK    3  A    between atoms: N_10  and  C_11
REMARK    4  A    between atoms: C_11  and  C_12
REMARK    5  A    between atoms: C_15  and  O_16
REMARK    6  A    between atoms: O_16  and  C_17
REMARK    7  A    between atoms: C_17  and  C_18
REMARK                            x       y       z     vdW  Elec       q    Type
REMARK                         _______ _______ _______ _____ _____    ______ ____
ROOT
ATOM      1  C   UNL     1      47.411   9.789  12.361  0.00  0.00    +0.000 C 
ATOM      2  O   UNL     1      46.583  10.614  11.976  0.00  0.00    +0.000 OA
ATOM      3  N   UNL     1      47.018   8.580  12.874  0.00  0.00    +0.000 N 
ATOM      4  H   UNL     1      47.702   7.892  13.175  0.00  0.00    +0.000 HD
ENDROOT
BRANCH   1  11
ATOM      5  C   UNL     1      53.704   7.487  10.905  0.00  0.00    +0.000 C 
ATOM      6  C   UNL     1      52.426   8.184  11.269  0.00  0.00    +0.000 A 
ATOM      7  N   UNL     1      52.423   9.410  11.688  0.00  0.00    +0.000 NA
ATOM      8  C   UNL     1      51.191   9.906  11.984  0.00  0.00    +0.000 A 
ATOM      9  S   UNL     1      51.011  11.500  12.549  0.00  0.00    +0.000 S 
ATOM     10  C   UNL     1      49.320  11.323  12.669  0.00  0.00    +0.000 A 
ATOM     11  C   UNL     1      48.855  10.069  12.290  0.00  0.00    +0.000 A 
ATOM     12  C   UNL     1      49.975   9.250  11.882  0.00  0.00    +0.000 A 
ATOM     13  C   UNL     1      50.032   7.884  11.398  0.00  0.00    +0.000 A 
ATOM     14  O   UNL     1      49.052   7.168  11.229  0.00  0.00    +0.000 OA
ATOM     15  N   UNL     1      51.295   7.421  11.123  0.00  0.00    +0.000 N 
ATOM     16  H   UNL     1      51.348   6.472  10.784  0.00  0.00    +0.000 HD
ENDBRANCH   1  11
BRANCH   3  17
ATOM     17  C   UNL     1      45.625   8.230  12.983  0.00  0.00    +0.000 C 
BRANCH  17  18
ATOM     18  C   UNL     1      45.359   6.842  12.467  0.00  0.00    +0.000 A 
ATOM     19  C   UNL     1      44.448   6.614  11.426  0.00  0.00    +0.000 A 
ATOM     20  C   UNL     1      44.241   5.321  10.939  0.00  0.00    +0.000 A 
ATOM     21  C   UNL     1      44.940   4.240  11.481  0.00  0.00    +0.000 A 
ATOM     22  C   UNL     1      45.793   4.454  12.564  0.00  0.00    +0.000 A 
ATOM     23  C   UNL     1      46.008   5.745  13.047  0.00  0.00    +0.000 A 
BRANCH  21  24
ATOM     24  O   UNL     1      44.727   3.027  10.886  0.00  0.00    +0.000 OA
BRANCH  24  25
ATOM     25  C   UNL     1      44.252   3.096   9.536  0.00  0.00    +0.000 C 
BRANCH  25  26
ATOM     26  C   UNL     1      45.386   2.867   8.574  0.00  0.00    +0.000 A 
ATOM     27  C   UNL     1      45.945   1.600   8.444  0.00  0.00    +0.000 A 
ATOM     28  N   UNL     1      46.930   1.318   7.558  0.00  0.00    +0.000 NA
ATOM     29  C   UNL     1      47.340   2.361   6.805  0.00  0.00    +0.000 A 
ATOM     30  C   UNL     1      46.785   3.624   6.918  0.00  0.00    +0.000 A 
ATOM     31  N   UNL     1      45.795   3.904   7.795  0.00  0.00    +0.000 NA
ENDBRANCH  25  26
ENDBRANCH  24  25
ENDBRANCH  21  24
ENDBRANCH  17  18
ENDBRANCH   3  17
TORSDOF 6
ENDMDL
