MODEL 1
REMARK VINA RESULT:    -7.854      0.000      0.000
REMARK INTER + INTRA:         -12.371
REMARK INTER:                 -11.068
REMARK INTRA:                  -1.303
REMARK UNBOUND:                -1.303
REMARK  Name = 
REMARK  9 active torsions:
REMARK  status: ('A' for Active; 'I' for Inactive)
REMARK    1  A    between atoms: C_1  and  O_2
REMARK    2  A    between atoms: O_2  and  C_3
REMARK    3  A    between atoms: C_9  and  C_10
REMARK    4  A    between atoms: N_12  and  C_13
REMARK    5  A    between atoms: C_13  and  C_14
REMARK    6  A    between atoms: C_17  and  C_18
REMARK    7  A    between atoms: C_18  and  C_19
REMARK    8  A    between atoms: C_19  and  N_20
REMARK    9  A    between atoms: N_32  and  C_33
REMARK                            x       y       z     vdW  Elec       q    Type
REMARK                         _______ _______ _______ _____ _____    ______ ____
ROOT
ATOM      1  C   UNL     1      47.492   4.152  15.913  0.00  0.00    +0.000 A 
ATOM      2  C   UNL     1      48.025   5.444  15.875  0.00  0.00    +0.000 A 
ATOM      3  C   UNL     1      47.970   6.207  14.704  0.00  0.00    +0.000 A 
ATOM      4  C   UNL     1      47.374   5.702  13.541  0.00  0.00    +0.000 A 
ATOM      5  C   UNL     1      46.808   4.417  13.596  0.00  0.00    +0.000 A 
ATOM      6  C   UNL     1      46.861   3.654  14.768  0.00  0.00    +0.000 A 
ENDROOT
BRANCH   1   7
ATOM      7  C   UNL     1      47.592   3.328  17.170  0.00  0.00    +0.000 C 
BRANCH   7  10
ATOM      8  C   UNL     1      49.801   2.294  16.936  0.00  0.00    +0.000 C 
ATOM      9  O   UNL     1      49.411   1.552  16.038  0.00  0.00    +0.000 OA
ATOM     10  N   UNL     1      48.959   3.158  17.590  0.00  0.00    +0.000 N 
ATOM     11  H   UNL     1      49.341   3.823  18.252  0.00  0.00    +0.000 HD
BRANCH   8  18
ATOM     12  C   UNL     1      52.014   4.757  17.818  0.00  0.00    +0.000 A 
ATOM     13  N   UNL     1      53.095   5.468  18.201  0.00  0.00    +0.000 NA
ATOM     14  C   UNL     1      54.212   4.785  18.509  0.00  0.00    +0.000 A 
ATOM     15  N   UNL     1      54.399   3.456  18.491  0.00  0.00    +0.000 NA
ATOM     16  C   UNL     1      53.292   2.798  18.103  0.00  0.00    +0.000 A 
ATOM     17  C   UNL     1      52.070   3.361  17.757  0.00  0.00    +0.000 A 
ATOM     18  C   UNL     1      51.189   2.284  17.397  0.00  0.00    +0.000 A 
ATOM     19  C   UNL     1      51.932   1.117  17.531  0.00  0.00    +0.000 A 
ATOM     20  N   UNL     1      53.181   1.439  17.982  0.00  0.00    +0.000 N 
ATOM     21  C   UNL     1      54.236   0.501  18.293  0.00  0.00    +0.000 C 
BRANCH  12  23
ATOM     22  C   UNL     1      50.485   6.387  18.501  0.00  0.00    +0.000 C 
ATOM     23  O   UNL     1      50.834   5.412  17.529  0.00  0.00    +0.000 OA
ENDBRANCH  12  23
ENDBRANCH   8  18
ENDBRANCH   7  10
ENDBRANCH   1   7
BRANCH   4  24
ATOM     24  C   UNL     1      47.324   6.463  12.230  0.00  0.00    +0.000 C 
BRANCH  24  25
ATOM     25  C   UNL     1      45.928   6.886  11.753  0.00  0.00    +0.000 C 
BRANCH  25  26
ATOM     26  N   UNL     1      45.774   6.670  10.321  0.00  0.00    +0.000 N 
ATOM     27  C   UNL     1      45.379   5.383   9.980  0.00  0.00    +0.000 A 
ATOM     28  N   UNL     1      44.621   4.667  10.813  0.00  0.00    +0.000 NA
ATOM     29  C   UNL     1      44.269   3.439  10.405  0.00  0.00    +0.000 A 
ATOM     30 CL   UNL     1      43.302   2.574  11.528  0.00  0.00    +0.000 Cl
ATOM     31  C   UNL     1      44.631   2.877   9.218  0.00  0.00    +0.000 A 
ATOM     32  C   UNL     1      45.414   3.696   8.456  0.00  0.00    +0.000 A 
ATOM     33 CL   UNL     1      45.988   3.171   6.927  0.00  0.00    +0.000 Cl
ATOM     34  N   UNL     1      45.808   4.932   8.802  0.00  0.00    +0.000 NA
ATOM     35  H   UNL     1      46.579   6.896   9.746  0.00  0.00    +0.000 HD
ENDBRANCH  25  26
ENDBRANCH  24  25
ENDBRANCH   4  24
TORSDOF 7
ENDMDL
MODEL 2
REMARK VINA RESULT:    -7.503      4.257     10.294
REMARK INTER + INTRA:         -11.877
REMARK INTER:                 -11.012
REMARK INTRA:                  -0.865
REMARK UNBOUND:                -1.303
REMARK  Name = 
REMARK  9 active torsions:
REMARK  status: ('A' for Active; 'I' for Inactive)
REMARK    1  A    between atoms: C_1  and  O_2
REMARK    2  A    between atoms: O_2  and  C_3
REMARK    3  A    between atoms: C_9  and  C_10
REMARK    4  A    between atoms: N_12  and  C_13
REMARK    5  A    between atoms: C_13  and  C_14
REMARK    6  A    between atoms: C_17  and  C_18
REMARK    7  A    between atoms: C_18  and  C_19
REMARK    8  A    between atoms: C_19  and  N_20
REMARK    9  A    between atoms: N_32  and  C_33
REMARK                            x       y       z     vdW  Elec       q    Type
REMARK                         _______ _______ _______ _____ _____    ______ ____
ROOT
ATOM      1  C   UNL     1      48.840   3.323  17.212  0.00  0.00    +0.000 A 
ATOM      2  C   UNL     1      49.613   4.385  17.691  0.00  0.00    +0.000 A 
ATOM      3  C   UNL     1      50.979   4.222  17.941  0.00  0.00    +0.000 A 
ATOM      4  C   UNL     1      51.612   2.992  17.714  0.00  0.00    +0.000 A 
ATOM      5  C   UNL     1      50.838   1.938  17.199  0.00  0.00    +0.000 A 
ATOM      6  C   UNL     1      49.471   2.102  16.947  0.00  0.00    +0.000 A 
ENDROOT
BRANCH   1   7
ATOM      7  C   UNL     1      47.362   3.503  16.983  0.00  0.00    +0.000 C 
BRANCH   7  10
ATOM      8  C   UNL     1      47.048   4.286  14.684  0.00  0.00    +0.000 C 
ATOM      9  O   UNL     1      47.334   3.185  14.219  0.00  0.00    +0.000 OA
ATOM     10  N   UNL     1      47.093   4.548  16.030  0.00  0.00    +0.000 N 
ATOM     11  H   UNL     1      46.751   5.435  16.378  0.00  0.00    +0.000 HD
BRANCH   8  18
ATOM     12  C   UNL     1      44.400   4.868  12.587  0.00  0.00    +0.000 A 
ATOM     13  N   UNL     1      43.524   5.381  11.699  0.00  0.00    +0.000 NA
ATOM     14  C   UNL     1      43.788   6.601  11.198  0.00  0.00    +0.000 A 
ATOM     15  N   UNL     1      44.832   7.399  11.474  0.00  0.00    +0.000 NA
ATOM     16  C   UNL     1      45.671   6.840  12.363  0.00  0.00    +0.000 A 
ATOM     17  C   UNL     1      45.533   5.596  12.967  0.00  0.00    +0.000 A 
ATOM     18  C   UNL     1      46.668   5.410  13.827  0.00  0.00    +0.000 A 
ATOM     19  C   UNL     1      47.449   6.551  13.689  0.00  0.00    +0.000 A 
ATOM     20  N   UNL     1      46.825   7.411  12.829  0.00  0.00    +0.000 N 
ATOM     21  C   UNL     1      47.292   8.727  12.462  0.00  0.00    +0.000 C 
BRANCH  12  23
ATOM     22  C   UNL     1      43.511   2.730  12.272  0.00  0.00    +0.000 C 
ATOM     23  O   UNL     1      44.150   3.637  13.158  0.00  0.00    +0.000 OA
ENDBRANCH  12  23
ENDBRANCH   8  18
ENDBRANCH   7  10
ENDBRANCH   1   7
BRANCH   4  24
ATOM     24  C   UNL     1      53.078   2.740  18.009  0.00  0.00    +0.000 C 
BRANCH  24  25
ATOM     25  C   UNL     1      53.618   1.364  17.599  0.00  0.00    +0.000 C 
BRANCH  25  26
ATOM     26  N   UNL     1      53.839   0.518  18.764  0.00  0.00    +0.000 N 
ATOM     27  C   UNL     1      54.108  -0.810  18.460  0.00  0.00    +0.000 A 
ATOM     28  N   UNL     1      54.725  -1.130  17.320  0.00  0.00    +0.000 NA
ATOM     29  C   UNL     1      54.962  -2.431  17.105  0.00  0.00    +0.000 A 
ATOM     30 CL   UNL     1      55.750  -2.769  15.619  0.00  0.00    +0.000 Cl
ATOM     31  C   UNL     1      54.617  -3.438  17.955  0.00  0.00    +0.000 A 
ATOM     32  C   UNL     1      53.982  -2.994  19.079  0.00  0.00    +0.000 A 
ATOM     33 CL   UNL     1      53.453  -4.106  20.275  0.00  0.00    +0.000 Cl
ATOM     34  N   UNL     1      53.708  -1.709  19.358  0.00  0.00    +0.000 NA
ATOM     35  H   UNL     1      53.104   0.519  19.463  0.00  0.00    +0.000 HD
ENDBRANCH  25  26
ENDBRANCH  24  25
ENDBRANCH   4  24
TORSDOF 7
ENDMDL
MODEL 3
REMARK VINA RESULT:    -6.981      1.503      2.939
REMARK INTER + INTRA:         -11.142
REMARK INTER:                 -10.093
REMARK INTRA:                  -1.049
REMARK UNBOUND:                -1.303
REMARK  Name = 
REMARK  9 active torsions:
REMARK  status: ('A' for Active; 'I' for Inactive)
REMARK    1  A    between atoms: C_1  and  O_2
REMARK    2  A    between atoms: O_2  and  C_3
REMARK    3  A    between atoms: C_9  and  C_10
REMARK    4  A    between atoms: N_12  and  C_13
REMARK    5  A    between atoms: C_13  and  C_14
REMARK    6  A    between atoms: C_17  and  C_18
REMARK    7  A    between atoms: C_18  and  C_19
REMARK    8  A    between atoms: C_19  and  N_20
REMARK    9  A    between atoms: N_32  and  C_33
REMARK                            x       y       z     vdW  Elec       q    Type
REMARK                         _______ _______ _______ _____ _____    ______ ____
ROOT
ATOM      1  C   UNL     1      48.838   7.899  15.913  0.00  0.00    +0.000 A 
ATOM      2  C   UNL     1      48.377   9.052  15.269  0.00  0.00    +0.000 A 
ATOM      3  C   UNL     1      47.847   8.987  13.976  0.00  0.00    +0.000 A 
ATOM      4  C   UNL     1      47.758   7.766  13.293  0.00  0.00    +0.000 A 
ATOM      5  C   UNL     1      48.190   6.606  13.960  0.00  0.00    +0.000 A 
ATOM      6  C   UNL     1      48.718   6.670  15.254  0.00  0.00    +0.000 A 
ENDROOT
BRANCH   1   7
ATOM      7  C   UNL     1      49.441   7.991  17.290  0.00  0.00    +0.000 C 
BRANCH   7  10
ATOM      8  C   UNL     1      50.166   6.031  18.568  0.00  0.00    +0.000 C 
ATOM      9  O   UNL     1      49.255   6.165  19.382  0.00  0.00    +0.000 OA
ATOM     10  N   UNL     1      50.368   6.918  17.541  0.00  0.00    +0.000 N 
ATOM     11  H   UNL     1      51.065   6.715  16.835  0.00  0.00    +0.000 HD
BRANCH   8  18
ATOM     12  C   UNL     1      50.289   2.891  17.201  0.00  0.00    +0.000 A 
ATOM     13  N   UNL     1      50.617   1.631  16.847  0.00  0.00    +0.000 NA
ATOM     14  C   UNL     1      51.756   1.120  17.348  0.00  0.00    +0.000 A 
ATOM     15  N   UNL     1      52.636   1.713  18.170  0.00  0.00    +0.000 NA
ATOM     16  C   UNL     1      52.261   2.965  18.489  0.00  0.00    +0.000 A 
ATOM     17  C   UNL     1      51.121   3.627  18.053  0.00  0.00    +0.000 A 
ATOM     18  C   UNL     1      51.124   4.930  18.658  0.00  0.00    +0.000 A 
ATOM     19  C   UNL     1      52.267   4.985  19.447  0.00  0.00    +0.000 A 
ATOM     20  N   UNL     1      52.953   3.811  19.314  0.00  0.00    +0.000 N 
ATOM     21  C   UNL     1      54.218   3.495  19.936  0.00  0.00    +0.000 C 
BRANCH  12  23
ATOM     22  C   UNL     1      47.975   3.144  17.408  0.00  0.00    +0.000 C 
ATOM     23  O   UNL     1      49.151   3.471  16.682  0.00  0.00    +0.000 OA
ENDBRANCH  12  23
ENDBRANCH   8  18
ENDBRANCH   7  10
ENDBRANCH   1   7
BRANCH   4  24
ATOM     24  C   UNL     1      47.236   7.638  11.875  0.00  0.00    +0.000 C 
BRANCH  24  25
ATOM     25  C   UNL     1      46.040   6.697  11.684  0.00  0.00    +0.000 C 
BRANCH  25  26
ATOM     26  N   UNL     1      45.763   6.480  10.270  0.00  0.00    +0.000 N 
ATOM     27  C   UNL     1      45.329   5.197   9.965  0.00  0.00    +0.000 A 
ATOM     28  N   UNL     1      44.638   4.489  10.860  0.00  0.00    +0.000 NA
ATOM     29  C   UNL     1      44.241   3.264  10.487  0.00  0.00    +0.000 A 
ATOM     30 CL   UNL     1      43.365   2.408  11.688  0.00  0.00    +0.000 Cl
ATOM     31  C   UNL     1      44.496   2.697   9.274  0.00  0.00    +0.000 A 
ATOM     32  C   UNL     1      45.220   3.508   8.447  0.00  0.00    +0.000 A 
ATOM     33 CL   UNL     1      45.658   2.976   6.875  0.00  0.00    +0.000 Cl
ATOM     34  N   UNL     1      45.653   4.741   8.756  0.00  0.00    +0.000 NA
ATOM     35  H   UNL     1      46.518   6.698   9.628  0.00  0.00    +0.000 HD
ENDBRANCH  25  26
ENDBRANCH  24  25
ENDBRANCH   4  24
TORSDOF 7
ENDMDL
MODEL 4
REMARK VINA RESULT:    -6.972      3.739      9.287
REMARK INTER + INTRA:         -11.128
REMARK INTER:                  -9.803
REMARK INTRA:                  -1.325
REMARK UNBOUND:                -1.303
REMARK  Name = 
REMARK  9 active torsions:
REMARK  status: ('A' for Active; 'I' for Inactive)
REMARK    1  A    between atoms: C_1  and  O_2
REMARK    2  A    between atoms: O_2  and  C_3
REMARK    3  A    between atoms: C_9  and  C_10
REMARK    4  A    between atoms: N_12  and  C_13
REMARK    5  A    between atoms: C_13  and  C_14
REMARK    6  A    between atoms: C_17  and  C_18
REMARK    7  A    between atoms: C_18  and  C_19
REMARK    8  A    between atoms: C_19  and  N_20
REMARK    9  A    between atoms: N_32  and  C_33
REMARK                            x       y       z     vdW  Elec       q    Type
REMARK                         _______ _______ _______ _____ _____    ______ ____
ROOT
ATOM      1  C   UNL     1      48.711   3.259  17.129  0.00  0.00    +0.000 A 
ATOM      2  C   UNL     1      49.449   4.248  17.786  0.00  0.00    +0.000 A 
ATOM      3  C   UNL     1      50.802   4.054  18.085  0.00  0.00    +0.000 A 
ATOM      4  C   UNL     1      51.456   2.867  17.728  0.00  0.00    +0.000 A 
ATOM      5  C   UNL     1      50.719   1.892  17.036  0.00  0.00    +0.000 A 
ATOM      6  C   UNL     1      49.366   2.086  16.735  0.00  0.00    +0.000 A 
ENDROOT
BRANCH   1   7
ATOM      7  C   UNL     1      47.246   3.467  16.849  0.00  0.00    +0.000 C 
BRANCH   7  10
ATOM      8  C   UNL     1      46.988   4.268  14.548  0.00  0.00    +0.000 C 
ATOM      9  O   UNL     1      47.235   3.157  14.083  0.00  0.00    +0.000 OA
ATOM     10  N   UNL     1      47.029   4.524  15.896  0.00  0.00    +0.000 N 
ATOM     11  H   UNL     1      46.719   5.424  16.243  0.00  0.00    +0.000 HD
BRANCH   8  18
ATOM     12  C   UNL     1      44.226   5.130  12.711  0.00  0.00    +0.000 A 
ATOM     13  N   UNL     1      43.332   5.728  11.898  0.00  0.00    +0.000 NA
ATOM     14  C   UNL     1      43.692   6.890  11.324  0.00  0.00    +0.000 A 
ATOM     15  N   UNL     1      44.850   7.554  11.460  0.00  0.00    +0.000 NA
ATOM     16  C   UNL     1      45.703   6.915  12.280  0.00  0.00    +0.000 A 
ATOM     17  C   UNL     1      45.475   5.716  12.944  0.00  0.00    +0.000 A 
ATOM     18  C   UNL     1      46.663   5.408  13.691  0.00  0.00    +0.000 A 
ATOM     19  C   UNL     1      47.561   6.435  13.429  0.00  0.00    +0.000 A 
ATOM     20  N   UNL     1      46.962   7.345  12.604  0.00  0.00    +0.000 N 
ATOM     21  C   UNL     1      47.549   8.580  12.139  0.00  0.00    +0.000 C 
BRANCH  12  23
ATOM     22  C   UNL     1      43.713   2.863  12.464  0.00  0.00    +0.000 C 
ATOM     23  O   UNL     1      43.887   3.956  13.353  0.00  0.00    +0.000 OA
ENDBRANCH  12  23
ENDBRANCH   8  18
ENDBRANCH   7  10
ENDBRANCH   1   7
BRANCH   4  24
ATOM     24  C   UNL     1      52.907   2.580  18.064  0.00  0.00    +0.000 C 
BRANCH  24  25
ATOM     25  C   UNL     1      53.705   3.753  18.648  0.00  0.00    +0.000 C 
BRANCH  25  26
ATOM     26  N   UNL     1      54.580   4.345  17.645  0.00  0.00    +0.000 N 
ATOM     27  C   UNL     1      54.129   5.557  17.141  0.00  0.00    +0.000 A 
ATOM     28  N   UNL     1      53.397   6.374  17.902  0.00  0.00    +0.000 NA
ATOM     29  C   UNL     1      53.012   7.533  17.349  0.00  0.00    +0.000 A 
ATOM     30 CL   UNL     1      52.070   8.528  18.381  0.00  0.00    +0.000 Cl
ATOM     31  C   UNL     1      53.307   7.927  16.079  0.00  0.00    +0.000 A 
ATOM     32  C   UNL     1      54.048   7.008  15.393  0.00  0.00    +0.000 A 
ATOM     33 CL   UNL     1      54.516   7.308  13.769  0.00  0.00    +0.000 Cl
ATOM     34  N   UNL     1      54.464   5.828  15.881  0.00  0.00    +0.000 NA
ATOM     35  H   UNL     1      54.807   3.758  16.848  0.00  0.00    +0.000 HD
ENDBRANCH  25  26
ENDBRANCH  24  25
ENDBRANCH   4  24
TORSDOF 7
ENDMDL
MODEL 5
REMARK VINA RESULT:    -6.779      3.465      9.191
REMARK INTER + INTRA:         -10.857
REMARK INTER:                  -9.632
REMARK INTRA:                  -1.225
REMARK UNBOUND:                -1.303
REMARK  Name = 
REMARK  9 active torsions:
REMARK  status: ('A' for Active; 'I' for Inactive)
REMARK    1  A    between atoms: C_1  and  O_2
REMARK    2  A    between atoms: O_2  and  C_3
REMARK    3  A    between atoms: C_9  and  C_10
REMARK    4  A    between atoms: N_12  and  C_13
REMARK    5  A    between atoms: C_13  and  C_14
REMARK    6  A    between atoms: C_17  and  C_18
REMARK    7  A    between atoms: C_18  and  C_19
REMARK    8  A    between atoms: C_19  and  N_20
REMARK    9  A    between atoms: N_32  and  C_33
REMARK                            x       y       z     vdW  Elec       q    Type
REMARK                         _______ _______ _______ _____ _____    ______ ____
ROOT
ATOM      1  C   UNL     1      48.749   8.045  13.233  0.00  0.00    +0.000 A 
ATOM      2  C   UNL     1      49.978   7.486  13.595  0.00  0.00    +0.000 A 
ATOM      3  C   UNL     1      50.371   7.427  14.936  0.00  0.00    +0.000 A 
ATOM      4  C   UNL     1      49.542   7.920  15.953  0.00  0.00    +0.000 A 
ATOM      5  C   UNL     1      48.293   8.449  15.586  0.00  0.00    +0.000 A 
ATOM      6  C   UNL     1      47.899   8.506  14.245  0.00  0.00    +0.000 A 
ENDROOT
BRANCH   1   7
ATOM      7  C   UNL     1      48.356   8.137  11.782  0.00  0.00    +0.000 C 
BRANCH   7  10
ATOM      8  C   UNL     1      46.258   6.969  11.296  0.00  0.00    +0.000 C 
ATOM      9  O   UNL     1      45.584   7.911  11.705  0.00  0.00    +0.000 OA
ATOM     10  N   UNL     1      47.629   6.971  11.350  0.00  0.00    +0.000 N 
ATOM     11  H   UNL     1      48.147   6.221  10.909  0.00  0.00    +0.000 HD
BRANCH   8  18
ATOM     12  C   UNL     1      44.545   4.351  12.694  0.00  0.00    +0.000 A 
ATOM     13  N   UNL     1      43.871   3.207  12.929  0.00  0.00    +0.000 NA
ATOM     14  C   UNL     1      43.596   2.418  11.875  0.00  0.00    +0.000 A 
ATOM     15  N   UNL     1      43.906   2.626  10.585  0.00  0.00    +0.000 NA
ATOM     16  C   UNL     1      44.575   3.779  10.408  0.00  0.00    +0.000 A 
ATOM     17  C   UNL     1      44.928   4.693  11.392  0.00  0.00    +0.000 A 
ATOM     18  C   UNL     1      45.642   5.761  10.748  0.00  0.00    +0.000 A 
ATOM     19  C   UNL     1      45.697   5.429   9.399  0.00  0.00    +0.000 A 
ATOM     20  N   UNL     1      45.029   4.253   9.207  0.00  0.00    +0.000 N 
ATOM     21  C   UNL     1      44.820   3.598   7.936  0.00  0.00    +0.000 C 
BRANCH  12  23
ATOM     22  C   UNL     1      46.129   5.065  14.256  0.00  0.00    +0.000 C 
ATOM     23  O   UNL     1      44.815   5.211  13.739  0.00  0.00    +0.000 OA
ENDBRANCH  12  23
ENDBRANCH   8  18
ENDBRANCH   7  10
ENDBRANCH   1   7
BRANCH   4  24
ATOM     24  C   UNL     1      49.932   7.926  17.419  0.00  0.00    +0.000 C 
BRANCH  24  25
ATOM     25  C   UNL     1      49.974   6.555  18.106  0.00  0.00    +0.000 C 
BRANCH  25  26
ATOM     26  N   UNL     1      51.222   5.860  17.817  0.00  0.00    +0.000 N 
ATOM     27  C   UNL     1      51.079   4.493  17.622  0.00  0.00    +0.000 A 
ATOM     28  N   UNL     1      49.948   3.999  17.114  0.00  0.00    +0.000 NA
ATOM     29  C   UNL     1      49.892   2.670  16.941  0.00  0.00    +0.000 A 
ATOM     30 CL   UNL     1      48.408   2.105  16.292  0.00  0.00    +0.000 Cl
ATOM     31  C   UNL     1      50.895   1.801  17.248  0.00  0.00    +0.000 A 
ATOM     32  C   UNL     1      51.995   2.417  17.771  0.00  0.00    +0.000 A 
ATOM     33 CL   UNL     1      53.367   1.497  18.236  0.00  0.00    +0.000 Cl
ATOM     34  N   UNL     1      52.118   3.739  17.976  0.00  0.00    +0.000 NA
ATOM     35  H   UNL     1      51.970   5.987  18.491  0.00  0.00    +0.000 HD
ENDBRANCH  25  26
ENDBRANCH  24  25
ENDBRANCH   4  24
TORSDOF 7
ENDMDL
MODEL 6
REMARK VINA RESULT:    -6.734      5.750      8.148
REMARK INTER + INTRA:         -10.792
REMARK INTER:                  -9.620
REMARK INTRA:                  -1.172
REMARK UNBOUND:                -1.303
REMARK  Name = 
REMARK  9 active torsions:
REMARK  status: ('A' for Active; 'I' for Inactive)
REMARK    1  A    between atoms: C_1  and  O_2
REMARK    2  A    between atoms: O_2  and  C_3
REMARK    3  A    between atoms: C_9  and  C_10
REMARK    4  A    between atoms: N_12  and  C_13
REMARK    5  A    between atoms: C_13  and  C_14
REMARK    6  A    between atoms: C_17  and  C_18
REMARK    7  A    between atoms: C_18  and  C_19
REMARK    8  A    between atoms: C_19  and  N_20
REMARK    9  A    between atoms: N_32  and  C_33
REMARK                            x       y       z     vdW  Elec       q    Type
REMARK                         _______ _______ _______ _____ _____    ______ ____
ROOT
ATOM      1  C   UNL     1      49.990   8.335  12.008  0.00  0.00    +0.000 A 
ATOM      2  C   UNL     1      49.224   9.478  11.754  0.00  0.00    +0.000 A 
ATOM      3  C   UNL     1      47.840   9.473  11.955  0.00  0.00    +0.000 A 
ATOM      4  C   UNL     1      47.183   8.326  12.421  0.00  0.00    +0.000 A 
ATOM      5  C   UNL     1      47.962   7.192  12.708  0.00  0.00    +0.000 A 
ATOM      6  C   UNL     1      49.347   7.197  12.509  0.00  0.00    +0.000 A 
ENDROOT
BRANCH   1   7
ATOM      7  C   UNL     1      51.474   8.344  11.751  0.00  0.00    +0.000 C 
BRANCH   7  10
ATOM      8  C   UNL     1      52.751   8.721   9.695  0.00  0.00    +0.000 C 
ATOM      9  O   UNL     1      53.328   9.693  10.175  0.00  0.00    +0.000 OA
ATOM     10  N   UNL     1      51.781   8.033  10.379  0.00  0.00    +0.000 N 
ATOM     11  H   UNL     1      51.405   7.178   9.987  0.00  0.00    +0.000 HD
BRANCH   8  18
ATOM     12  C   UNL     1      53.656   5.679   8.402  0.00  0.00    +0.000 A 
ATOM     13  N   UNL     1      54.023   4.654   7.606  0.00  0.00    +0.000 NA
ATOM     14  C   UNL     1      54.149   4.902   6.290  0.00  0.00    +0.000 A 
ATOM     15  N   UNL     1      53.948   6.062   5.645  0.00  0.00    +0.000 NA
ATOM     16  C   UNL     1      53.584   7.047   6.484  0.00  0.00    +0.000 A 
ATOM     17  C   UNL     1      53.411   6.945   7.859  0.00  0.00    +0.000 A 
ATOM     18  C   UNL     1      53.037   8.245   8.341  0.00  0.00    +0.000 A 
ATOM     19  C   UNL     1      53.015   9.078   7.228  0.00  0.00    +0.000 A 
ATOM     20  N   UNL     1      53.318   8.339   6.119  0.00  0.00    +0.000 N 
ATOM     21  C   UNL     1      53.352   8.829   4.761  0.00  0.00    +0.000 C 
BRANCH  12  23
ATOM     22  C   UNL     1      54.672   5.602  10.505  0.00  0.00    +0.000 C 
ATOM     23  O   UNL     1      53.476   5.463   9.753  0.00  0.00    +0.000 OA
ENDBRANCH  12  23
ENDBRANCH   8  18
ENDBRANCH   7  10
ENDBRANCH   1   7
BRANCH   4  24
ATOM     24  C   UNL     1      45.681   8.245  12.614  0.00  0.00    +0.000 C 
BRANCH  24  25
ATOM     25  C   UNL     1      45.027   6.911  12.229  0.00  0.00    +0.000 C 
BRANCH  25  26
ATOM     26  N   UNL     1      44.988   6.744  10.783  0.00  0.00    +0.000 N 
ATOM     27  C   UNL     1      44.850   5.427  10.366  0.00  0.00    +0.000 A 
ATOM     28  N   UNL     1      44.193   4.545  11.123  0.00  0.00    +0.000 NA
ATOM     29  C   UNL     1      44.089   3.297  10.646  0.00  0.00    +0.000 A 
ATOM     30 CL   UNL     1      43.239   2.217  11.672  0.00  0.00    +0.000 Cl
ATOM     31  C   UNL     1      44.607   2.869   9.460  0.00  0.00    +0.000 A 
ATOM     32  C   UNL     1      45.267   3.852   8.780  0.00  0.00    +0.000 A 
ATOM     33 CL   UNL     1      46.003   3.516   7.266  0.00  0.00    +0.000 Cl
ATOM     34  N   UNL     1      45.413   5.120   9.199  0.00  0.00    +0.000 NA
ATOM     35  H   UNL     1      45.767   7.138  10.266  0.00  0.00    +0.000 HD
ENDBRANCH  25  26
ENDBRANCH  24  25
ENDBRANCH   4  24
TORSDOF 7
ENDMDL
MODEL 7
REMARK VINA RESULT:    -6.476      5.920      8.120
REMARK INTER + INTRA:         -10.429
REMARK INTER:                  -9.308
REMARK INTRA:                  -1.121
REMARK UNBOUND:                -1.303
REMARK  Name = 
REMARK  9 active torsions:
REMARK  status: ('A' for Active; 'I' for Inactive)
REMARK    1  A    between atoms: C_1  and  O_2
REMARK    2  A    between atoms: O_2  and  C_3
REMARK    3  A    between atoms: C_9  and  C_10
REMARK    4  A    between atoms: N_12  and  C_13
REMARK    5  A    between atoms: C_13  and  C_14
REMARK    6  A    between atoms: C_17  and  C_18
REMARK    7  A    between atoms: C_18  and  C_19
REMARK    8  A    between atoms: C_19  and  N_20
REMARK    9  A    between atoms: N_32  and  C_33
REMARK                            x       y       z     vdW  Elec       q    Type
REMARK                         _______ _______ _______ _____ _____    ______ ____
ROOT
ATOM      1  C   UNL     1      50.258   8.598  11.843  0.00  0.00    +0.000 A 
ATOM      2  C   UNL     1      49.448   9.738  11.823  0.00  0.00    +0.000 A 
ATOM      3  C   UNL     1      48.064   9.638  12.001  0.00  0.00    +0.000 A 
ATOM      4  C   UNL     1      47.453   8.394  12.212  0.00  0.00    +0.000 A 
ATOM      5  C   UNL     1      48.276   7.257  12.268  0.00  0.00    +0.000 A 
ATOM      6  C   UNL     1      49.660   7.357  12.091  0.00  0.00    +0.000 A 
ENDROOT
BRANCH   1   7
ATOM      7  C   UNL     1      51.741   8.718  11.611  0.00  0.00    +0.000 C 
BRANCH   7  10
ATOM      8  C   UNL     1      53.209   7.394  10.165  0.00  0.00    +0.000 C 
ATOM      9  O   UNL     1      53.965   7.128  11.096  0.00  0.00    +0.000 OA
ATOM     10  N   UNL     1      52.122   8.218  10.316  0.00  0.00    +0.000 N 
ATOM     11  H   UNL     1      51.469   8.329   9.550  0.00  0.00    +0.000 HD
BRANCH   8  18
ATOM     12  C   UNL     1      53.541   8.873   7.091  0.00  0.00    +0.000 A 
ATOM     13  N   UNL     1      53.691   9.137   5.777  0.00  0.00    +0.000 NA
ATOM     14  C   UNL     1      53.857   8.091   4.947  0.00  0.00    +0.000 A 
ATOM     15  N   UNL     1      53.900   6.787   5.260  0.00  0.00    +0.000 NA
ATOM     16  C   UNL     1      53.747   6.582   6.580  0.00  0.00    +0.000 A 
ATOM     17  C   UNL     1      53.569   7.553   7.556  0.00  0.00    +0.000 A 
ATOM     18  C   UNL     1      53.434   6.875   8.816  0.00  0.00    +0.000 A 
ATOM     19  C   UNL     1      53.524   5.517   8.534  0.00  0.00    +0.000 A 
ATOM     20  N   UNL     1      53.739   5.358   7.194  0.00  0.00    +0.000 N 
ATOM     21  C   UNL     1      53.936   4.099   6.513  0.00  0.00    +0.000 C 
BRANCH  12  23
ATOM     22  C   UNL     1      54.651  10.422   8.443  0.00  0.00    +0.000 C 
ATOM     23  O   UNL     1      53.407   9.915   7.985  0.00  0.00    +0.000 OA
ENDBRANCH  12  23
ENDBRANCH   8  18
ENDBRANCH   7  10
ENDBRANCH   1   7
BRANCH   4  24
ATOM     24  C   UNL     1      45.955   8.216  12.367  0.00  0.00    +0.000 C 
BRANCH  24  25
ATOM     25  C   UNL     1      45.411   6.815  12.059  0.00  0.00    +0.000 C 
BRANCH  25  26
ATOM     26  N   UNL     1      45.256   6.615  10.624  0.00  0.00    +0.000 N 
ATOM     27  C   UNL     1      45.035   5.295  10.255  0.00  0.00    +0.000 A 
ATOM     28  N   UNL     1      44.402   4.460  11.081  0.00  0.00    +0.000 NA
ATOM     29  C   UNL     1      44.213   3.206  10.647  0.00  0.00    +0.000 A 
ATOM     30 CL   UNL     1      43.400   2.187  11.762  0.00  0.00    +0.000 Cl
ATOM     31  C   UNL     1      44.622   2.729   9.438  0.00  0.00    +0.000 A 
ATOM     32  C   UNL     1      45.268   3.667   8.685  0.00  0.00    +0.000 A 
ATOM     33 CL   UNL     1      45.875   3.265   7.130  0.00  0.00    +0.000 Cl
ATOM     34  N   UNL     1      45.496   4.937   9.057  0.00  0.00    +0.000 NA
ATOM     35  H   UNL     1      46.009   6.964  10.040  0.00  0.00    +0.000 HD
ENDBRANCH  25  26
ENDBRANCH  24  25
ENDBRANCH   4  24
TORSDOF 7
ENDMDL
MODEL 8
REMARK VINA RESULT:    -6.381      2.735      4.708
REMARK INTER + INTRA:         -10.295
REMARK INTER:                  -9.044
REMARK INTRA:                  -1.251
REMARK UNBOUND:                -1.303
REMARK  Name = 
REMARK  9 active torsions:
REMARK  status: ('A' for Active; 'I' for Inactive)
REMARK    1  A    between atoms: C_1  and  O_2
REMARK    2  A    between atoms: O_2  and  C_3
REMARK    3  A    between atoms: C_9  and  C_10
REMARK    4  A    between atoms: N_12  and  C_13
REMARK    5  A    between atoms: C_13  and  C_14
REMARK    6  A    between atoms: C_17  and  C_18
REMARK    7  A    between atoms: C_18  and  C_19
REMARK    8  A    between atoms: C_19  and  N_20
REMARK    9  A    between atoms: N_32  and  C_33
REMARK                            x       y       z     vdW  Elec       q    Type
REMARK                         _______ _______ _______ _____ _____    ______ ____
ROOT
ATOM      1  C   UNL     1      49.187   8.384  13.378  0.00  0.00    +0.000 A 
ATOM      2  C   UNL     1      48.646   7.603  12.352  0.00  0.00    +0.000 A 
ATOM      3  C   UNL     1      47.412   7.927  11.780  0.00  0.00    +0.000 A 
ATOM      4  C   UNL     1      46.687   9.046  12.212  0.00  0.00    +0.000 A 
ATOM      5  C   UNL     1      47.253   9.848  13.218  0.00  0.00    +0.000 A 
ATOM      6  C   UNL     1      48.488   9.525  13.790  0.00  0.00    +0.000 A 
ENDROOT
BRANCH   1   7
ATOM      7  C   UNL     1      50.499   8.001  14.011  0.00  0.00    +0.000 C 
BRANCH   7  10
ATOM      8  C   UNL     1      50.043   7.419  16.346  0.00  0.00    +0.000 C 
ATOM      9  O   UNL     1      50.030   8.600  16.687  0.00  0.00    +0.000 OA
ATOM     10  N   UNL     1      50.323   7.031  15.060  0.00  0.00    +0.000 N 
ATOM     11  H   UNL     1      50.222   6.058  14.799  0.00  0.00    +0.000 HD
BRANCH   8  18
ATOM     12  C   UNL     1      48.061   4.625  16.275  0.00  0.00    +0.000 A 
ATOM     13  N   UNL     1      47.395   3.486  16.560  0.00  0.00    +0.000 NA
ATOM     14  C   UNL     1      47.608   2.925  17.764  0.00  0.00    +0.000 A 
ATOM     15  N   UNL     1      48.419   3.355  18.743  0.00  0.00    +0.000 NA
ATOM     16  C   UNL     1      49.057   4.490  18.407  0.00  0.00    +0.000 A 
ATOM     17  C   UNL     1      48.943   5.182  17.208  0.00  0.00    +0.000 A 
ATOM     18  C   UNL     1      49.790   6.338  17.299  0.00  0.00    +0.000 A 
ATOM     19  C   UNL     1      50.368   6.295  18.562  0.00  0.00    +0.000 A 
ATOM     20  N   UNL     1      49.940   5.167  19.204  0.00  0.00    +0.000 N 
ATOM     21  C   UNL     1      50.352   4.735  20.520  0.00  0.00    +0.000 C 
BRANCH  12  23
ATOM     22  C   UNL     1      46.810   4.689  14.303  0.00  0.00    +0.000 C 
ATOM     23  O   UNL     1      47.904   5.215  15.038  0.00  0.00    +0.000 OA
ENDBRANCH  12  23
ENDBRANCH   8  18
ENDBRANCH   7  10
ENDBRANCH   1   7
BRANCH   4  24
ATOM     24  C   UNL     1      45.325   9.422  11.663  0.00  0.00    +0.000 C 
BRANCH  24  25
ATOM     25  C   UNL     1      44.457   8.258  11.167  0.00  0.00    +0.000 C 
BRANCH  25  26
ATOM     26  N   UNL     1      44.506   7.135  12.093  0.00  0.00    +0.000 N 
ATOM     27  C   UNL     1      44.574   5.892  11.477  0.00  0.00    +0.000 A 
ATOM     28  N   UNL     1      45.170   5.759  10.290  0.00  0.00    +0.000 NA
ATOM     29  C   UNL     1      45.209   4.526   9.767  0.00  0.00    +0.000 A 
ATOM     30 CL   UNL     1      45.984   4.431   8.240  0.00  0.00    +0.000 Cl
ATOM     31  C   UNL     1      44.683   3.413  10.353  0.00  0.00    +0.000 A 
ATOM     32  C   UNL     1      44.089   3.672  11.554  0.00  0.00    +0.000 A 
ATOM     33 CL   UNL     1      43.354   2.406  12.450  0.00  0.00    +0.000 Cl
ATOM     34  N   UNL     1      44.009   4.881  12.135  0.00  0.00    +0.000 NA
ATOM     35  H   UNL     1      43.757   7.086  12.776  0.00  0.00    +0.000 HD
ENDBRANCH  25  26
ENDBRANCH  24  25
ENDBRANCH   4  24
TORSDOF 7
ENDMDL
MODEL 9
REMARK VINA RESULT:    -6.261      2.037      3.662
REMARK INTER + INTRA:         -10.127
REMARK INTER:                  -8.987
REMARK INTRA:                  -1.140
REMARK UNBOUND:                -1.303
REMARK  Name = 
REMARK  9 active torsions:
REMARK  status: ('A' for Active; 'I' for Inactive)
REMARK    1  A    between atoms: C_1  and  O_2
REMARK    2  A    between atoms: O_2  and  C_3
REMARK    3  A    between atoms: C_9  and  C_10
REMARK    4  A    between atoms: N_12  and  C_13
REMARK    5  A    between atoms: C_13  and  C_14
REMARK    6  A    between atoms: C_17  and  C_18
REMARK    7  A    between atoms: C_18  and  C_19
REMARK    8  A    between atoms: C_19  and  N_20
REMARK    9  A    between atoms: N_32  and  C_33
REMARK                            x       y       z     vdW  Elec       q    Type
REMARK                         _______ _______ _______ _____ _____    ______ ____
ROOT
ATOM      1  C   UNL     1      49.919   8.649  13.473  0.00  0.00    +0.000 A 
ATOM      2  C   UNL     1      48.855   8.938  14.333  0.00  0.00    +0.000 A 
ATOM      3  C   UNL     1      47.531   8.760  13.920  0.00  0.00    +0.000 A 
ATOM      4  C   UNL     1      47.234   8.282  12.637  0.00  0.00    +0.000 A 
ATOM      5  C   UNL     1      48.308   7.960  11.790  0.00  0.00    +0.000 A 
ATOM      6  C   UNL     1      49.633   8.136  12.203  0.00  0.00    +0.000 A 
ENDROOT
BRANCH   1   7
ATOM      7  C   UNL     1      51.339   8.882  13.919  0.00  0.00    +0.000 C 
BRANCH   7  10
ATOM      8  C   UNL     1      51.966   7.799  16.025  0.00  0.00    +0.000 C 
ATOM      9  O   UNL     1      51.728   8.815  16.673  0.00  0.00    +0.000 OA
ATOM     10  N   UNL     1      51.858   7.760  14.657  0.00  0.00    +0.000 N 
ATOM     11  H   UNL     1      51.965   6.877  14.173  0.00  0.00    +0.000 HD
BRANCH   8  18
ATOM     12  C   UNL     1      50.380   4.904  16.945  0.00  0.00    +0.000 A 
ATOM     13  N   UNL     1      50.058   3.686  17.428  0.00  0.00    +0.000 NA
ATOM     14  C   UNL     1      51.042   2.958  17.986  0.00  0.00    +0.000 A 
ATOM     15  N   UNL     1      52.336   3.288  18.126  0.00  0.00    +0.000 NA
ATOM     16  C   UNL     1      52.600   4.509  17.629  0.00  0.00    +0.000 A 
ATOM     17  C   UNL     1      51.696   5.373  17.025  0.00  0.00    +0.000 A 
ATOM     18  C   UNL     1      52.416   6.563  16.665  0.00  0.00    +0.000 A 
ATOM     19  C   UNL     1      53.726   6.363  17.086  0.00  0.00    +0.000 A 
ATOM     20  N   UNL     1      53.827   5.117  17.636  0.00  0.00    +0.000 N 
ATOM     21  C   UNL     1      55.036   4.514  18.148  0.00  0.00    +0.000 C 
BRANCH  12  23
ATOM     22  C   UNL     1      48.694   6.497  17.233  0.00  0.00    +0.000 C 
ATOM     23  O   UNL     1      49.412   5.671  16.329  0.00  0.00    +0.000 OA
ENDBRANCH  12  23
ENDBRANCH   8  18
ENDBRANCH   7  10
ENDBRANCH   1   7
BRANCH   4  24
ATOM     24  C   UNL     1      45.820   8.112  12.116  0.00  0.00    +0.000 C 
BRANCH  24  25
ATOM     25  C   UNL     1      45.391   6.673  11.798  0.00  0.00    +0.000 C 
BRANCH  25  26
ATOM     26  N   UNL     1      45.292   6.460  10.361  0.00  0.00    +0.000 N 
ATOM     27  C   UNL     1      45.063   5.139   9.996  0.00  0.00    +0.000 A 
ATOM     28  N   UNL     1      44.382   4.325  10.805  0.00  0.00    +0.000 NA
ATOM     29  C   UNL     1      44.190   3.069  10.377  0.00  0.00    +0.000 A 
ATOM     30 CL   UNL     1      43.314   2.077  11.468  0.00  0.00    +0.000 Cl
ATOM     31  C   UNL     1      44.640   2.572   9.191  0.00  0.00    +0.000 A 
ATOM     32  C   UNL     1      45.332   3.490   8.455  0.00  0.00    +0.000 A 
ATOM     33 CL   UNL     1      45.995   3.060   6.931  0.00  0.00    +0.000 Cl
ATOM     34  N   UNL     1      45.567   4.760   8.823  0.00  0.00    +0.000 NA
ATOM     35  H   UNL     1      46.074   6.789   9.805  0.00  0.00    +0.000 HD
ENDBRANCH  25  26
ENDBRANCH  24  25
ENDBRANCH   4  24
TORSDOF 7
ENDMDL
