MODEL 1
REMARK VINA RESULT:    -8.317      0.000      0.000
REMARK INTER + INTRA:         -13.545
REMARK INTER:                 -12.206
REMARK INTRA:                  -1.338
REMARK UNBOUND:                -1.338
REMARK  Name = 
REMARK  9 active torsions:
REMARK  status: ('A' for Active; 'I' for Inactive)
REMARK    1  A    between atoms: C_1  and  O_2
REMARK    2  A    between atoms: O_2  and  C_3
REMARK    3  A    between atoms: C_10  and  C_11
REMARK    4  A    between atoms: N_13  and  C_14
REMARK    5  A    between atoms: C_14  and  C_15
REMARK    6  A    between atoms: C_18  and  C_19
REMARK    7  A    between atoms: C_19  and  C_20
REMARK    8  A    between atoms: C_20  and  C_21
REMARK    9  A    between atoms: C_21  and  C_22
REMARK                            x       y       z     vdW  Elec       q    Type
REMARK                         _______ _______ _______ _____ _____    ______ ____
ROOT
ATOM      1  C   UNL     1      47.899   7.137  13.292  0.00  0.00    +0.000 C 
ENDROOT
BRANCH   1   2
ATOM      2  C   UNL     1      46.851   6.231  12.696  0.00  0.00    +0.000 A 
ATOM      3  C   UNL     1      46.474   5.051  13.350  0.00  0.00    +0.000 A 
ATOM      4  C   UNL     1      45.577   4.157  12.755  0.00  0.00    +0.000 A 
ATOM      5  C   UNL     1      45.036   4.425  11.492  0.00  0.00    +0.000 A 
ATOM      6  C   UNL     1      45.380   5.624  10.855  0.00  0.00    +0.000 A 
ATOM      7  C   UNL     1      46.286   6.513  11.446  0.00  0.00    +0.000 A 
BRANCH   5   8
ATOM      8  C   UNL     1      44.087   3.446  10.839  0.00  0.00    +0.000 C 
BRANCH   8   9
ATOM      9  C   UNL     1      44.412   3.243   9.357  0.00  0.00    +0.000 C 
BRANCH   9  10
ATOM     10  C   UNL     1      45.250   1.985   9.117  0.00  0.00    +0.000 C 
BRANCH  10  11
ATOM     11  C   UNL     1      46.098   2.122   7.881  0.00  0.00    +0.000 A 
ATOM     12  C   UNL     1      46.008   3.252   7.060  0.00  0.00    +0.000 A 
ATOM     13  C   UNL     1      46.834   3.365   5.945  0.00  0.00    +0.000 A 
ATOM     14  C   UNL     1      47.730   2.342   5.686  0.00  0.00    +0.000 A 
ATOM     15  N   UNL     1      47.849   1.238   6.455  0.00  0.00    +0.000 NA
ATOM     16  C   UNL     1      47.036   1.158   7.532  0.00  0.00    +0.000 A 
ENDBRANCH  10  11
ENDBRANCH   9  10
ENDBRANCH   8   9
ENDBRANCH   5   8
ENDBRANCH   1   2
BRANCH   1  19
ATOM     17  C   UNL     1      48.952   6.980  15.509  0.00  0.00    +0.000 C 
ATOM     18  O   UNL     1      50.045   6.711  15.019  0.00  0.00    +0.000 OA
ATOM     19  N   UNL     1      47.829   7.127  14.734  0.00  0.00    +0.000 N 
ATOM     20  H   UNL     1      46.982   7.479  15.164  0.00  0.00    +0.000 HD
BRANCH  17  28
ATOM     21  C   UNL     1      48.819   4.673  17.972  0.00  0.00    +0.000 A 
ATOM     22  N   UNL     1      48.720   3.924  19.096  0.00  0.00    +0.000 NA
ATOM     23  C   UNL     1      48.513   4.526  20.275  0.00  0.00    +0.000 A 
ATOM     24  C   UNL     1      48.397   5.888  20.434  0.00  0.00    +0.000 A 
ATOM     25  C   UNL     1      48.505   6.659  19.268  0.00  0.00    +0.000 A 
ATOM     26  S   UNL     1      48.383   8.370  19.187  0.00  0.00    +0.000 S 
ATOM     27  C   UNL     1      48.575   8.370  17.503  0.00  0.00    +0.000 A 
ATOM     28  C   UNL     1      48.775   7.109  16.964  0.00  0.00    +0.000 A 
ATOM     29  C   UNL     1      48.726   6.084  18.009  0.00  0.00    +0.000 A 
BRANCH  21  31
ATOM     30  C   UNL     1      47.933   3.300  16.301  0.00  0.00    +0.000 C 
ATOM     31  O   UNL     1      49.061   4.024  16.779  0.00  0.00    +0.000 OA
ENDBRANCH  21  31
ENDBRANCH  17  28
ENDBRANCH   1  19
TORSDOF 8
ENDMDL
MODEL 2
REMARK VINA RESULT:    -7.937      1.598      2.339
REMARK INTER + INTRA:         -12.988
REMARK INTER:                 -11.723
REMARK INTRA:                  -1.265
REMARK UNBOUND:                -1.338
REMARK  Name = 
REMARK  9 active torsions:
REMARK  status: ('A' for Active; 'I' for Inactive)
REMARK    1  A    between atoms: C_1  and  O_2
REMARK    2  A    between atoms: O_2  and  C_3
REMARK    3  A    between atoms: C_10  and  C_11
REMARK    4  A    between atoms: N_13  and  C_14
REMARK    5  A    between atoms: C_14  and  C_15
REMARK    6  A    between atoms: C_18  and  C_19
REMARK    7  A    between atoms: C_19  and  C_20
REMARK    8  A    between atoms: C_20  and  C_21
REMARK    9  A    between atoms: C_21  and  C_22
REMARK                            x       y       z     vdW  Elec       q    Type
REMARK                         _______ _______ _______ _____ _____    ______ ____
ROOT
ATOM      1  C   UNL     1      48.062   6.577  13.859  0.00  0.00    +0.000 C 
ENDROOT
BRANCH   1   2
ATOM      2  C   UNL     1      46.893   6.077  13.050  0.00  0.00    +0.000 A 
ATOM      3  C   UNL     1      46.077   5.048  13.537  0.00  0.00    +0.000 A 
ATOM      4  C   UNL     1      45.053   4.511  12.749  0.00  0.00    +0.000 A 
ATOM      5  C   UNL     1      44.823   4.993  11.455  0.00  0.00    +0.000 A 
ATOM      6  C   UNL     1      45.611   6.048  10.981  0.00  0.00    +0.000 A 
ATOM      7  C   UNL     1      46.642   6.579  11.766  0.00  0.00    +0.000 A 
BRANCH   5   8
ATOM      8  C   UNL     1      43.734   4.393  10.594  0.00  0.00    +0.000 C 
BRANCH   8   9
ATOM      9  C   UNL     1      44.261   3.978   9.219  0.00  0.00    +0.000 C 
BRANCH   9  10
ATOM     10  C   UNL     1      44.914   2.593   9.246  0.00  0.00    +0.000 C 
BRANCH  10  11
ATOM     11  C   UNL     1      45.844   2.407   8.077  0.00  0.00    +0.000 A 
ATOM     12  C   UNL     1      46.025   3.416   7.123  0.00  0.00    +0.000 A 
ATOM     13  C   UNL     1      46.921   3.225   6.076  0.00  0.00    +0.000 A 
ATOM     14  C   UNL     1      47.614   2.027   6.014  0.00  0.00    +0.000 A 
ATOM     15  N   UNL     1      47.469   1.032   6.915  0.00  0.00    +0.000 NA
ATOM     16  C   UNL     1      46.594   1.247   7.922  0.00  0.00    +0.000 A 
ENDBRANCH  10  11
ENDBRANCH   9  10
ENDBRANCH   8   9
ENDBRANCH   5   8
ENDBRANCH   1   2
BRANCH   1  19
ATOM     17  C   UNL     1      49.012   6.226  16.101  0.00  0.00    +0.000 C 
ATOM     18  O   UNL     1      50.145   6.494  15.710  0.00  0.00    +0.000 OA
ATOM     19  N   UNL     1      47.945   6.168  15.240  0.00  0.00    +0.000 N 
ATOM     20  H   UNL     1      47.012   6.078  15.624  0.00  0.00    +0.000 HD
BRANCH  17  28
ATOM     21  C   UNL     1      47.915   8.117  18.676  0.00  0.00    +0.000 A 
ATOM     22  N   UNL     1      47.508   8.688  19.835  0.00  0.00    +0.000 NA
ATOM     23  C   UNL     1      47.447   7.949  20.950  0.00  0.00    +0.000 A 
ATOM     24  C   UNL     1      47.768   6.612  21.006  0.00  0.00    +0.000 A 
ATOM     25  C   UNL     1      48.183   6.024  19.803  0.00  0.00    +0.000 A 
ATOM     26  S   UNL     1      48.652   4.384  19.603  0.00  0.00    +0.000 S 
ATOM     27  C   UNL     1      49.003   4.617  17.961  0.00  0.00    +0.000 A 
ATOM     28  C   UNL     1      48.744   5.902  17.511  0.00  0.00    +0.000 A 
ATOM     29  C   UNL     1      48.263   6.748  18.605  0.00  0.00    +0.000 A 
BRANCH  21  31
ATOM     30  C   UNL     1      49.116   9.693  17.437  0.00  0.00    +0.000 C 
ATOM     31  O   UNL     1      47.939   8.899  17.540  0.00  0.00    +0.000 OA
ENDBRANCH  21  31
ENDBRANCH  17  28
ENDBRANCH   1  19
TORSDOF 8
ENDMDL
MODEL 3
REMARK VINA RESULT:    -7.516      2.431      3.214
REMARK INTER + INTRA:         -12.369
REMARK INTER:                 -11.081
REMARK INTRA:                  -1.288
REMARK UNBOUND:                -1.338
REMARK  Name = 
REMARK  9 active torsions:
REMARK  status: ('A' for Active; 'I' for Inactive)
REMARK    1  A    between atoms: C_1  and  O_2
REMARK    2  A    between atoms: O_2  and  C_3
REMARK    3  A    between atoms: C_10  and  C_11
REMARK    4  A    between atoms: N_13  and  C_14
REMARK    5  A    between atoms: C_14  and  C_15
REMARK    6  A    between atoms: C_18  and  C_19
REMARK    7  A    between atoms: C_19  and  C_20
REMARK    8  A    between atoms: C_20  and  C_21
REMARK    9  A    between atoms: C_21  and  C_22
REMARK                            x       y       z     vdW  Elec       q    Type
REMARK                         _______ _______ _______ _____ _____    ______ ____
ROOT
ATOM      1  C   UNL     1      48.570   7.269  15.593  0.00  0.00    +0.000 C 
ENDROOT
BRANCH   1   2
ATOM      2  C   UNL     1      47.974   6.852  14.272  0.00  0.00    +0.000 A 
ATOM      3  C   UNL     1      48.158   7.640  13.128  0.00  0.00    +0.000 A 
ATOM      4  C   UNL     1      47.525   7.312  11.924  0.00  0.00    +0.000 A 
ATOM      5  C   UNL     1      46.694   6.188  11.838  0.00  0.00    +0.000 A 
ATOM      6  C   UNL     1      46.542   5.378  12.970  0.00  0.00    +0.000 A 
ATOM      7  C   UNL     1      47.167   5.711  14.178  0.00  0.00    +0.000 A 
BRANCH   5   8
ATOM      8  C   UNL     1      45.989   5.851  10.544  0.00  0.00    +0.000 C 
BRANCH   8   9
ATOM      9  C   UNL     1      45.246   4.516  10.633  0.00  0.00    +0.000 C 
BRANCH   9  10
ATOM     10  C   UNL     1      44.599   4.126   9.302  0.00  0.00    +0.000 C 
BRANCH  10  11
ATOM     11  C   UNL     1      45.479   3.185   8.523  0.00  0.00    +0.000 A 
ATOM     12  C   UNL     1      46.327   3.651   7.513  0.00  0.00    +0.000 A 
ATOM     13  C   UNL     1      47.156   2.758   6.839  0.00  0.00    +0.000 A 
ATOM     14  C   UNL     1      47.112   1.422   7.199  0.00  0.00    +0.000 A 
ATOM     15  N   UNL     1      46.310   0.934   8.169  0.00  0.00    +0.000 NA
ATOM     16  C   UNL     1      45.519   1.825   8.808  0.00  0.00    +0.000 A 
ENDBRANCH  10  11
ENDBRANCH   9  10
ENDBRANCH   8   9
ENDBRANCH   5   8
ENDBRANCH   1   2
BRANCH   1  19
ATOM     17  C   UNL     1      50.118   6.316  17.251  0.00  0.00    +0.000 C 
ATOM     18  O   UNL     1      49.703   7.063  18.132  0.00  0.00    +0.000 OA
ATOM     19  N   UNL     1      49.670   6.406  15.957  0.00  0.00    +0.000 N 
ATOM     20  H   UNL     1      49.938   5.685  15.297  0.00  0.00    +0.000 HD
BRANCH  17  28
ATOM     21  C   UNL     1      50.096   2.943  17.079  0.00  0.00    +0.000 A 
ATOM     22  N   UNL     1      50.299   1.604  17.095  0.00  0.00    +0.000 NA
ATOM     23  C   UNL     1      51.490   1.119  17.470  0.00  0.00    +0.000 A 
ATOM     24  C   UNL     1      52.557   1.905  17.845  0.00  0.00    +0.000 A 
ATOM     25  C   UNL     1      52.344   3.291  17.823  0.00  0.00    +0.000 A 
ATOM     26  S   UNL     1      53.498   4.485  18.256  0.00  0.00    +0.000 S 
ATOM     27  C   UNL     1      52.396   5.744  17.981  0.00  0.00    +0.000 A 
ATOM     28  C   UNL     1      51.161   5.314  17.523  0.00  0.00    +0.000 A 
ATOM     29  C   UNL     1      51.119   3.853  17.434  0.00  0.00    +0.000 A 
BRANCH  21  31
ATOM     30  C   UNL     1      47.789   2.921  17.449  0.00  0.00    +0.000 C 
ATOM     31  O   UNL     1      48.868   3.409  16.659  0.00  0.00    +0.000 OA
ENDBRANCH  21  31
ENDBRANCH  17  28
ENDBRANCH   1  19
TORSDOF 8
ENDMDL
MODEL 4
REMARK VINA RESULT:    -7.415      1.906      2.187
REMARK INTER + INTRA:         -12.221
REMARK INTER:                 -10.884
REMARK INTRA:                  -1.336
REMARK UNBOUND:                -1.338
REMARK  Name = 
REMARK  9 active torsions:
REMARK  status: ('A' for Active; 'I' for Inactive)
REMARK    1  A    between atoms: C_1  and  O_2
REMARK    2  A    between atoms: O_2  and  C_3
REMARK    3  A    between atoms: C_10  and  C_11
REMARK    4  A    between atoms: N_13  and  C_14
REMARK    5  A    between atoms: C_14  and  C_15
REMARK    6  A    between atoms: C_18  and  C_19
REMARK    7  A    between atoms: C_19  and  C_20
REMARK    8  A    between atoms: C_20  and  C_21
REMARK    9  A    between atoms: C_21  and  C_22
REMARK                            x       y       z     vdW  Elec       q    Type
REMARK                         _______ _______ _______ _____ _____    ______ ____
ROOT
ATOM      1  C   UNL     1      46.807   8.000  13.504  0.00  0.00    +0.000 C 
ENDROOT
BRANCH   1   2
ATOM      2  C   UNL     1      46.162   6.930  12.659  0.00  0.00    +0.000 A 
ATOM      3  C   UNL     1      46.586   6.711  11.342  0.00  0.00    +0.000 A 
ATOM      4  C   UNL     1      45.926   5.790  10.521  0.00  0.00    +0.000 A 
ATOM      5  C   UNL     1      44.826   5.068  11.000  0.00  0.00    +0.000 A 
ATOM      6  C   UNL     1      44.426   5.257  12.328  0.00  0.00    +0.000 A 
ATOM      7  C   UNL     1      45.080   6.185  13.147  0.00  0.00    +0.000 A 
BRANCH   5   8
ATOM      8  C   UNL     1      44.097   4.094  10.103  0.00  0.00    +0.000 C 
BRANCH   8   9
ATOM      9  C   UNL     1      44.653   2.674  10.236  0.00  0.00    +0.000 C 
BRANCH   9  10
ATOM     10  C   UNL     1      44.557   1.892   8.923  0.00  0.00    +0.000 C 
BRANCH  10  11
ATOM     11  C   UNL     1      45.783   2.099   8.075  0.00  0.00    +0.000 A 
ATOM     12  C   UNL     1      46.109   3.360   7.562  0.00  0.00    +0.000 A 
ATOM     13  C   UNL     1      47.271   3.524   6.814  0.00  0.00    +0.000 A 
ATOM     14  C   UNL     1      48.077   2.418   6.603  0.00  0.00    +0.000 A 
ATOM     15  N   UNL     1      47.799   1.187   7.082  0.00  0.00    +0.000 NA
ATOM     16  C   UNL     1      46.666   1.060   7.807  0.00  0.00    +0.000 A 
ENDBRANCH  10  11
ENDBRANCH   9  10
ENDBRANCH   8   9
ENDBRANCH   5   8
ENDBRANCH   1   2
BRANCH   1  19
ATOM     17  C   UNL     1      48.643   8.161  15.132  0.00  0.00    +0.000 C 
ATOM     18  O   UNL     1      48.223   9.230  15.566  0.00  0.00    +0.000 OA
ATOM     19  N   UNL     1      48.051   7.530  14.067  0.00  0.00    +0.000 N 
ATOM     20  H   UNL     1      48.347   6.590  13.831  0.00  0.00    +0.000 HD
BRANCH  17  28
ATOM     21  C   UNL     1      49.091   5.192  16.678  0.00  0.00    +0.000 A 
ATOM     22  N   UNL     1      49.486   4.072  17.330  0.00  0.00    +0.000 NA
ATOM     23  C   UNL     1      50.766   3.939  17.701  0.00  0.00    +0.000 A 
ATOM     24  C   UNL     1      51.740   4.880  17.456  0.00  0.00    +0.000 A 
ATOM     25  C   UNL     1      51.328   6.035  16.777  0.00  0.00    +0.000 A 
ATOM     26  S   UNL     1      52.336   7.362  16.362  0.00  0.00    +0.000 S 
ATOM     27  C   UNL     1      51.042   8.214  15.675  0.00  0.00    +0.000 A 
ATOM     28  C   UNL     1      49.842   7.522  15.698  0.00  0.00    +0.000 A 
ATOM     29  C   UNL     1      50.003   6.226  16.361  0.00  0.00    +0.000 A 
BRANCH  21  31
ATOM     30  C   UNL     1      47.294   4.097  15.663  0.00  0.00    +0.000 C 
ATOM     31  O   UNL     1      47.773   5.284  16.285  0.00  0.00    +0.000 OA
ENDBRANCH  21  31
ENDBRANCH  17  28
ENDBRANCH   1  19
TORSDOF 8
ENDMDL
MODEL 5
REMARK VINA RESULT:    -7.067      2.176      2.872
REMARK INTER + INTRA:         -11.710
REMARK INTER:                 -10.333
REMARK INTRA:                  -1.377
REMARK UNBOUND:                -1.338
REMARK  Name = 
REMARK  9 active torsions:
REMARK  status: ('A' for Active; 'I' for Inactive)
REMARK    1  A    between atoms: C_1  and  O_2
REMARK    2  A    between atoms: O_2  and  C_3
REMARK    3  A    between atoms: C_10  and  C_11
REMARK    4  A    between atoms: N_13  and  C_14
REMARK    5  A    between atoms: C_14  and  C_15
REMARK    6  A    between atoms: C_18  and  C_19
REMARK    7  A    between atoms: C_19  and  C_20
REMARK    8  A    between atoms: C_20  and  C_21
REMARK    9  A    between atoms: C_21  and  C_22
REMARK                            x       y       z     vdW  Elec       q    Type
REMARK                         _______ _______ _______ _____ _____    ______ ____
ROOT
ATOM      1  C   UNL     1      48.028   7.706  12.962  0.00  0.00    +0.000 C 
ENDROOT
BRANCH   1   2
ATOM      2  C   UNL     1      46.889   6.903  12.387  0.00  0.00    +0.000 A 
ATOM      3  C   UNL     1      45.922   6.337  13.227  0.00  0.00    +0.000 A 
ATOM      4  C   UNL     1      44.920   5.509  12.710  0.00  0.00    +0.000 A 
ATOM      5  C   UNL     1      44.863   5.229  11.339  0.00  0.00    +0.000 A 
ATOM      6  C   UNL     1      45.805   5.827  10.493  0.00  0.00    +0.000 A 
ATOM      7  C   UNL     1      46.814   6.648  11.012  0.00  0.00    +0.000 A 
BRANCH   5   8
ATOM      8  C   UNL     1      43.797   4.312  10.785  0.00  0.00    +0.000 C 
BRANCH   8   9
ATOM      9  C   UNL     1      44.154   3.806   9.386  0.00  0.00    +0.000 C 
BRANCH   9  10
ATOM     10  C   UNL     1      44.929   2.486   9.430  0.00  0.00    +0.000 C 
BRANCH  10  11
ATOM     11  C   UNL     1      45.815   2.334   8.222  0.00  0.00    +0.000 A 
ATOM     12  C   UNL     1      45.998   3.387   7.318  0.00  0.00    +0.000 A 
ATOM     13  C   UNL     1      46.854   3.224   6.233  0.00  0.00    +0.000 A 
ATOM     14  C   UNL     1      47.505   2.011   6.085  0.00  0.00    +0.000 A 
ATOM     15  N   UNL     1      47.356   0.973   6.936  0.00  0.00    +0.000 NA
ATOM     16  C   UNL     1      46.521   1.162   7.982  0.00  0.00    +0.000 A 
ENDBRANCH  10  11
ENDBRANCH   9  10
ENDBRANCH   8   9
ENDBRANCH   5   8
ENDBRANCH   1   2
BRANCH   1  19
ATOM     17  C   UNL     1      48.739   7.311  15.284  0.00  0.00    +0.000 C 
ATOM     18  O   UNL     1      48.251   8.373  15.659  0.00  0.00    +0.000 OA
ATOM     19  N   UNL     1      48.742   6.945  13.961  0.00  0.00    +0.000 N 
ATOM     20  H   UNL     1      49.032   6.006  13.716  0.00  0.00    +0.000 HD
BRANCH  17  28
ATOM     21  C   UNL     1      51.996   6.777  16.002  0.00  0.00    +0.000 A 
ATOM     22  N   UNL     1      53.225   6.396  16.425  0.00  0.00    +0.000 NA
ATOM     23  C   UNL     1      53.337   5.427  17.343  0.00  0.00    +0.000 A 
ATOM     24  C   UNL     1      52.264   4.777  17.911  0.00  0.00    +0.000 A 
ATOM     25  C   UNL     1      50.994   5.178  17.473  0.00  0.00    +0.000 A 
ATOM     26  S   UNL     1      49.500   4.521  18.007  0.00  0.00    +0.000 S 
ATOM     27  C   UNL     1      48.613   5.521  16.966  0.00  0.00    +0.000 A 
ATOM     28  C   UNL     1      49.396   6.393  16.227  0.00  0.00    +0.000 A 
ATOM     29  C   UNL     1      50.817   6.189  16.518  0.00  0.00    +0.000 A 
BRANCH  21  31
ATOM     30  C   UNL     1      52.095   9.086  15.654  0.00  0.00    +0.000 C 
ATOM     31  O   UNL     1      51.914   7.797  15.077  0.00  0.00    +0.000 OA
ENDBRANCH  21  31
ENDBRANCH  17  28
ENDBRANCH   1  19
TORSDOF 8
ENDMDL
MODEL 6
REMARK VINA RESULT:    -7.019      2.775      4.055
REMARK INTER + INTRA:         -11.640
REMARK INTER:                 -10.259
REMARK INTRA:                  -1.381
REMARK UNBOUND:                -1.338
REMARK  Name = 
REMARK  9 active torsions:
REMARK  status: ('A' for Active; 'I' for Inactive)
REMARK    1  A    between atoms: C_1  and  O_2
REMARK    2  A    between atoms: O_2  and  C_3
REMARK    3  A    between atoms: C_10  and  C_11
REMARK    4  A    between atoms: N_13  and  C_14
REMARK    5  A    between atoms: C_14  and  C_15
REMARK    6  A    between atoms: C_18  and  C_19
REMARK    7  A    between atoms: C_19  and  C_20
REMARK    8  A    between atoms: C_20  and  C_21
REMARK    9  A    between atoms: C_21  and  C_22
REMARK                            x       y       z     vdW  Elec       q    Type
REMARK                         _______ _______ _______ _____ _____    ______ ____
ROOT
ATOM      1  C   UNL     1      46.219   7.857  12.585  0.00  0.00    +0.000 C 
ENDROOT
BRANCH   1   2
ATOM      2  C   UNL     1      45.691   6.536  12.085  0.00  0.00    +0.000 A 
ATOM      3  C   UNL     1      45.739   6.221  10.721  0.00  0.00    +0.000 A 
ATOM      4  C   UNL     1      45.160   5.042  10.237  0.00  0.00    +0.000 A 
ATOM      5  C   UNL     1      44.521   4.152  11.109  0.00  0.00    +0.000 A 
ATOM      6  C   UNL     1      44.507   4.446  12.478  0.00  0.00    +0.000 A 
ATOM      7  C   UNL     1      45.077   5.631  12.960  0.00  0.00    +0.000 A 
BRANCH   5   8
ATOM      8  C   UNL     1      43.872   2.893  10.582  0.00  0.00    +0.000 C 
BRANCH   8   9
ATOM      9  C   UNL     1      44.304   2.589   9.145  0.00  0.00    +0.000 C 
BRANCH   9  10
ATOM     10  C   UNL     1      45.632   1.828   9.091  0.00  0.00    +0.000 C 
BRANCH  10  11
ATOM     11  C   UNL     1      46.358   2.092   7.799  0.00  0.00    +0.000 A 
ATOM     12  C   UNL     1      46.170   3.283   7.089  0.00  0.00    +0.000 A 
ATOM     13  C   UNL     1      46.887   3.511   5.918  0.00  0.00    +0.000 A 
ATOM     14  C   UNL     1      47.774   2.537   5.491  0.00  0.00    +0.000 A 
ATOM     15  N   UNL     1      47.985   1.377   6.148  0.00  0.00    +0.000 NA
ATOM     16  C   UNL     1      47.278   1.186   7.284  0.00  0.00    +0.000 A 
ENDBRANCH  10  11
ENDBRANCH   9  10
ENDBRANCH   8   9
ENDBRANCH   5   8
ENDBRANCH   1   2
BRANCH   1  19
ATOM     17  C   UNL     1      48.381   8.985  12.265  0.00  0.00    +0.000 C 
ATOM     18  O   UNL     1      47.840   9.989  11.812  0.00  0.00    +0.000 OA
ATOM     19  N   UNL     1      47.664   7.863  12.595  0.00  0.00    +0.000 N 
ATOM     20  H   UNL     1      48.132   7.112  13.089  0.00  0.00    +0.000 HD
BRANCH  17  28
ATOM     21  C   UNL     1      50.304   7.870  14.808  0.00  0.00    +0.000 A 
ATOM     22  N   UNL     1      51.250   7.497  15.703  0.00  0.00    +0.000 NA
ATOM     23  C   UNL     1      52.545   7.659  15.402  0.00  0.00    +0.000 A 
ATOM     24  C   UNL     1      52.999   8.185  14.213  0.00  0.00    +0.000 A 
ATOM     25  C   UNL     1      52.016   8.565  13.289  0.00  0.00    +0.000 A 
ATOM     26  S   UNL     1      52.311   9.258  11.746  0.00  0.00    +0.000 S 
ATOM     27  C   UNL     1      50.654   9.406  11.422  0.00  0.00    +0.000 A 
ATOM     28  C   UNL     1      49.842   8.909  12.430  0.00  0.00    +0.000 A 
ATOM     29  C   UNL     1      50.646   8.415  13.549  0.00  0.00    +0.000 A 
BRANCH  21  31
ATOM     30  C   UNL     1      48.747   6.386  15.723  0.00  0.00    +0.000 C 
ATOM     31  O   UNL     1      48.981   7.662  15.138  0.00  0.00    +0.000 OA
ENDBRANCH  21  31
ENDBRANCH  17  28
ENDBRANCH   1  19
TORSDOF 8
ENDMDL
MODEL 7
REMARK VINA RESULT:    -6.796      2.080      3.058
REMARK INTER + INTRA:         -11.312
REMARK INTER:                  -9.406
REMARK INTRA:                  -1.906
REMARK UNBOUND:                -1.338
REMARK  Name = 
REMARK  9 active torsions:
REMARK  status: ('A' for Active; 'I' for Inactive)
REMARK    1  A    between atoms: C_1  and  O_2
REMARK    2  A    between atoms: O_2  and  C_3
REMARK    3  A    between atoms: C_10  and  C_11
REMARK    4  A    between atoms: N_13  and  C_14
REMARK    5  A    between atoms: C_14  and  C_15
REMARK    6  A    between atoms: C_18  and  C_19
REMARK    7  A    between atoms: C_19  and  C_20
REMARK    8  A    between atoms: C_20  and  C_21
REMARK    9  A    between atoms: C_21  and  C_22
REMARK                            x       y       z     vdW  Elec       q    Type
REMARK                         _______ _______ _______ _____ _____    ______ ____
ROOT
ATOM      1  C   UNL     1      49.892   8.079  13.815  0.00  0.00    +0.000 C 
ENDROOT
BRANCH   1   2
ATOM      2  C   UNL     1      48.562   7.943  13.119  0.00  0.00    +0.000 A 
ATOM      3  C   UNL     1      47.488   8.771  13.469  0.00  0.00    +0.000 A 
ATOM      4  C   UNL     1      46.224   8.584  12.898  0.00  0.00    +0.000 A 
ATOM      5  C   UNL     1      46.007   7.564  11.965  0.00  0.00    +0.000 A 
ATOM      6  C   UNL     1      47.089   6.761  11.585  0.00  0.00    +0.000 A 
ATOM      7  C   UNL     1      48.351   6.941  12.163  0.00  0.00    +0.000 A 
BRANCH   5   8
ATOM      8  C   UNL     1      44.634   7.345  11.370  0.00  0.00    +0.000 C 
BRANCH   8   9
ATOM      9  C   UNL     1      44.037   6.003  11.798  0.00  0.00    +0.000 C 
BRANCH   9  10
ATOM     10  C   UNL     1      43.208   5.359  10.683  0.00  0.00    +0.000 C 
BRANCH  10  11
ATOM     11  C   UNL     1      43.993   4.291   9.969  0.00  0.00    +0.000 A 
ATOM     12  C   UNL     1      44.776   4.590   8.849  0.00  0.00    +0.000 A 
ATOM     13  C   UNL     1      45.519   3.586   8.236  0.00  0.00    +0.000 A 
ATOM     14  C   UNL     1      45.458   2.307   8.765  0.00  0.00    +0.000 A 
ATOM     15  N   UNL     1      44.717   1.979   9.844  0.00  0.00    +0.000 NA
ATOM     16  C   UNL     1      44.008   2.977  10.420  0.00  0.00    +0.000 A 
ENDBRANCH  10  11
ENDBRANCH   9  10
ENDBRANCH   8   9
ENDBRANCH   5   8
ENDBRANCH   1   2
BRANCH   1  19
ATOM     17  C   UNL     1      49.669   7.534  16.204  0.00  0.00    +0.000 C 
ATOM     18  O   UNL     1      49.420   8.702  16.491  0.00  0.00    +0.000 OA
ATOM     19  N   UNL     1      49.990   7.158  14.924  0.00  0.00    +0.000 N 
ATOM     20  H   UNL     1      50.055   6.170  14.708  0.00  0.00    +0.000 HD
BRANCH  17  28
ATOM     21  C   UNL     1      48.024   4.593  16.438  0.00  0.00    +0.000 A 
ATOM     22  N   UNL     1      47.463   3.397  16.737  0.00  0.00    +0.000 NA
ATOM     23  C   UNL     1      47.788   2.783  17.882  0.00  0.00    +0.000 A 
ATOM     24  C   UNL     1      48.680   3.287  18.801  0.00  0.00    +0.000 A 
ATOM     25  C   UNL     1      49.262   4.523  18.485  0.00  0.00    +0.000 A 
ATOM     26  S   UNL     1      50.389   5.375  19.460  0.00  0.00    +0.000 S 
ATOM     27  C   UNL     1      50.464   6.665  18.363  0.00  0.00    +0.000 A 
ATOM     28  C   UNL     1      49.689   6.479  17.229  0.00  0.00    +0.000 A 
ATOM     29  C   UNL     1      48.963   5.209  17.299  0.00  0.00    +0.000 A 
BRANCH  21  31
ATOM     30  C   UNL     1      46.777   4.410  14.470  0.00  0.00    +0.000 C 
ATOM     31  O   UNL     1      47.691   5.185  15.238  0.00  0.00    +0.000 OA
ENDBRANCH  21  31
ENDBRANCH  17  28
ENDBRANCH   1  19
TORSDOF 8
ENDMDL
MODEL 8
REMARK VINA RESULT:    -6.141      3.511      5.068
REMARK INTER + INTRA:         -10.352
REMARK INTER:                  -8.642
REMARK INTRA:                  -1.710
REMARK UNBOUND:                -1.338
REMARK  Name = 
REMARK  9 active torsions:
REMARK  status: ('A' for Active; 'I' for Inactive)
REMARK    1  A    between atoms: C_1  and  O_2
REMARK    2  A    between atoms: O_2  and  C_3
REMARK    3  A    between atoms: C_10  and  C_11
REMARK    4  A    between atoms: N_13  and  C_14
REMARK    5  A    between atoms: C_14  and  C_15
REMARK    6  A    between atoms: C_18  and  C_19
REMARK    7  A    between atoms: C_19  and  C_20
REMARK    8  A    between atoms: C_20  and  C_21
REMARK    9  A    between atoms: C_21  and  C_22
REMARK                            x       y       z     vdW  Elec       q    Type
REMARK                         _______ _______ _______ _____ _____    ______ ____
ROOT
ATOM      1  C   UNL     1      49.122   7.605  17.481  0.00  0.00    +0.000 C 
ENDROOT
BRANCH   1   2
ATOM      2  C   UNL     1      48.661   7.689  16.048  0.00  0.00    +0.000 A 
ATOM      3  C   UNL     1      48.677   6.555  15.226  0.00  0.00    +0.000 A 
ATOM      4  C   UNL     1      48.346   6.648  13.870  0.00  0.00    +0.000 A 
ATOM      5  C   UNL     1      47.991   7.880  13.306  0.00  0.00    +0.000 A 
ATOM      6  C   UNL     1      47.935   9.007  14.135  0.00  0.00    +0.000 A 
ATOM      7  C   UNL     1      48.276   8.916  15.490  0.00  0.00    +0.000 A 
BRANCH   5   8
ATOM      8  C   UNL     1      47.660   7.984  11.835  0.00  0.00    +0.000 C 
BRANCH   8   9
ATOM      9  C   UNL     1      46.910   6.748  11.332  0.00  0.00    +0.000 C 
BRANCH   9  10
ATOM     10  C   UNL     1      45.406   6.836  11.603  0.00  0.00    +0.000 C 
BRANCH  10  11
ATOM     11  C   UNL     1      44.784   5.467  11.672  0.00  0.00    +0.000 A 
ATOM     12  C   UNL     1      45.350   4.450  12.448  0.00  0.00    +0.000 A 
ATOM     13  C   UNL     1      44.728   3.207  12.521  0.00  0.00    +0.000 A 
ATOM     14  C   UNL     1      43.552   3.019  11.814  0.00  0.00    +0.000 A 
ATOM     15  N   UNL     1      42.973   3.975  11.057  0.00  0.00    +0.000 NA
ATOM     16  C   UNL     1      43.599   5.173  11.008  0.00  0.00    +0.000 A 
ENDBRANCH  10  11
ENDBRANCH   9  10
ENDBRANCH   8   9
ENDBRANCH   5   8
ENDBRANCH   1   2
BRANCH   1  19
ATOM     17  C   UNL     1      50.448   6.040  18.838  0.00  0.00    +0.000 C 
ATOM     18  O   UNL     1      49.918   6.424  19.877  0.00  0.00    +0.000 OA
ATOM     19  N   UNL     1      50.171   6.622  17.628  0.00  0.00    +0.000 N 
ATOM     20  H   UNL     1      50.526   6.188  16.784  0.00  0.00    +0.000 HD
BRANCH  17  28
ATOM     21  C   UNL     1      50.499   3.003  17.360  0.00  0.00    +0.000 A 
ATOM     22  N   UNL     1      50.716   1.756  16.879  0.00  0.00    +0.000 NA
ATOM     23  C   UNL     1      51.845   1.110  17.200  0.00  0.00    +0.000 A 
ATOM     24  C   UNL     1      52.833   1.639  18.000  0.00  0.00    +0.000 A 
ATOM     25  C   UNL     1      52.607   2.933  18.491  0.00  0.00    +0.000 A 
ATOM     26  S   UNL     1      53.667   3.812  19.516  0.00  0.00    +0.000 S 
ATOM     27  C   UNL     1      52.601   5.127  19.601  0.00  0.00    +0.000 A 
ATOM     28  C   UNL     1      51.453   4.965  18.842  0.00  0.00    +0.000 A 
ATOM     29  C   UNL     1      51.445   3.657  18.184  0.00  0.00    +0.000 A 
BRANCH  21  31
ATOM     30  C   UNL     1      48.198   3.210  17.713  0.00  0.00    +0.000 C 
ATOM     31  O   UNL     1      49.340   3.651  16.987  0.00  0.00    +0.000 OA
ENDBRANCH  21  31
ENDBRANCH  17  28
ENDBRANCH   1  19
TORSDOF 8
ENDMDL
