MODEL 1
REMARK VINA RESULT:    -8.571      0.000      0.000
REMARK INTER + INTRA:         -14.077
REMARK INTER:                 -12.830
REMARK INTRA:                  -1.247
REMARK UNBOUND:                -1.247
REMARK  Name = 
REMARK  10 active torsions:
REMARK  status: ('A' for Active; 'I' for Inactive)
REMARK    1  A    between atoms: C_1  and  O_2
REMARK    2  A    between atoms: O_2  and  C_3
REMARK    3  A    between atoms: C_6  and  C_7
REMARK    4  A    between atoms: C_7  and  N_8
REMARK    5  A    between atoms: N_8  and  C_9
REMARK    6  A    between atoms: C_9  and  C_10
REMARK    7  A    between atoms: C_13  and  C_14
REMARK    8  A    between atoms: C_14  and  N_15
REMARK    9  A    between atoms: C_16  and  C_18
REMARK   10  A    between atoms: C_31  and  O_32
REMARK                            x       y       z     vdW  Elec       q    Type
REMARK                         _______ _______ _______ _____ _____    ______ ____
ROOT
ATOM      1  C   UNL     1      44.543   5.781  11.652  0.00  0.00    +0.000 A 
ATOM      2  C   UNL     1      44.842   5.229  12.907  0.00  0.00    +0.000 A 
ATOM      3  C   UNL     1      46.056   5.510  13.544  0.00  0.00    +0.000 A 
ATOM      4  C   UNL     1      47.002   6.344  12.937  0.00  0.00    +0.000 A 
ATOM      5  C   UNL     1      46.724   6.862  11.665  0.00  0.00    +0.000 A 
ATOM      6  C   UNL     1      45.506   6.591  11.033  0.00  0.00    +0.000 A 
ENDROOT
BRANCH   1   7
ATOM      7  C   UNL     1      43.216   5.500  10.977  0.00  0.00    +0.000 C 
BRANCH   7   8
ATOM      8  N   UNL     1      43.403   4.706   9.766  0.00  0.00    +0.000 NA
ATOM      9  H   UNL     1      42.512   4.607   9.284  0.00  0.00    +0.000 HD
BRANCH   8  10
ATOM     10  C   UNL     1      43.928   3.372  10.048  0.00  0.00    +0.000 C 
BRANCH  10  14
ATOM     11  C   UNL     1      47.070   2.341   7.233  0.00  0.00    +0.000 A 
ATOM     12  C   UNL     1      46.670   3.671   7.387  0.00  0.00    +0.000 A 
ATOM     13  C   UNL     1      45.650   4.008   8.289  0.00  0.00    +0.000 A 
ATOM     14  C   UNL     1      45.012   3.021   9.052  0.00  0.00    +0.000 A 
ATOM     15  C   UNL     1      45.406   1.685   8.885  0.00  0.00    +0.000 A 
ATOM     16  C   UNL     1      46.426   1.356   7.991  0.00  0.00    +0.000 A 
BRANCH  11  18
ATOM     17  C   UNL     1      47.986   2.293   5.030  0.00  0.00    +0.000 C 
ATOM     18  O   UNL     1      48.062   1.906   6.394  0.00  0.00    +0.000 OA
ENDBRANCH  11  18
BRANCH  16  19
ATOM     19  O   UNL     1      46.807   0.047   7.856  0.00  0.00    +0.000 OA
ATOM     20  H   UNL     1      47.663   0.018   7.402  0.00  0.00    +0.000 HD
ENDBRANCH  16  19
ENDBRANCH  10  14
ENDBRANCH   8  10
ENDBRANCH   7   8
ENDBRANCH   1   7
BRANCH   4  21
ATOM     21  C   UNL     1      48.313   6.644  13.616  0.00  0.00    +0.000 C 
BRANCH  21  22
ATOM     22  N   UNL     1      48.149   6.735  15.046  0.00  0.00    +0.000 N 
ATOM     23  C   UNL     1      49.228   6.716  15.889  0.00  0.00    +0.000 C 
ATOM     24  O   UNL     1      50.381   6.671  15.472  0.00  0.00    +0.000 OA
ATOM     25  H   UNL     1      47.220   6.554  15.412  0.00  0.00    +0.000 HD
BRANCH  23  26
ATOM     26  C   UNL     1      48.938   6.817  17.328  0.00  0.00    +0.000 A 
ATOM     27  C   UNL     1      48.657   8.058  17.885  0.00  0.00    +0.000 A 
ATOM     28  S   UNL     1      48.295   7.996  19.549  0.00  0.00    +0.000 S 
ATOM     29  C   UNL     1      48.550   6.314  19.597  0.00  0.00    +0.000 A 
ATOM     30  N   UNL     1      48.423   5.623  20.761  0.00  0.00    +0.000 NA
ATOM     31  C   UNL     1      48.678   4.360  20.663  0.00  0.00    +0.000 A 
ATOM     32  N   UNL     1      49.045   3.727  19.503  0.00  0.00    +0.000 N 
ATOM     33  C   UNL     1      49.155   4.378  18.299  0.00  0.00    +0.000 A 
ATOM     34  O   UNL     1      49.443   3.772  17.272  0.00  0.00    +0.000 OA
ATOM     35  C   UNL     1      48.890   5.804  18.356  0.00  0.00    +0.000 A 
ATOM     36  H   UNL     1      49.224   2.734  19.491  0.00  0.00    +0.000 HD
ENDBRANCH  23  26
ENDBRANCH  21  22
ENDBRANCH   4  21
TORSDOF 9
ENDMDL
MODEL 2
REMARK VINA RESULT:    -8.373      1.317      1.981
REMARK INTER + INTRA:         -13.780
REMARK INTER:                 -12.598
REMARK INTRA:                  -1.182
REMARK UNBOUND:                -1.247
REMARK  Name = 
REMARK  10 active torsions:
REMARK  status: ('A' for Active; 'I' for Inactive)
REMARK    1  A    between atoms: C_1  and  O_2
REMARK    2  A    between atoms: O_2  and  C_3
REMARK    3  A    between atoms: C_6  and  C_7
REMARK    4  A    between atoms: C_7  and  N_8
REMARK    5  A    between atoms: N_8  and  C_9
REMARK    6  A    between atoms: C_9  and  C_10
REMARK    7  A    between atoms: C_13  and  C_14
REMARK    8  A    between atoms: C_14  and  N_15
REMARK    9  A    between atoms: C_16  and  C_18
REMARK   10  A    between atoms: C_31  and  O_32
REMARK                            x       y       z     vdW  Elec       q    Type
REMARK                         _______ _______ _______ _____ _____    ______ ____
ROOT
ATOM      1  C   UNL     1      44.598   5.788  11.813  0.00  0.00    +0.000 A 
ATOM      2  C   UNL     1      44.914   5.037  12.956  0.00  0.00    +0.000 A 
ATOM      3  C   UNL     1      46.094   5.276  13.668  0.00  0.00    +0.000 A 
ATOM      4  C   UNL     1      46.989   6.268  13.251  0.00  0.00    +0.000 A 
ATOM      5  C   UNL     1      46.696   6.991  12.087  0.00  0.00    +0.000 A 
ATOM      6  C   UNL     1      45.511   6.760  11.381  0.00  0.00    +0.000 A 
ENDROOT
BRANCH   1   7
ATOM      7  C   UNL     1      43.305   5.548  11.061  0.00  0.00    +0.000 C 
BRANCH   7   8
ATOM      8  N   UNL     1      43.548   4.801   9.830  0.00  0.00    +0.000 NA
ATOM      9  H   UNL     1      42.698   4.783   9.270  0.00  0.00    +0.000 HD
BRANCH   8  10
ATOM     10  C   UNL     1      43.966   3.425  10.085  0.00  0.00    +0.000 C 
BRANCH  10  14
ATOM     11  C   UNL     1      46.960   2.180   7.196  0.00  0.00    +0.000 A 
ATOM     12  C   UNL     1      46.593   3.524   7.297  0.00  0.00    +0.000 A 
ATOM     13  C   UNL     1      45.620   3.930   8.223  0.00  0.00    +0.000 A 
ATOM     14  C   UNL     1      44.998   2.998   9.063  0.00  0.00    +0.000 A 
ATOM     15  C   UNL     1      45.358   1.647   8.951  0.00  0.00    +0.000 A 
ATOM     16  C   UNL     1      46.330   1.250   8.032  0.00  0.00    +0.000 A 
BRANCH  11  18
ATOM     17  C   UNL     1      48.142   2.392   5.134  0.00  0.00    +0.000 C 
ATOM     18  O   UNL     1      47.905   1.680   6.340  0.00  0.00    +0.000 OA
ENDBRANCH  11  18
BRANCH  16  19
ATOM     19  O   UNL     1      46.680  -0.072   7.951  0.00  0.00    +0.000 OA
ATOM     20  H   UNL     1      46.625  -0.352   7.024  0.00  0.00    +0.000 HD
ENDBRANCH  16  19
ENDBRANCH  10  14
ENDBRANCH   8  10
ENDBRANCH   7   8
ENDBRANCH   1   7
BRANCH   4  21
ATOM     21  C   UNL     1      48.264   6.525  14.012  0.00  0.00    +0.000 C 
BRANCH  21  22
ATOM     22  N   UNL     1      48.061   6.376  15.431  0.00  0.00    +0.000 N 
ATOM     23  C   UNL     1      49.118   6.221  16.289  0.00  0.00    +0.000 C 
ATOM     24  O   UNL     1      50.282   6.250  15.902  0.00  0.00    +0.000 OA
ATOM     25  H   UNL     1      47.124   6.134  15.737  0.00  0.00    +0.000 HD
BRANCH  23  26
ATOM     26  C   UNL     1      48.789   6.080  17.716  0.00  0.00    +0.000 A 
ATOM     27  C   UNL     1      48.974   4.855  18.344  0.00  0.00    +0.000 A 
ATOM     28  S   UNL     1      48.595   4.873  20.005  0.00  0.00    +0.000 S 
ATOM     29  C   UNL     1      48.122   6.505  19.936  0.00  0.00    +0.000 A 
ATOM     30  N   UNL     1      47.656   7.145  21.042  0.00  0.00    +0.000 NA
ATOM     31  C   UNL     1      47.300   8.370  20.841  0.00  0.00    +0.000 A 
ATOM     32  N   UNL     1      47.372   9.014  19.633  0.00  0.00    +0.000 N 
ATOM     33  C   UNL     1      47.864   8.419  18.496  0.00  0.00    +0.000 A 
ATOM     34  O   UNL     1      47.954   9.039  17.442  0.00  0.00    +0.000 OA
ATOM     35  C   UNL     1      48.267   7.035  18.665  0.00  0.00    +0.000 A 
ATOM     36  H   UNL     1      47.084   9.978  19.543  0.00  0.00    +0.000 HD
ENDBRANCH  23  26
ENDBRANCH  21  22
ENDBRANCH   4  21
TORSDOF 9
ENDMDL
MODEL 3
REMARK VINA RESULT:    -7.455      2.142      2.642
REMARK INTER + INTRA:         -12.406
REMARK INTER:                 -11.113
REMARK INTRA:                  -1.294
REMARK UNBOUND:                -1.247
REMARK  Name = 
REMARK  10 active torsions:
REMARK  status: ('A' for Active; 'I' for Inactive)
REMARK    1  A    between atoms: C_1  and  O_2
REMARK    2  A    between atoms: O_2  and  C_3
REMARK    3  A    between atoms: C_6  and  C_7
REMARK    4  A    between atoms: C_7  and  N_8
REMARK    5  A    between atoms: N_8  and  C_9
REMARK    6  A    between atoms: C_9  and  C_10
REMARK    7  A    between atoms: C_13  and  C_14
REMARK    8  A    between atoms: C_14  and  N_15
REMARK    9  A    between atoms: C_16  and  C_18
REMARK   10  A    between atoms: C_31  and  O_32
REMARK                            x       y       z     vdW  Elec       q    Type
REMARK                         _______ _______ _______ _____ _____    ______ ____
ROOT
ATOM      1  C   UNL     1      45.138   6.253  12.140  0.00  0.00    +0.000 A 
ATOM      2  C   UNL     1      46.088   5.414  12.744  0.00  0.00    +0.000 A 
ATOM      3  C   UNL     1      47.356   5.896  13.088  0.00  0.00    +0.000 A 
ATOM      4  C   UNL     1      47.705   7.227  12.832  0.00  0.00    +0.000 A 
ATOM      5  C   UNL     1      46.774   8.055  12.191  0.00  0.00    +0.000 A 
ATOM      6  C   UNL     1      45.502   7.577  11.857  0.00  0.00    +0.000 A 
ENDROOT
BRANCH   1   7
ATOM      7  C   UNL     1      43.756   5.737  11.795  0.00  0.00    +0.000 C 
BRANCH   7   8
ATOM      8  N   UNL     1      43.704   5.265  10.414  0.00  0.00    +0.000 NA
ATOM      9  H   UNL     1      42.837   5.576   9.981  0.00  0.00    +0.000 HD
BRANCH   8  10
ATOM     10  C   UNL     1      43.776   3.809  10.319  0.00  0.00    +0.000 C 
BRANCH  10  14
ATOM     11  C   UNL     1      46.818   2.631   7.452  0.00  0.00    +0.000 A 
ATOM     12  C   UNL     1      46.500   3.979   7.628  0.00  0.00    +0.000 A 
ATOM     13  C   UNL     1      45.512   4.364   8.547  0.00  0.00    +0.000 A 
ATOM     14  C   UNL     1      44.825   3.407   9.304  0.00  0.00    +0.000 A 
ATOM     15  C   UNL     1      45.137   2.052   9.117  0.00  0.00    +0.000 A 
ATOM     16  C   UNL     1      46.125   1.675   8.206  0.00  0.00    +0.000 A 
BRANCH  11  18
ATOM     17  C   UNL     1      47.646   2.476   5.220  0.00  0.00    +0.000 C 
ATOM     18  O   UNL     1      47.772   2.148   6.596  0.00  0.00    +0.000 OA
ENDBRANCH  11  18
BRANCH  16  19
ATOM     19  O   UNL     1      46.426   0.348   8.050  0.00  0.00    +0.000 OA
ATOM     20  H   UNL     1      46.404  -0.080   8.919  0.00  0.00    +0.000 HD
ENDBRANCH  16  19
ENDBRANCH  10  14
ENDBRANCH   8  10
ENDBRANCH   7   8
ENDBRANCH   1   7
BRANCH   4  21
ATOM     21  C   UNL     1      49.070   7.749  13.196  0.00  0.00    +0.000 C 
BRANCH  21  22
ATOM     22  N   UNL     1      49.667   6.958  14.243  0.00  0.00    +0.000 N 
ATOM     23  C   UNL     1      49.415   7.219  15.564  0.00  0.00    +0.000 C 
ATOM     24  O   UNL     1      48.638   8.101  15.918  0.00  0.00    +0.000 OA
ATOM     25  H   UNL     1      50.463   6.383  13.986  0.00  0.00    +0.000 HD
BRANCH  23  26
ATOM     26  C   UNL     1      50.077   6.344  16.544  0.00  0.00    +0.000 A 
ATOM     27  C   UNL     1      49.309   5.630  17.454  0.00  0.00    +0.000 A 
ATOM     28  S   UNL     1      50.224   4.626  18.484  0.00  0.00    +0.000 S 
ATOM     29  C   UNL     1      51.684   5.149  17.786  0.00  0.00    +0.000 A 
ATOM     30  N   UNL     1      52.879   4.683  18.237  0.00  0.00    +0.000 NA
ATOM     31  C   UNL     1      53.909   5.187  17.642  0.00  0.00    +0.000 A 
ATOM     32  N   UNL     1      53.849   6.115  16.633  0.00  0.00    +0.000 N 
ATOM     33  C   UNL     1      52.665   6.591  16.125  0.00  0.00    +0.000 A 
ATOM     34  O   UNL     1      52.648   7.389  15.193  0.00  0.00    +0.000 OA
ATOM     35  C   UNL     1      51.476   6.064  16.768  0.00  0.00    +0.000 A 
ATOM     36  H   UNL     1      54.693   6.465  16.203  0.00  0.00    +0.000 HD
ENDBRANCH  23  26
ENDBRANCH  21  22
ENDBRANCH   4  21
TORSDOF 9
ENDMDL
MODEL 4
REMARK VINA RESULT:    -7.416      2.149      2.797
REMARK INTER + INTRA:         -12.349
REMARK INTER:                 -11.714
REMARK INTRA:                  -0.635
REMARK UNBOUND:                -1.247
REMARK  Name = 
REMARK  10 active torsions:
REMARK  status: ('A' for Active; 'I' for Inactive)
REMARK    1  A    between atoms: C_1  and  O_2
REMARK    2  A    between atoms: O_2  and  C_3
REMARK    3  A    between atoms: C_6  and  C_7
REMARK    4  A    between atoms: C_7  and  N_8
REMARK    5  A    between atoms: N_8  and  C_9
REMARK    6  A    between atoms: C_9  and  C_10
REMARK    7  A    between atoms: C_13  and  C_14
REMARK    8  A    between atoms: C_14  and  N_15
REMARK    9  A    between atoms: C_16  and  C_18
REMARK   10  A    between atoms: C_31  and  O_32
REMARK                            x       y       z     vdW  Elec       q    Type
REMARK                         _______ _______ _______ _____ _____    ______ ____
ROOT
ATOM      1  C   UNL     1      46.443   6.234  12.132  0.00  0.00    +0.000 A 
ATOM      2  C   UNL     1      46.707   7.606  12.268  0.00  0.00    +0.000 A 
ATOM      3  C   UNL     1      47.469   8.087  13.338  0.00  0.00    +0.000 A 
ATOM      4  C   UNL     1      47.982   7.208  14.300  0.00  0.00    +0.000 A 
ATOM      5  C   UNL     1      47.685   5.844  14.189  0.00  0.00    +0.000 A 
ATOM      6  C   UNL     1      46.932   5.360  13.114  0.00  0.00    +0.000 A 
ENDROOT
BRANCH   1   7
ATOM      7  C   UNL     1      45.642   5.711  10.958  0.00  0.00    +0.000 C 
BRANCH   7   8
ATOM      8  N   UNL     1      44.904   4.505  11.323  0.00  0.00    +0.000 NA
ATOM      9  H   UNL     1      45.555   3.793  11.647  0.00  0.00    +0.000 HD
BRANCH   8  10
ATOM     10  C   UNL     1      44.138   3.959  10.206  0.00  0.00    +0.000 C 
BRANCH  10  14
ATOM     11  C   UNL     1      46.862   2.345   7.233  0.00  0.00    +0.000 A 
ATOM     12  C   UNL     1      46.628   3.720   7.302  0.00  0.00    +0.000 A 
ATOM     13  C   UNL     1      45.742   4.246   8.255  0.00  0.00    +0.000 A 
ATOM     14  C   UNL     1      45.076   3.404   9.155  0.00  0.00    +0.000 A 
ATOM     15  C   UNL     1      45.302   2.022   9.075  0.00  0.00    +0.000 A 
ATOM     16  C   UNL     1      46.188   1.505   8.129  0.00  0.00    +0.000 A 
BRANCH  11  18
ATOM     17  C   UNL     1      47.895   2.336   5.083  0.00  0.00    +0.000 C 
ATOM     18  O   UNL     1      47.714   1.731   6.354  0.00  0.00    +0.000 OA
ENDBRANCH  11  18
BRANCH  16  19
ATOM     19  O   UNL     1      46.408   0.154   8.079  0.00  0.00    +0.000 OA
ATOM     20  H   UNL     1      46.235  -0.221   8.956  0.00  0.00    +0.000 HD
ENDBRANCH  16  19
ENDBRANCH  10  14
ENDBRANCH   8  10
ENDBRANCH   7   8
ENDBRANCH   1   7
BRANCH   4  21
ATOM     21  C   UNL     1      48.799   7.723  15.456  0.00  0.00    +0.000 C 
BRANCH  21  22
ATOM     22  N   UNL     1      49.784   6.755  15.868  0.00  0.00    +0.000 N 
ATOM     23  C   UNL     1      49.867   6.334  17.170  0.00  0.00    +0.000 C 
ATOM     24  O   UNL     1      49.084   6.721  18.032  0.00  0.00    +0.000 OA
ATOM     25  H   UNL     1      50.561   6.594  15.236  0.00  0.00    +0.000 HD
BRANCH  23  26
ATOM     26  C   UNL     1      50.909   5.341  17.473  0.00  0.00    +0.000 A 
ATOM     27  C   UNL     1      52.157   5.768  17.906  0.00  0.00    +0.000 A 
ATOM     28  S   UNL     1      53.233   4.495  18.262  0.00  0.00    +0.000 S 
ATOM     29  C   UNL     1      52.086   3.326  17.801  0.00  0.00    +0.000 A 
ATOM     30  N   UNL     1      52.385   2.000  17.843  0.00  0.00    +0.000 NA
ATOM     31  C   UNL     1      51.437   1.224  17.434  0.00  0.00    +0.000 A 
ATOM     32  N   UNL     1      50.214   1.657  16.989  0.00  0.00    +0.000 N 
ATOM     33  C   UNL     1      49.856   2.983  16.958  0.00  0.00    +0.000 A 
ATOM     34  O   UNL     1      48.737   3.331  16.595  0.00  0.00    +0.000 OA
ATOM     35  C   UNL     1      50.892   3.899  17.397  0.00  0.00    +0.000 A 
ATOM     36  H   UNL     1      49.511   0.998  16.689  0.00  0.00    +0.000 HD
ENDBRANCH  23  26
ENDBRANCH  21  22
ENDBRANCH   4  21
TORSDOF 9
ENDMDL
MODEL 5
REMARK VINA RESULT:    -7.018      3.045      9.178
REMARK INTER + INTRA:         -11.753
REMARK INTER:                 -10.346
REMARK INTRA:                  -1.407
REMARK UNBOUND:                -1.247
REMARK  Name = 
REMARK  10 active torsions:
REMARK  status: ('A' for Active; 'I' for Inactive)
REMARK    1  A    between atoms: C_1  and  O_2
REMARK    2  A    between atoms: O_2  and  C_3
REMARK    3  A    between atoms: C_6  and  C_7
REMARK    4  A    between atoms: C_7  and  N_8
REMARK    5  A    between atoms: N_8  and  C_9
REMARK    6  A    between atoms: C_9  and  C_10
REMARK    7  A    between atoms: C_13  and  C_14
REMARK    8  A    between atoms: C_14  and  N_15
REMARK    9  A    between atoms: C_16  and  C_18
REMARK   10  A    between atoms: C_31  and  O_32
REMARK                            x       y       z     vdW  Elec       q    Type
REMARK                         _______ _______ _______ _____ _____    ______ ____
ROOT
ATOM      1  C   UNL     1      48.917   8.325  16.558  0.00  0.00    +0.000 A 
ATOM      2  C   UNL     1      48.222   9.319  15.851  0.00  0.00    +0.000 A 
ATOM      3  C   UNL     1      47.889   9.141  14.504  0.00  0.00    +0.000 A 
ATOM      4  C   UNL     1      48.246   7.966  13.831  0.00  0.00    +0.000 A 
ATOM      5  C   UNL     1      48.976   6.991  14.523  0.00  0.00    +0.000 A 
ATOM      6  C   UNL     1      49.300   7.163  15.873  0.00  0.00    +0.000 A 
ENDROOT
BRANCH   1   7
ATOM      7  C   UNL     1      49.252   8.506  18.024  0.00  0.00    +0.000 C 
BRANCH   7   8
ATOM      8  N   UNL     1      48.071   8.304  18.860  0.00  0.00    +0.000 NA
ATOM      9  H   UNL     1      47.862   9.161  19.366  0.00  0.00    +0.000 HD
BRANCH   8  10
ATOM     10  C   UNL     1      48.250   7.224  19.828  0.00  0.00    +0.000 C 
BRANCH  10  14
ATOM     11  C   UNL     1      48.993   3.457  17.798  0.00  0.00    +0.000 A 
ATOM     12  C   UNL     1      50.052   4.181  18.351  0.00  0.00    +0.000 A 
ATOM     13  C   UNL     1      49.818   5.403  19.000  0.00  0.00    +0.000 A 
ATOM     14  C   UNL     1      48.521   5.921  19.107  0.00  0.00    +0.000 A 
ATOM     15  C   UNL     1      47.461   5.199  18.540  0.00  0.00    +0.000 A 
ATOM     16  C   UNL     1      47.698   3.982  17.900  0.00  0.00    +0.000 A 
BRANCH  11  18
ATOM     17  C   UNL     1      50.416   1.744  16.943  0.00  0.00    +0.000 C 
ATOM     18  O   UNL     1      49.108   2.252  17.157  0.00  0.00    +0.000 OA
ENDBRANCH  11  18
BRANCH  16  19
ATOM     19  O   UNL     1      46.646   3.284  17.367  0.00  0.00    +0.000 OA
ATOM     20  H   UNL     1      46.644   3.411  16.407  0.00  0.00    +0.000 HD
ENDBRANCH  16  19
ENDBRANCH  10  14
ENDBRANCH   8  10
ENDBRANCH   7   8
ENDBRANCH   1   7
BRANCH   4  21
ATOM     21  C   UNL     1      47.893   7.773  12.379  0.00  0.00    +0.000 C 
BRANCH  21  22
ATOM     22  N   UNL     1      47.142   6.557  12.185  0.00  0.00    +0.000 N 
ATOM     23  C   UNL     1      45.829   6.586  11.796  0.00  0.00    +0.000 C 
ATOM     24  O   UNL     1      45.245   7.637  11.549  0.00  0.00    +0.000 OA
ATOM     25  H   UNL     1      47.531   5.710  12.586  0.00  0.00    +0.000 HD
BRANCH  23  26
ATOM     26  C   UNL     1      45.167   5.284  11.626  0.00  0.00    +0.000 A 
ATOM     27  C   UNL     1      44.532   4.691  12.711  0.00  0.00    +0.000 A 
ATOM     28  S   UNL     1      43.772   3.213  12.336  0.00  0.00    +0.000 S 
ATOM     29  C   UNL     1      44.306   3.285  10.723  0.00  0.00    +0.000 A 
ATOM     30  N   UNL     1      44.012   2.288   9.845  0.00  0.00    +0.000 NA
ATOM     31  C   UNL     1      44.508   2.452   8.664  0.00  0.00    +0.000 A 
ATOM     32  N   UNL     1      45.268   3.527   8.280  0.00  0.00    +0.000 N 
ATOM     33  C   UNL     1      45.564   4.572   9.122  0.00  0.00    +0.000 A 
ATOM     34  O   UNL     1      46.211   5.539   8.733  0.00  0.00    +0.000 OA
ATOM     35  C   UNL     1      45.040   4.430  10.468  0.00  0.00    +0.000 A 
ATOM     36  H   UNL     1      45.620   3.601   7.337  0.00  0.00    +0.000 HD
ENDBRANCH  23  26
ENDBRANCH  21  22
ENDBRANCH   4  21
TORSDOF 9
ENDMDL
MODEL 6
REMARK VINA RESULT:    -6.922      1.889      3.043
REMARK INTER + INTRA:         -11.609
REMARK INTER:                 -11.554
REMARK INTRA:                  -0.054
REMARK UNBOUND:                -1.247
REMARK  Name = 
REMARK  10 active torsions:
REMARK  status: ('A' for Active; 'I' for Inactive)
REMARK    1  A    between atoms: C_1  and  O_2
REMARK    2  A    between atoms: O_2  and  C_3
REMARK    3  A    between atoms: C_6  and  C_7
REMARK    4  A    between atoms: C_7  and  N_8
REMARK    5  A    between atoms: N_8  and  C_9
REMARK    6  A    between atoms: C_9  and  C_10
REMARK    7  A    between atoms: C_13  and  C_14
REMARK    8  A    between atoms: C_14  and  N_15
REMARK    9  A    between atoms: C_16  and  C_18
REMARK   10  A    between atoms: C_31  and  O_32
REMARK                            x       y       z     vdW  Elec       q    Type
REMARK                         _______ _______ _______ _____ _____    ______ ____
ROOT
ATOM      1  C   UNL     1      46.176   5.333  12.077  0.00  0.00    +0.000 A 
ATOM      2  C   UNL     1      46.965   6.265  12.769  0.00  0.00    +0.000 A 
ATOM      3  C   UNL     1      47.463   5.979  14.044  0.00  0.00    +0.000 A 
ATOM      4  C   UNL     1      47.180   4.754  14.661  0.00  0.00    +0.000 A 
ATOM      5  C   UNL     1      46.359   3.838  13.990  0.00  0.00    +0.000 A 
ATOM      6  C   UNL     1      45.869   4.120  12.711  0.00  0.00    +0.000 A 
ENDROOT
BRANCH   1   7
ATOM      7  C   UNL     1      45.662   5.633  10.684  0.00  0.00    +0.000 C 
BRANCH   7   8
ATOM      8  N   UNL     1      44.222   5.406  10.598  0.00  0.00    +0.000 NA
ATOM      9  H   UNL     1      43.790   5.623  11.493  0.00  0.00    +0.000 HD
BRANCH   8  10
ATOM     10  C   UNL     1      43.894   4.026  10.247  0.00  0.00    +0.000 C 
BRANCH  10  14
ATOM     11  C   UNL     1      46.719   2.526   7.309  0.00  0.00    +0.000 A 
ATOM     12  C   UNL     1      46.412   3.888   7.360  0.00  0.00    +0.000 A 
ATOM     13  C   UNL     1      45.494   4.376   8.302  0.00  0.00    +0.000 A 
ATOM     14  C   UNL     1      44.867   3.511   9.208  0.00  0.00    +0.000 A 
ATOM     15  C   UNL     1      45.167   2.142   9.146  0.00  0.00    +0.000 A 
ATOM     16  C   UNL     1      46.085   1.662   8.210  0.00  0.00    +0.000 A 
BRANCH  11  18
ATOM     17  C   UNL     1      47.704   2.497   5.136  0.00  0.00    +0.000 C 
ATOM     18  O   UNL     1      47.608   1.948   6.442  0.00  0.00    +0.000 OA
ENDBRANCH  11  18
BRANCH  16  19
ATOM     19  O   UNL     1      46.377   0.324   8.178  0.00  0.00    +0.000 OA
ATOM     20  H   UNL     1      46.869   0.094   8.980  0.00  0.00    +0.000 HD
ENDBRANCH  16  19
ENDBRANCH  10  14
ENDBRANCH   8  10
ENDBRANCH   7   8
ENDBRANCH   1   7
BRANCH   4  21
ATOM     21  C   UNL     1      47.711   4.443  16.036  0.00  0.00    +0.000 C 
BRANCH  21  22
ATOM     22  N   UNL     1      47.492   5.546  16.939  0.00  0.00    +0.000 N 
ATOM     23  C   UNL     1      48.476   5.974  17.791  0.00  0.00    +0.000 C 
ATOM     24  O   UNL     1      49.597   5.476  17.795  0.00  0.00    +0.000 OA
ATOM     25  H   UNL     1      46.529   5.819  17.103  0.00  0.00    +0.000 HD
BRANCH  23  26
ATOM     26  C   UNL     1      48.139   7.109  18.664  0.00  0.00    +0.000 A 
ATOM     27  C   UNL     1      47.921   6.891  20.018  0.00  0.00    +0.000 A 
ATOM     28  S   UNL     1      47.591   8.313  20.898  0.00  0.00    +0.000 S 
ATOM     29  C   UNL     1      47.677   9.267  19.492  0.00  0.00    +0.000 A 
ATOM     30  N   UNL     1      47.461  10.608  19.544  0.00  0.00    +0.000 NA
ATOM     31  C   UNL     1      47.522  11.205  18.400  0.00  0.00    +0.000 A 
ATOM     32  N   UNL     1      47.784  10.580  17.208  0.00  0.00    +0.000 N 
ATOM     33  C   UNL     1      48.039   9.233  17.111  0.00  0.00    +0.000 A 
ATOM     34  O   UNL     1      48.313   8.714  16.033  0.00  0.00    +0.000 OA
ATOM     35  C   UNL     1      47.970   8.513  18.369  0.00  0.00    +0.000 A 
ATOM     36  H   UNL     1      47.826  11.105  16.347  0.00  0.00    +0.000 HD
ENDBRANCH  23  26
ENDBRANCH  21  22
ENDBRANCH   4  21
TORSDOF 9
ENDMDL
MODEL 7
REMARK VINA RESULT:    -6.666      3.693      8.913
REMARK INTER + INTRA:         -11.225
REMARK INTER:                  -9.889
REMARK INTRA:                  -1.336
REMARK UNBOUND:                -1.247
REMARK  Name = 
REMARK  10 active torsions:
REMARK  status: ('A' for Active; 'I' for Inactive)
REMARK    1  A    between atoms: C_1  and  O_2
REMARK    2  A    between atoms: O_2  and  C_3
REMARK    3  A    between atoms: C_6  and  C_7
REMARK    4  A    between atoms: C_7  and  N_8
REMARK    5  A    between atoms: N_8  and  C_9
REMARK    6  A    between atoms: C_9  and  C_10
REMARK    7  A    between atoms: C_13  and  C_14
REMARK    8  A    between atoms: C_14  and  N_15
REMARK    9  A    between atoms: C_16  and  C_18
REMARK   10  A    between atoms: C_31  and  O_32
REMARK                            x       y       z     vdW  Elec       q    Type
REMARK                         _______ _______ _______ _____ _____    ______ ____
ROOT
ATOM      1  C   UNL     1      49.152   8.705  18.093  0.00  0.00    +0.000 A 
ATOM      2  C   UNL     1      50.182   7.815  17.753  0.00  0.00    +0.000 A 
ATOM      3  C   UNL     1      50.395   7.438  16.423  0.00  0.00    +0.000 A 
ATOM      4  C   UNL     1      49.579   7.940  15.402  0.00  0.00    +0.000 A 
ATOM      5  C   UNL     1      48.524   8.796  15.743  0.00  0.00    +0.000 A 
ATOM      6  C   UNL     1      48.318   9.181  17.072  0.00  0.00    +0.000 A 
ENDROOT
BRANCH   1   7
ATOM      7  C   UNL     1      48.942   9.135  19.531  0.00  0.00    +0.000 C 
BRANCH   7   8
ATOM      8  N   UNL     1      47.581   8.840  19.971  0.00  0.00    +0.000 NA
ATOM      9  H   UNL     1      47.195   9.651  20.450  0.00  0.00    +0.000 HD
BRANCH   8  10
ATOM     10  C   UNL     1      47.523   7.695  20.877  0.00  0.00    +0.000 C 
BRANCH  10  14
ATOM     11  C   UNL     1      48.441   4.028  18.738  0.00  0.00    +0.000 A 
ATOM     12  C   UNL     1      49.172   4.384  19.873  0.00  0.00    +0.000 A 
ATOM     13  C   UNL     1      48.885   5.572  20.563  0.00  0.00    +0.000 A 
ATOM     14  C   UNL     1      47.862   6.423  20.128  0.00  0.00    +0.000 A 
ATOM     15  C   UNL     1      47.137   6.071  18.980  0.00  0.00    +0.000 A 
ATOM     16  C   UNL     1      47.423   4.885  18.301  0.00  0.00    +0.000 A 
BRANCH  11  18
ATOM     17  C   UNL     1      49.879   2.725  17.350  0.00  0.00    +0.000 C 
ATOM     18  O   UNL     1      48.628   2.889  18.001  0.00  0.00    +0.000 OA
ENDBRANCH  11  18
BRANCH  16  19
ATOM     19  O   UNL     1      46.692   4.551  17.192  0.00  0.00    +0.000 OA
ATOM     20  H   UNL     1      47.280   4.126  16.549  0.00  0.00    +0.000 HD
ENDBRANCH  16  19
ENDBRANCH  10  14
ENDBRANCH   8  10
ENDBRANCH   7   8
ENDBRANCH   1   7
BRANCH   4  21
ATOM     21  C   UNL     1      49.802   7.533  13.968  0.00  0.00    +0.000 C 
BRANCH  21  22
ATOM     22  N   UNL     1      48.549   7.289  13.297  0.00  0.00    +0.000 N 
ATOM     23  C   UNL     1      47.757   6.223  13.633  0.00  0.00    +0.000 C 
ATOM     24  O   UNL     1      48.048   5.456  14.546  0.00  0.00    +0.000 OA
ATOM     25  H   UNL     1      48.402   7.768  12.415  0.00  0.00    +0.000 HD
BRANCH  23  26
ATOM     26  C   UNL     1      46.501   6.076  12.881  0.00  0.00    +0.000 A 
ATOM     27  C   UNL     1      45.889   7.201  12.344  0.00  0.00    +0.000 A 
ATOM     28  S   UNL     1      44.472   6.855  11.462  0.00  0.00    +0.000 S 
ATOM     29  C   UNL     1      44.598   5.194  11.808  0.00  0.00    +0.000 A 
ATOM     30  N   UNL     1      43.663   4.315  11.357  0.00  0.00    +0.000 NA
ATOM     31  C   UNL     1      43.860   3.091  11.721  0.00  0.00    +0.000 A 
ATOM     32  N   UNL     1      44.912   2.668  12.492  0.00  0.00    +0.000 N 
ATOM     33  C   UNL     1      45.897   3.514  12.943  0.00  0.00    +0.000 A 
ATOM     34  O   UNL     1      46.847   3.093  13.595  0.00  0.00    +0.000 OA
ATOM     35  C   UNL     1      45.715   4.905  12.572  0.00  0.00    +0.000 A 
ATOM     36  H   UNL     1      45.015   1.694  12.736  0.00  0.00    +0.000 HD
ENDBRANCH  23  26
ENDBRANCH  21  22
ENDBRANCH   4  21
TORSDOF 9
ENDMDL
MODEL 8
REMARK VINA RESULT:    -6.519      2.838      3.826
REMARK INTER + INTRA:         -11.006
REMARK INTER:                  -9.948
REMARK INTRA:                  -1.057
REMARK UNBOUND:                -1.247
REMARK  Name = 
REMARK  10 active torsions:
REMARK  status: ('A' for Active; 'I' for Inactive)
REMARK    1  A    between atoms: C_1  and  O_2
REMARK    2  A    between atoms: O_2  and  C_3
REMARK    3  A    between atoms: C_6  and  C_7
REMARK    4  A    between atoms: C_7  and  N_8
REMARK    5  A    between atoms: N_8  and  C_9
REMARK    6  A    between atoms: C_9  and  C_10
REMARK    7  A    between atoms: C_13  and  C_14
REMARK    8  A    between atoms: C_14  and  N_15
REMARK    9  A    between atoms: C_16  and  C_18
REMARK   10  A    between atoms: C_31  and  O_32
REMARK                            x       y       z     vdW  Elec       q    Type
REMARK                         _______ _______ _______ _____ _____    ______ ____
ROOT
ATOM      1  C   UNL     1      47.690   7.165  12.819  0.00  0.00    +0.000 A 
ATOM      2  C   UNL     1      47.634   6.741  14.156  0.00  0.00    +0.000 A 
ATOM      3  C   UNL     1      48.718   6.939  15.018  0.00  0.00    +0.000 A 
ATOM      4  C   UNL     1      49.886   7.561  14.562  0.00  0.00    +0.000 A 
ATOM      5  C   UNL     1      49.960   7.947  13.217  0.00  0.00    +0.000 A 
ATOM      6  C   UNL     1      48.873   7.759  12.358  0.00  0.00    +0.000 A 
ENDROOT
BRANCH   1   7
ATOM      7  C   UNL     1      46.504   6.976  11.895  0.00  0.00    +0.000 C 
BRANCH   7   8
ATOM      8  N   UNL     1      45.952   5.631  12.021  0.00  0.00    +0.000 NA
ATOM      9  H   UNL     1      46.673   4.945  11.806  0.00  0.00    +0.000 HD
BRANCH   8  10
ATOM     10  C   UNL     1      44.817   5.407  11.129  0.00  0.00    +0.000 C 
BRANCH  10  14
ATOM     11  C   UNL     1      45.872   2.608   7.980  0.00  0.00    +0.000 A 
ATOM     12  C   UNL     1      45.222   2.161   9.132  0.00  0.00    +0.000 A 
ATOM     13  C   UNL     1      44.886   3.060  10.156  0.00  0.00    +0.000 A 
ATOM     14  C   UNL     1      45.196   4.421  10.045  0.00  0.00    +0.000 A 
ATOM     15  C   UNL     1      45.861   4.866   8.892  0.00  0.00    +0.000 A 
ATOM     16  C   UNL     1      46.187   3.969   7.875  0.00  0.00    +0.000 A 
BRANCH  11  18
ATOM     17  C   UNL     1      47.163   0.778   7.159  0.00  0.00    +0.000 C 
ATOM     18  O   UNL     1      46.231   1.821   6.918  0.00  0.00    +0.000 OA
ENDBRANCH  11  18
BRANCH  16  19
ATOM     19  O   UNL     1      46.821   4.427   6.750  0.00  0.00    +0.000 OA
ATOM     20  H   UNL     1      46.162   4.550   6.050  0.00  0.00    +0.000 HD
ENDBRANCH  16  19
ENDBRANCH  10  14
ENDBRANCH   8  10
ENDBRANCH   7   8
ENDBRANCH   1   7
BRANCH   4  21
ATOM     21  C   UNL     1      51.058   7.771  15.485  0.00  0.00    +0.000 C 
BRANCH  21  22
ATOM     22  N   UNL     1      51.623   6.512  15.902  0.00  0.00    +0.000 N 
ATOM     23  C   UNL     1      52.036   6.310  17.193  0.00  0.00    +0.000 C 
ATOM     24  O   UNL     1      51.902   7.166  18.063  0.00  0.00    +0.000 OA
ATOM     25  H   UNL     1      51.938   5.886  15.169  0.00  0.00    +0.000 HD
BRANCH  23  26
ATOM     26  C   UNL     1      52.594   4.985  17.504  0.00  0.00    +0.000 A 
ATOM     27  C   UNL     1      53.947   4.862  17.793  0.00  0.00    +0.000 A 
ATOM     28  S   UNL     1      54.424   3.272  18.179  0.00  0.00    +0.000 S 
ATOM     29  C   UNL     1      52.849   2.680  17.924  0.00  0.00    +0.000 A 
ATOM     30  N   UNL     1      52.570   1.357  18.067  0.00  0.00    +0.000 NA
ATOM     31  C   UNL     1      51.344   1.039  17.810  0.00  0.00    +0.000 A 
ATOM     32  N   UNL     1      50.372   1.927  17.427  0.00  0.00    +0.000 N 
ATOM     33  C   UNL     1      50.600   3.276  17.300  0.00  0.00    +0.000 A 
ATOM     34  O   UNL     1      49.697   4.048  16.997  0.00  0.00    +0.000 OA
ATOM     35  C   UNL     1      51.967   3.685  17.566  0.00  0.00    +0.000 A 
ATOM     36  H   UNL     1      49.429   1.616  17.247  0.00  0.00    +0.000 HD
ENDBRANCH  23  26
ENDBRANCH  21  22
ENDBRANCH   4  21
TORSDOF 9
ENDMDL
MODEL 9
REMARK VINA RESULT:    -6.492      5.464      7.816
REMARK INTER + INTRA:         -10.965
REMARK INTER:                  -9.730
REMARK INTRA:                  -1.235
REMARK UNBOUND:                -1.247
REMARK  Name = 
REMARK  10 active torsions:
REMARK  status: ('A' for Active; 'I' for Inactive)
REMARK    1  A    between atoms: C_1  and  O_2
REMARK    2  A    between atoms: O_2  and  C_3
REMARK    3  A    between atoms: C_6  and  C_7
REMARK    4  A    between atoms: C_7  and  N_8
REMARK    5  A    between atoms: N_8  and  C_9
REMARK    6  A    between atoms: C_9  and  C_10
REMARK    7  A    between atoms: C_13  and  C_14
REMARK    8  A    between atoms: C_14  and  N_15
REMARK    9  A    between atoms: C_16  and  C_18
REMARK   10  A    between atoms: C_31  and  O_32
REMARK                            x       y       z     vdW  Elec       q    Type
REMARK                         _______ _______ _______ _____ _____    ______ ____
ROOT
ATOM      1  C   UNL     1      47.175   8.428  12.923  0.00  0.00    +0.000 A 
ATOM      2  C   UNL     1      48.082   8.737  13.949  0.00  0.00    +0.000 A 
ATOM      3  C   UNL     1      49.462   8.633  13.743  0.00  0.00    +0.000 A 
ATOM      4  C   UNL     1      49.967   8.212  12.507  0.00  0.00    +0.000 A 
ATOM      5  C   UNL     1      49.064   7.863  11.495  0.00  0.00    +0.000 A 
ATOM      6  C   UNL     1      47.685   7.978  11.697  0.00  0.00    +0.000 A 
ENDROOT
BRANCH   1   7
ATOM      7  C   UNL     1      45.683   8.570  13.138  0.00  0.00    +0.000 C 
BRANCH   7   8
ATOM      8  N   UNL     1      44.943   7.615  12.318  0.00  0.00    +0.000 NA
ATOM      9  H   UNL     1      43.990   7.947  12.185  0.00  0.00    +0.000 HD
BRANCH   8  10
ATOM     10  C   UNL     1      44.890   6.285  12.920  0.00  0.00    +0.000 C 
BRANCH  10  14
ATOM     11  C   UNL     1      44.692   3.286   9.785  0.00  0.00    +0.000 A 
ATOM     12  C   UNL     1      44.292   2.973  11.086  0.00  0.00    +0.000 A 
ATOM     13  C   UNL     1      44.362   3.936  12.104  0.00  0.00    +0.000 A 
ATOM     14  C   UNL     1      44.834   5.227  11.838  0.00  0.00    +0.000 A 
ATOM     15  C   UNL     1      45.247   5.536  10.533  0.00  0.00    +0.000 A 
ATOM     16  C   UNL     1      45.171   4.576   9.523  0.00  0.00    +0.000 A 
BRANCH  11  18
ATOM     17  C   UNL     1      45.777   1.590   8.505  0.00  0.00    +0.000 C 
ATOM     18  O   UNL     1      44.651   2.429   8.717  0.00  0.00    +0.000 OA
ENDBRANCH  11  18
BRANCH  16  19
ATOM     19  O   UNL     1      45.564   4.902   8.252  0.00  0.00    +0.000 OA
ATOM     20  H   UNL     1      46.296   5.535   8.306  0.00  0.00    +0.000 HD
ENDBRANCH  16  19
ENDBRANCH  10  14
ENDBRANCH   8  10
ENDBRANCH   7   8
ENDBRANCH   1   7
BRANCH   4  21
ATOM     21  C   UNL     1      51.452   8.094  12.282  0.00  0.00    +0.000 C 
BRANCH  21  22
ATOM     22  N   UNL     1      51.747   7.798  10.902  0.00  0.00    +0.000 N 
ATOM     23  C   UNL     1      52.641   8.552  10.188  0.00  0.00    +0.000 C 
ATOM     24  O   UNL     1      53.266   9.478  10.696  0.00  0.00    +0.000 OA
ATOM     25  H   UNL     1      51.095   7.193  10.415  0.00  0.00    +0.000 HD
BRANCH  23  26
ATOM     26  C   UNL     1      52.864   8.155   8.789  0.00  0.00    +0.000 A 
ATOM     27  C   UNL     1      52.697   9.090   7.777  0.00  0.00    +0.000 A 
ATOM     28  S   UNL     1      53.041   8.485   6.221  0.00  0.00    +0.000 S 
ATOM     29  C   UNL     1      53.377   6.936   6.839  0.00  0.00    +0.000 A 
ATOM     30  N   UNL     1      53.720   5.914   6.010  0.00  0.00    +0.000 NA
ATOM     31  C   UNL     1      53.915   4.784   6.606  0.00  0.00    +0.000 A 
ATOM     32  N   UNL     1      53.799   4.587   7.958  0.00  0.00    +0.000 N 
ATOM     33  C   UNL     1      53.486   5.596   8.837  0.00  0.00    +0.000 A 
ATOM     34  O   UNL     1      53.433   5.393  10.046  0.00  0.00    +0.000 OA
ATOM     35  C   UNL     1      53.245   6.885   8.215  0.00  0.00    +0.000 A 
ATOM     36  H   UNL     1      53.972   3.680   8.365  0.00  0.00    +0.000 HD
ENDBRANCH  23  26
ENDBRANCH  21  22
ENDBRANCH   4  21
TORSDOF 9
ENDMDL
