MODEL 1
REMARK VINA RESULT:    -7.561      0.000      0.000
REMARK INTER + INTRA:         -10.593
REMARK INTER:                  -9.992
REMARK INTRA:                  -0.600
REMARK UNBOUND:                -0.600
REMARK  Name = 
REMARK  6 active torsions:
REMARK  status: ('A' for Active; 'I' for Inactive)
REMARK    1  A    between atoms: N_1  and  C_2
REMARK    2  A    between atoms: C_2  and  C_3
REMARK    3  A    between atoms: C_6  and  O_7
REMARK    4  A    between atoms: O_7  and  C_8
REMARK    5  A    between atoms: C_8  and  C_9
REMARK    6  A    between atoms: C_12  and  C_13
REMARK                            x       y       z     vdW  Elec       q    Type
REMARK                         _______ _______ _______ _____ _____    ______ ____
ROOT
ATOM      1  O   UNL     1      43.639   4.260   9.896  0.00  0.00    +0.000 OA
ENDROOT
BRANCH   1   5
ATOM      2  C   UNL     1      46.552   2.254   7.655  0.00  0.00    +0.000 A 
ATOM      3  C   UNL     1      45.735   1.519   8.523  0.00  0.00    +0.000 A 
ATOM      4  C   UNL     1      44.746   2.148   9.287  0.00  0.00    +0.000 A 
ATOM      5  C   UNL     1      44.559   3.528   9.196  0.00  0.00    +0.000 A 
ATOM      6  C   UNL     1      45.366   4.264   8.327  0.00  0.00    +0.000 A 
ATOM      7  C   UNL     1      46.355   3.636   7.560  0.00  0.00    +0.000 A 
BRANCH   2   8
ATOM      8  C   UNL     1      47.634   1.565   6.863  0.00  0.00    +0.000 C 
BRANCH   8   9
ATOM      9  N   UNL     1      48.592   2.518   6.317  0.00  0.00    +0.000 NA
ATOM     10  H   UNL     1      49.536   2.209   6.538  0.00  0.00    +0.000 HD
ATOM     11  H   UNL     1      48.464   3.414   6.786  0.00  0.00    +0.000 HD
ENDBRANCH   8   9
ENDBRANCH   2   8
ENDBRANCH   1   5
BRANCH   1  12
ATOM     12  C   UNL     1      43.581   4.024  11.306  0.00  0.00    +0.000 C 
BRANCH  12  13
ATOM     13  C   UNL     1      44.704   4.753  12.011  0.00  0.00    +0.000 A 
ATOM     14  C   UNL     1      45.087   6.025  11.592  0.00  0.00    +0.000 A 
ATOM     15  C   UNL     1      46.159   6.650  12.227  0.00  0.00    +0.000 A 
ATOM     16  C   UNL     1      46.823   6.001  13.268  0.00  0.00    +0.000 A 
ATOM     17  C   UNL     1      46.377   4.736  13.620  0.00  0.00    +0.000 A 
ATOM     18  N   UNL     1      45.346   4.102  13.015  0.00  0.00    +0.000 NA
BRANCH  16  19
ATOM     19  C   UNL     1      47.979   6.609  13.999  0.00  0.00    +0.000 C 
ATOM     20  F   UNL     1      48.265   5.986  15.176  0.00  0.00    +0.000 F 
ATOM     21  F   UNL     1      49.130   6.581  13.274  0.00  0.00    +0.000 F 
ATOM     22  F   UNL     1      47.769   7.917  14.315  0.00  0.00    +0.000 F 
ENDBRANCH  16  19
ENDBRANCH  12  13
ENDBRANCH   1  12
TORSDOF 6
ENDMDL
MODEL 2
REMARK VINA RESULT:    -7.495      3.788      6.579
REMARK INTER + INTRA:         -10.506
REMARK INTER:                  -9.931
REMARK INTRA:                  -0.575
REMARK UNBOUND:                -0.600
REMARK  Name = 
REMARK  6 active torsions:
REMARK  status: ('A' for Active; 'I' for Inactive)
REMARK    1  A    between atoms: N_1  and  C_2
REMARK    2  A    between atoms: C_2  and  C_3
REMARK    3  A    between atoms: C_6  and  O_7
REMARK    4  A    between atoms: O_7  and  C_8
REMARK    5  A    between atoms: C_8  and  C_9
REMARK    6  A    between atoms: C_12  and  C_13
REMARK                            x       y       z     vdW  Elec       q    Type
REMARK                         _______ _______ _______ _____ _____    ______ ____
ROOT
ATOM      1  O   UNL     1      44.119   4.332  11.777  0.00  0.00    +0.000 OA
ENDROOT
BRANCH   1   5
ATOM      2  C   UNL     1      47.430   6.312  13.406  0.00  0.00    +0.000 A 
ATOM      3  C   UNL     1      46.682   6.946  12.407  0.00  0.00    +0.000 A 
ATOM      4  C   UNL     1      45.565   6.324  11.838  0.00  0.00    +0.000 A 
ATOM      5  C   UNL     1      45.180   5.051  12.260  0.00  0.00    +0.000 A 
ATOM      6  C   UNL     1      45.918   4.417  13.262  0.00  0.00    +0.000 A 
ATOM      7  C   UNL     1      47.034   5.039  13.833  0.00  0.00    +0.000 A 
BRANCH   2   8
ATOM      8  C   UNL     1      48.649   6.984  13.985  0.00  0.00    +0.000 C 
BRANCH   8   9
ATOM      9  N   UNL     1      49.774   6.950  13.057  0.00  0.00    +0.000 NA
ATOM     10  H   UNL     1      49.664   6.160  12.426  0.00  0.00    +0.000 HD
ATOM     11  H   UNL     1      50.628   6.781  13.587  0.00  0.00    +0.000 HD
ENDBRANCH   8   9
ENDBRANCH   2   8
ENDBRANCH   1   5
BRANCH   1  12
ATOM     12  C   UNL     1      43.713   4.626  10.437  0.00  0.00    +0.000 C 
BRANCH  12  13
ATOM     13  C   UNL     1      44.573   3.871   9.446  0.00  0.00    +0.000 A 
ATOM     14  C   UNL     1      44.682   2.484   9.525  0.00  0.00    +0.000 A 
ATOM     15  C   UNL     1      45.522   1.822   8.632  0.00  0.00    +0.000 A 
ATOM     16  C   UNL     1      46.230   2.550   7.675  0.00  0.00    +0.000 A 
ATOM     17  C   UNL     1      46.063   3.927   7.668  0.00  0.00    +0.000 A 
ATOM     18  N   UNL     1      45.262   4.596   8.529  0.00  0.00    +0.000 NA
BRANCH  16  19
ATOM     19  C   UNL     1      47.147   1.909   6.681  0.00  0.00    +0.000 C 
ATOM     20  F   UNL     1      46.980   0.561   6.579  0.00  0.00    +0.000 F 
ATOM     21  F   UNL     1      46.980   2.400   5.422  0.00  0.00    +0.000 F 
ATOM     22  F   UNL     1      48.461   2.097   6.983  0.00  0.00    +0.000 F 
ENDBRANCH  16  19
ENDBRANCH  12  13
ENDBRANCH   1  12
TORSDOF 6
ENDMDL
MODEL 3
REMARK VINA RESULT:    -7.000      1.490      2.250
REMARK INTER + INTRA:          -9.851
REMARK INTER:                  -9.358
REMARK INTRA:                  -0.493
REMARK UNBOUND:                -0.600
REMARK  Name = 
REMARK  6 active torsions:
REMARK  status: ('A' for Active; 'I' for Inactive)
REMARK    1  A    between atoms: N_1  and  C_2
REMARK    2  A    between atoms: C_2  and  C_3
REMARK    3  A    between atoms: C_6  and  O_7
REMARK    4  A    between atoms: O_7  and  C_8
REMARK    5  A    between atoms: C_8  and  C_9
REMARK    6  A    between atoms: C_12  and  C_13
REMARK                            x       y       z     vdW  Elec       q    Type
REMARK                         _______ _______ _______ _____ _____    ______ ____
ROOT
ATOM      1  O   UNL     1      44.527   4.963  10.185  0.00  0.00    +0.000 OA
ENDROOT
BRANCH   1   5
ATOM      2  C   UNL     1      46.449   2.313   7.573  0.00  0.00    +0.000 A 
ATOM      3  C   UNL     1      46.596   3.692   7.374  0.00  0.00    +0.000 A 
ATOM      4  C   UNL     1      45.975   4.613   8.226  0.00  0.00    +0.000 A 
ATOM      5  C   UNL     1      45.194   4.167   9.292  0.00  0.00    +0.000 A 
ATOM      6  C   UNL     1      45.050   2.794   9.499  0.00  0.00    +0.000 A 
ATOM      7  C   UNL     1      45.672   1.872   8.649  0.00  0.00    +0.000 A 
BRANCH   2   8
ATOM      8  C   UNL     1      47.098   1.336   6.627  0.00  0.00    +0.000 C 
BRANCH   8   9
ATOM      9  N   UNL     1      48.412   1.798   6.194  0.00  0.00    +0.000 NA
ATOM     10  H   UNL     1      49.074   1.689   6.958  0.00  0.00    +0.000 HD
ATOM     11  H   UNL     1      48.359   2.797   5.998  0.00  0.00    +0.000 HD
ENDBRANCH   8   9
ENDBRANCH   2   8
ENDBRANCH   1   5
BRANCH   1  12
ATOM     12  C   UNL     1      45.276   6.037  10.759  0.00  0.00    +0.000 C 
BRANCH  12  13
ATOM     13  C   UNL     1      45.870   5.619  12.087  0.00  0.00    +0.000 A 
ATOM     14  C   UNL     1      46.979   6.287  12.601  0.00  0.00    +0.000 A 
ATOM     15  C   UNL     1      47.536   5.847  13.800  0.00  0.00    +0.000 A 
ATOM     16  C   UNL     1      46.976   4.756  14.466  0.00  0.00    +0.000 A 
ATOM     17  C   UNL     1      45.874   4.149  13.883  0.00  0.00    +0.000 A 
ATOM     18  N   UNL     1      45.319   4.550  12.715  0.00  0.00    +0.000 NA
BRANCH  16  19
ATOM     19  C   UNL     1      47.515   4.228  15.758  0.00  0.00    +0.000 C 
ATOM     20  F   UNL     1      46.632   4.315  16.791  0.00  0.00    +0.000 F 
ATOM     21  F   UNL     1      47.868   2.916  15.681  0.00  0.00    +0.000 F 
ATOM     22  F   UNL     1      48.631   4.891  16.170  0.00  0.00    +0.000 F 
ENDBRANCH  16  19
ENDBRANCH  12  13
ENDBRANCH   1  12
TORSDOF 6
ENDMDL
MODEL 4
REMARK VINA RESULT:    -5.960      4.599      8.004
REMARK INTER + INTRA:          -8.477
REMARK INTER:                  -8.146
REMARK INTRA:                  -0.331
REMARK UNBOUND:                -0.600
REMARK  Name = 
REMARK  6 active torsions:
REMARK  status: ('A' for Active; 'I' for Inactive)
REMARK    1  A    between atoms: N_1  and  C_2
REMARK    2  A    between atoms: C_2  and  C_3
REMARK    3  A    between atoms: C_6  and  O_7
REMARK    4  A    between atoms: O_7  and  C_8
REMARK    5  A    between atoms: C_8  and  C_9
REMARK    6  A    between atoms: C_12  and  C_13
REMARK                            x       y       z     vdW  Elec       q    Type
REMARK                         _______ _______ _______ _____ _____    ______ ____
ROOT
ATOM      1  O   UNL     1      46.911   3.877  14.739  0.00  0.00    +0.000 OA
ENDROOT
BRANCH   1   5
ATOM      2  C   UNL     1      48.595   4.510  18.520  0.00  0.00    +0.000 A 
ATOM      3  C   UNL     1      48.703   5.515  17.550  0.00  0.00    +0.000 A 
ATOM      4  C   UNL     1      48.150   5.347  16.275  0.00  0.00    +0.000 A 
ATOM      5  C   UNL     1      47.481   4.167  15.949  0.00  0.00    +0.000 A 
ATOM      6  C   UNL     1      47.365   3.166  16.915  0.00  0.00    +0.000 A 
ATOM      7  C   UNL     1      47.915   3.333  18.191  0.00  0.00    +0.000 A 
BRANCH   2   8
ATOM      8  C   UNL     1      49.224   4.695  19.878  0.00  0.00    +0.000 C 
BRANCH   8   9
ATOM      9  N   UNL     1      48.509   3.950  20.907  0.00  0.00    +0.000 NA
ATOM     10  H   UNL     1      48.945   3.039  21.026  0.00  0.00    +0.000 HD
ATOM     11  H   UNL     1      47.559   3.776  20.584  0.00  0.00    +0.000 HD
ENDBRANCH   8   9
ENDBRANCH   2   8
ENDBRANCH   1   5
BRANCH   1  12
ATOM     12  C   UNL     1      46.089   4.898  14.165  0.00  0.00    +0.000 C 
BRANCH  12  13
ATOM     13  C   UNL     1      45.774   4.573  12.720  0.00  0.00    +0.000 A 
ATOM     14  C   UNL     1      45.868   5.561  11.742  0.00  0.00    +0.000 A 
ATOM     15  C   UNL     1      45.521   5.246  10.430  0.00  0.00    +0.000 A 
ATOM     16  C   UNL     1      45.094   3.955  10.116  0.00  0.00    +0.000 A 
ATOM     17  C   UNL     1      45.028   3.034  11.151  0.00  0.00    +0.000 A 
ATOM     18  N   UNL     1      45.349   3.315  12.434  0.00  0.00    +0.000 NA
BRANCH  16  19
ATOM     19  C   UNL     1      44.708   3.542   8.730  0.00  0.00    +0.000 C 
ATOM     20  F   UNL     1      44.158   2.297   8.668  0.00  0.00    +0.000 F 
ATOM     21  F   UNL     1      43.794   4.380   8.169  0.00  0.00    +0.000 F 
ATOM     22  F   UNL     1      45.768   3.520   7.875  0.00  0.00    +0.000 F 
ENDBRANCH  16  19
ENDBRANCH  12  13
ENDBRANCH   1  12
TORSDOF 6
ENDMDL
MODEL 5
REMARK VINA RESULT:    -5.724      4.840      6.786
REMARK INTER + INTRA:          -8.164
REMARK INTER:                  -7.747
REMARK INTRA:                  -0.418
REMARK UNBOUND:                -0.600
REMARK  Name = 
REMARK  6 active torsions:
REMARK  status: ('A' for Active; 'I' for Inactive)
REMARK    1  A    between atoms: N_1  and  C_2
REMARK    2  A    between atoms: C_2  and  C_3
REMARK    3  A    between atoms: C_6  and  O_7
REMARK    4  A    between atoms: O_7  and  C_8
REMARK    5  A    between atoms: C_8  and  C_9
REMARK    6  A    between atoms: C_12  and  C_13
REMARK                            x       y       z     vdW  Elec       q    Type
REMARK                         _______ _______ _______ _____ _____    ______ ____
ROOT
ATOM      1  O   UNL     1      47.515   3.008  14.688  0.00  0.00    +0.000 OA
ENDROOT
BRANCH   1   5
ATOM      2  C   UNL     1      45.770   5.773  12.070  0.00  0.00    +0.000 A 
ATOM      3  C   UNL     1      45.412   4.423  11.972  0.00  0.00    +0.000 A 
ATOM      4  C   UNL     1      45.966   3.466  12.829  0.00  0.00    +0.000 A 
ATOM      5  C   UNL     1      46.893   3.846  13.801  0.00  0.00    +0.000 A 
ATOM      6  C   UNL     1      47.248   5.192  13.908  0.00  0.00    +0.000 A 
ATOM      7  C   UNL     1      46.693   6.151  13.053  0.00  0.00    +0.000 A 
BRANCH   2   8
ATOM      8  C   UNL     1      45.187   6.785  11.118  0.00  0.00    +0.000 C 
BRANCH   8   9
ATOM      9  N   UNL     1      43.822   7.144  11.483  0.00  0.00    +0.000 NA
ATOM     10  H   UNL     1      43.832   7.646  12.368  0.00  0.00    +0.000 HD
ATOM     11  H   UNL     1      43.291   6.288  11.642  0.00  0.00    +0.000 HD
ENDBRANCH   8   9
ENDBRANCH   2   8
ENDBRANCH   1   5
BRANCH   1  12
ATOM     12  C   UNL     1      47.567   3.451  16.047  0.00  0.00    +0.000 C 
BRANCH  12  13
ATOM     13  C   UNL     1      48.921   3.145  16.651  0.00  0.00    +0.000 A 
ATOM     14  C   UNL     1      49.570   4.097  17.436  0.00  0.00    +0.000 A 
ATOM     15  C   UNL     1      50.838   3.808  17.935  0.00  0.00    +0.000 A 
ATOM     16  C   UNL     1      51.433   2.578  17.650  0.00  0.00    +0.000 A 
ATOM     17  C   UNL     1      50.717   1.690  16.860  0.00  0.00    +0.000 A 
ATOM     18  N   UNL     1      49.489   1.949  16.354  0.00  0.00    +0.000 NA
BRANCH  16  19
ATOM     19  C   UNL     1      52.789   2.194  18.154  0.00  0.00    +0.000 C 
ATOM     20  F   UNL     1      53.804   2.597  17.339  0.00  0.00    +0.000 F 
ATOM     21  F   UNL     1      53.062   2.724  19.377  0.00  0.00    +0.000 F 
ATOM     22  F   UNL     1      52.936   0.847  18.289  0.00  0.00    +0.000 F 
ENDBRANCH  16  19
ENDBRANCH  12  13
ENDBRANCH   1  12
TORSDOF 6
ENDMDL
MODEL 6
REMARK VINA RESULT:    -5.612      4.880      7.529
REMARK INTER + INTRA:          -8.017
REMARK INTER:                  -7.586
REMARK INTRA:                  -0.432
REMARK UNBOUND:                -0.600
REMARK  Name = 
REMARK  6 active torsions:
REMARK  status: ('A' for Active; 'I' for Inactive)
REMARK    1  A    between atoms: N_1  and  C_2
REMARK    2  A    between atoms: C_2  and  C_3
REMARK    3  A    between atoms: C_6  and  O_7
REMARK    4  A    between atoms: O_7  and  C_8
REMARK    5  A    between atoms: C_8  and  C_9
REMARK    6  A    between atoms: C_12  and  C_13
REMARK                            x       y       z     vdW  Elec       q    Type
REMARK                         _______ _______ _______ _____ _____    ______ ____
ROOT
ATOM      1  O   UNL     1      47.188   4.365  16.038  0.00  0.00    +0.000 OA
ENDROOT
BRANCH   1   5
ATOM      2  C   UNL     1      50.674   2.526  17.453  0.00  0.00    +0.000 A 
ATOM      3  C   UNL     1      50.481   3.892  17.690  0.00  0.00    +0.000 A 
ATOM      4  C   UNL     1      49.328   4.546  17.240  0.00  0.00    +0.000 A 
ATOM      5  C   UNL     1      48.349   3.841  16.540  0.00  0.00    +0.000 A 
ATOM      6  C   UNL     1      48.533   2.477  16.307  0.00  0.00    +0.000 A 
ATOM      7  C   UNL     1      49.684   1.821  16.759  0.00  0.00    +0.000 A 
BRANCH   2   8
ATOM      8  C   UNL     1      51.936   1.845  17.918  0.00  0.00    +0.000 C 
BRANCH   8   9
ATOM      9  N   UNL     1      52.160   0.588  17.214  0.00  0.00    +0.000 NA
ATOM     10  H   UNL     1      51.667   0.610  16.324  0.00  0.00    +0.000 HD
ATOM     11  H   UNL     1      51.744  -0.169  17.756  0.00  0.00    +0.000 HD
ENDBRANCH   8   9
ENDBRANCH   2   8
ENDBRANCH   1   5
BRANCH   1  12
ATOM     12  C   UNL     1      47.329   5.337  14.998  0.00  0.00    +0.000 C 
BRANCH  12  13
ATOM     13  C   UNL     1      46.578   4.900  13.759  0.00  0.00    +0.000 A 
ATOM     14  C   UNL     1      46.223   5.833  12.787  0.00  0.00    +0.000 A 
ATOM     15  C   UNL     1      45.486   5.411  11.683  0.00  0.00    +0.000 A 
ATOM     16  C   UNL     1      45.122   4.069  11.564  0.00  0.00    +0.000 A 
ATOM     17  C   UNL     1      45.515   3.208  12.578  0.00  0.00    +0.000 A 
ATOM     18  N   UNL     1      46.223   3.593  13.665  0.00  0.00    +0.000 NA
BRANCH  16  19
ATOM     19  C   UNL     1      44.335   3.540  10.406  0.00  0.00    +0.000 C 
ATOM     20  F   UNL     1      44.943   2.504   9.764  0.00  0.00    +0.000 F 
ATOM     21  F   UNL     1      43.108   3.080  10.773  0.00  0.00    +0.000 F 
ATOM     22  F   UNL     1      44.109   4.485   9.451  0.00  0.00    +0.000 F 
ENDBRANCH  16  19
ENDBRANCH  12  13
ENDBRANCH   1  12
TORSDOF 6
ENDMDL
MODEL 7
REMARK VINA RESULT:    -5.559      4.485      8.149
REMARK INTER + INTRA:          -7.947
REMARK INTER:                  -7.527
REMARK INTRA:                  -0.420
REMARK UNBOUND:                -0.600
REMARK  Name = 
REMARK  6 active torsions:
REMARK  status: ('A' for Active; 'I' for Inactive)
REMARK    1  A    between atoms: N_1  and  C_2
REMARK    2  A    between atoms: C_2  and  C_3
REMARK    3  A    between atoms: C_6  and  O_7
REMARK    4  A    between atoms: O_7  and  C_8
REMARK    5  A    between atoms: C_8  and  C_9
REMARK    6  A    between atoms: C_12  and  C_13
REMARK                            x       y       z     vdW  Elec       q    Type
REMARK                         _______ _______ _______ _____ _____    ______ ____
ROOT
ATOM      1  O   UNL     1      48.604   5.829  14.717  0.00  0.00    +0.000 OA
ENDROOT
BRANCH   1   5
ATOM      2  C   UNL     1      48.362   5.475  18.883  0.00  0.00    +0.000 A 
ATOM      3  C   UNL     1      48.680   6.718  18.323  0.00  0.00    +0.000 A 
ATOM      4  C   UNL     1      48.766   6.883  16.936  0.00  0.00    +0.000 A 
ATOM      5  C   UNL     1      48.538   5.801  16.084  0.00  0.00    +0.000 A 
ATOM      6  C   UNL     1      48.214   4.561  16.638  0.00  0.00    +0.000 A 
ATOM      7  C   UNL     1      48.125   4.396  18.024  0.00  0.00    +0.000 A 
BRANCH   2   8
ATOM      8  C   UNL     1      48.305   5.308  20.380  0.00  0.00    +0.000 C 
BRANCH   8   9
ATOM      9  N   UNL     1      48.314   3.903  20.766  0.00  0.00    +0.000 NA
ATOM     10  H   UNL     1      48.489   3.330  19.943  0.00  0.00    +0.000 HD
ATOM     11  H   UNL     1      47.385   3.650  21.101  0.00  0.00    +0.000 HD
ENDBRANCH   8   9
ENDBRANCH   2   8
ENDBRANCH   1   5
BRANCH   1  12
ATOM     12  C   UNL     1      47.745   6.765  14.060  0.00  0.00    +0.000 C 
BRANCH  12  13
ATOM     13  C   UNL     1      46.776   6.043  13.148  0.00  0.00    +0.000 A 
ATOM     14  C   UNL     1      46.677   6.402  11.805  0.00  0.00    +0.000 A 
ATOM     15  C   UNL     1      45.739   5.756  11.001  0.00  0.00    +0.000 A 
ATOM     16  C   UNL     1      44.924   4.764  11.547  0.00  0.00    +0.000 A 
ATOM     17  C   UNL     1      45.088   4.471  12.893  0.00  0.00    +0.000 A 
ATOM     18  N   UNL     1      45.983   5.089  13.698  0.00  0.00    +0.000 NA
BRANCH  16  19
ATOM     19  C   UNL     1      43.897   4.025  10.747  0.00  0.00    +0.000 C 
ATOM     20  F   UNL     1      42.643   4.097  11.275  0.00  0.00    +0.000 F 
ATOM     21  F   UNL     1      43.791   4.491   9.473  0.00  0.00    +0.000 F 
ATOM     22  F   UNL     1      44.176   2.696  10.637  0.00  0.00    +0.000 F 
ENDBRANCH  16  19
ENDBRANCH  12  13
ENDBRANCH   1  12
TORSDOF 6
ENDMDL
MODEL 8
REMARK VINA RESULT:    -5.471      4.337      6.624
REMARK INTER + INTRA:          -7.831
REMARK INTER:                  -7.371
REMARK INTRA:                  -0.460
REMARK UNBOUND:                -0.600
REMARK  Name = 
REMARK  6 active torsions:
REMARK  status: ('A' for Active; 'I' for Inactive)
REMARK    1  A    between atoms: N_1  and  C_2
REMARK    2  A    between atoms: C_2  and  C_3
REMARK    3  A    between atoms: C_6  and  O_7
REMARK    4  A    between atoms: O_7  and  C_8
REMARK    5  A    between atoms: C_8  and  C_9
REMARK    6  A    between atoms: C_12  and  C_13
REMARK                            x       y       z     vdW  Elec       q    Type
REMARK                         _______ _______ _______ _____ _____    ______ ____
ROOT
ATOM      1  O   UNL     1      46.468   6.523  13.451  0.00  0.00    +0.000 OA
ENDROOT
BRANCH   1   5
ATOM      2  C   UNL     1      48.530   9.633  11.550  0.00  0.00    +0.000 A 
ATOM      3  C   UNL     1      49.128   8.370  11.631  0.00  0.00    +0.000 A 
ATOM      4  C   UNL     1      48.473   7.301  12.253  0.00  0.00    +0.000 A 
ATOM      5  C   UNL     1      47.205   7.481  12.807  0.00  0.00    +0.000 A 
ATOM      6  C   UNL     1      46.602   8.737  12.723  0.00  0.00    +0.000 A 
ATOM      7  C   UNL     1      47.255   9.806  12.100  0.00  0.00    +0.000 A 
BRANCH   2   8
ATOM      8  C   UNL     1      49.264  10.781  10.905  0.00  0.00    +0.000 C 
BRANCH   8   9
ATOM      9  N   UNL     1      50.709  10.604  10.976  0.00  0.00    +0.000 NA
ATOM     10  H   UNL     1      51.062  10.355  10.055  0.00  0.00    +0.000 HD
ATOM     11  H   UNL     1      50.912   9.813  11.586  0.00  0.00    +0.000 HD
ENDBRANCH   8   9
ENDBRANCH   2   8
ENDBRANCH   1   5
BRANCH   1  12
ATOM     12  C   UNL     1      45.150   6.292  12.945  0.00  0.00    +0.000 C 
BRANCH  12  13
ATOM     13  C   UNL     1      45.193   5.333  11.774  0.00  0.00    +0.000 A 
ATOM     14  C   UNL     1      45.576   5.784  10.512  0.00  0.00    +0.000 A 
ATOM     15  C   UNL     1      45.556   4.891   9.442  0.00  0.00    +0.000 A 
ATOM     16  C   UNL     1      45.163   3.568   9.650  0.00  0.00    +0.000 A 
ATOM     17  C   UNL     1      44.797   3.205  10.937  0.00  0.00    +0.000 A 
ATOM     18  N   UNL     1      44.798   4.053  11.991  0.00  0.00    +0.000 NA
BRANCH  16  19
ATOM     19  C   UNL     1      45.119   2.551   8.552  0.00  0.00    +0.000 C 
ATOM     20  F   UNL     1      44.545   1.374   8.926  0.00  0.00    +0.000 F 
ATOM     21  F   UNL     1      44.416   2.980   7.469  0.00  0.00    +0.000 F 
ATOM     22  F   UNL     1      46.358   2.228   8.088  0.00  0.00    +0.000 F 
ENDBRANCH  16  19
ENDBRANCH  12  13
ENDBRANCH   1  12
TORSDOF 6
ENDMDL
MODEL 9
REMARK VINA RESULT:    -5.471      3.658      4.967
REMARK INTER + INTRA:          -7.830
REMARK INTER:                  -7.509
REMARK INTRA:                  -0.321
REMARK UNBOUND:                -0.600
REMARK  Name = 
REMARK  6 active torsions:
REMARK  status: ('A' for Active; 'I' for Inactive)
REMARK    1  A    between atoms: N_1  and  C_2
REMARK    2  A    between atoms: C_2  and  C_3
REMARK    3  A    between atoms: C_6  and  O_7
REMARK    4  A    between atoms: O_7  and  C_8
REMARK    5  A    between atoms: C_8  and  C_9
REMARK    6  A    between atoms: C_12  and  C_13
REMARK                            x       y       z     vdW  Elec       q    Type
REMARK                         _______ _______ _______ _____ _____    ______ ____
ROOT
ATOM      1  O   UNL     1      45.953   4.542  14.019  0.00  0.00    +0.000 OA
ENDROOT
BRANCH   1   5
ATOM      2  C   UNL     1      44.989   4.251   9.954  0.00  0.00    +0.000 A 
ATOM      3  C   UNL     1      45.439   5.477  10.461  0.00  0.00    +0.000 A 
ATOM      4  C   UNL     1      45.777   5.617  11.811  0.00  0.00    +0.000 A 
ATOM      5  C   UNL     1      45.667   4.531  12.680  0.00  0.00    +0.000 A 
ATOM      6  C   UNL     1      45.225   3.305  12.178  0.00  0.00    +0.000 A 
ATOM      7  C   UNL     1      44.889   3.162  10.827  0.00  0.00    +0.000 A 
BRANCH   2   8
ATOM      8  C   UNL     1      44.599   4.126   8.503  0.00  0.00    +0.000 C 
BRANCH   8   9
ATOM      9  N   UNL     1      45.766   4.138   7.630  0.00  0.00    +0.000 NA
ATOM     10  H   UNL     1      45.669   3.406   6.931  0.00  0.00    +0.000 HD
ATOM     11  H   UNL     1      46.590   3.904   8.182  0.00  0.00    +0.000 HD
ENDBRANCH   8   9
ENDBRANCH   2   8
ENDBRANCH   1   5
BRANCH   1  12
ATOM     12  C   UNL     1      47.114   3.813  14.425  0.00  0.00    +0.000 C 
BRANCH  12  13
ATOM     13  C   UNL     1      47.479   4.150  15.855  0.00  0.00    +0.000 A 
ATOM     14  C   UNL     1      48.153   5.335  16.146  0.00  0.00    +0.000 A 
ATOM     15  C   UNL     1      48.521   5.594  17.464  0.00  0.00    +0.000 A 
ATOM     16  C   UNL     1      48.207   4.675  18.467  0.00  0.00    +0.000 A 
ATOM     17  C   UNL     1      47.536   3.522  18.088  0.00  0.00    +0.000 A 
ATOM     18  N   UNL     1      47.175   3.241  16.815  0.00  0.00    +0.000 NA
BRANCH  16  19
ATOM     19  C   UNL     1      48.566   4.886  19.904  0.00  0.00    +0.000 C 
ATOM     20  F   UNL     1      48.515   3.747  20.649  0.00  0.00    +0.000 F 
ATOM     21  F   UNL     1      49.826   5.377  20.063  0.00  0.00    +0.000 F 
ATOM     22  F   UNL     1      47.740   5.772  20.526  0.00  0.00    +0.000 F 
ENDBRANCH  16  19
ENDBRANCH  12  13
ENDBRANCH   1  12
TORSDOF 6
ENDMDL
