MODEL 1
REMARK VINA RESULT:    -8.135      0.000      0.000
REMARK INTER + INTRA:         -10.751
REMARK INTER:                 -10.037
REMARK INTRA:                  -0.714
REMARK UNBOUND:                -0.714
REMARK  Name = 
REMARK  4 active torsions:
REMARK  status: ('A' for Active; 'I' for Inactive)
REMARK    1  A    between atoms: C_2  and  C_4
REMARK    2  A    between atoms: C_7  and  C_8
REMARK    3  A    between atoms: C_8  and  N_9
REMARK    4  A    between atoms: C_14  and  C_15
REMARK                            x       y       z     vdW  Elec       q    Type
REMARK                         _______ _______ _______ _____ _____    ______ ____
ROOT
ATOM      1  N   UNL     1      44.983   2.924  11.988  0.00  0.00    +0.000 N 
ATOM      2  C   UNL     1      45.732   3.840  12.751  0.00  0.00    +0.000 A 
ATOM      3  C   UNL     1      46.443   3.355  13.844  0.00  0.00    +0.000 A 
ATOM      4  C   UNL     1      47.183   4.240  14.621  0.00  0.00    +0.000 A 
ATOM      5  C   UNL     1      47.210   5.586  14.275  0.00  0.00    +0.000 A 
ATOM      6  C   UNL     1      46.492   6.011  13.161  0.00  0.00    +0.000 A 
ATOM      7  N   UNL     1      45.741   5.148  12.428  0.00  0.00    +0.000 NA
ATOM      8  H   UNL     1      45.602   2.187  11.664  0.00  0.00    +0.000 HD
ENDROOT
BRANCH   6   9
ATOM      9  C   UNL     1      46.521   7.405  12.671  0.00  0.00    +0.000 A 
ATOM     10  C   UNL     1      45.338   8.143  12.473  0.00  0.00    +0.000 A 
ATOM     11  C   UNL     1      45.371   9.470  12.030  0.00  0.00    +0.000 A 
ATOM     12  C   UNL     1      46.590  10.091  11.777  0.00  0.00    +0.000 A 
ATOM     13  C   UNL     1      47.776   9.387  11.972  0.00  0.00    +0.000 A 
ATOM     14  C   UNL     1      47.739   8.061  12.414  0.00  0.00    +0.000 A 
ENDBRANCH   6   9
BRANCH   1  15
ATOM     15  C   UNL     1      44.272   3.547  10.877  0.00  0.00    +0.000 C 
BRANCH  15  19
ATOM     16  C   UNL     1      46.561   3.001   7.244  0.00  0.00    +0.000 A 
ATOM     17  C   UNL     1      46.237   4.291   7.680  0.00  0.00    +0.000 A 
ATOM     18  C   UNL     1      45.489   4.468   8.849  0.00  0.00    +0.000 A 
ATOM     19  C   UNL     1      45.051   3.360   9.592  0.00  0.00    +0.000 A 
ATOM     20  C   UNL     1      45.370   2.072   9.140  0.00  0.00    +0.000 A 
ATOM     21  C   UNL     1      46.115   1.894   7.972  0.00  0.00    +0.000 A 
BRANCH  16  23
ATOM     22  N   UNL     1      48.665   2.400   6.169  0.00  0.00    +0.000 N 
ATOM     23  C   UNL     1      47.355   2.761   6.012  0.00  0.00    +0.000 C 
ATOM     24  O   UNL     1      46.855   2.840   4.897  0.00  0.00    +0.000 OA
ATOM     25  H   UNL     1      49.156   2.129   5.326  0.00  0.00    +0.000 HD
ATOM     26  H   UNL     1      49.030   2.072   7.051  0.00  0.00    +0.000 HD
ENDBRANCH  16  23
ENDBRANCH  15  19
ENDBRANCH   1  15
TORSDOF 4
ENDMDL
MODEL 2
REMARK VINA RESULT:    -7.827      1.315      3.531
REMARK INTER + INTRA:         -10.371
REMARK INTER:                  -9.735
REMARK INTRA:                  -0.636
REMARK UNBOUND:                -0.714
REMARK  Name = 
REMARK  4 active torsions:
REMARK  status: ('A' for Active; 'I' for Inactive)
REMARK    1  A    between atoms: C_2  and  C_4
REMARK    2  A    between atoms: C_7  and  C_8
REMARK    3  A    between atoms: C_8  and  N_9
REMARK    4  A    between atoms: C_14  and  C_15
REMARK                            x       y       z     vdW  Elec       q    Type
REMARK                         _______ _______ _______ _____ _____    ______ ____
ROOT
ATOM      1  N   UNL     1      44.000   5.873  10.554  0.00  0.00    +0.000 N 
ATOM      2  C   UNL     1      44.858   6.561  11.433  0.00  0.00    +0.000 A 
ATOM      3  C   UNL     1      44.944   7.944  11.317  0.00  0.00    +0.000 A 
ATOM      4  C   UNL     1      45.792   8.647  12.166  0.00  0.00    +0.000 A 
ATOM      5  C   UNL     1      46.519   7.951  13.125  0.00  0.00    +0.000 A 
ATOM      6  C   UNL     1      46.380   6.569  13.206  0.00  0.00    +0.000 A 
ATOM      7  N   UNL     1      45.579   5.883  12.349  0.00  0.00    +0.000 NA
ATOM      8  H   UNL     1      43.065   6.258  10.643  0.00  0.00    +0.000 HD
ENDROOT
BRANCH   6   9
ATOM      9  C   UNL     1      47.052   5.753  14.239  0.00  0.00    +0.000 A 
ATOM     10  C   UNL     1      48.027   6.301  15.095  0.00  0.00    +0.000 A 
ATOM     11  C   UNL     1      48.644   5.531  16.086  0.00  0.00    +0.000 A 
ATOM     12  C   UNL     1      48.298   4.193  16.246  0.00  0.00    +0.000 A 
ATOM     13  C   UNL     1      47.332   3.627  15.419  0.00  0.00    +0.000 A 
ATOM     14  C   UNL     1      46.717   4.400  14.429  0.00  0.00    +0.000 A 
ENDBRANCH   6   9
BRANCH   1  15
ATOM     15  C   UNL     1      44.000   4.428  10.762  0.00  0.00    +0.000 C 
BRANCH  15  19
ATOM     16  C   UNL     1      46.429   2.482   7.754  0.00  0.00    +0.000 A 
ATOM     17  C   UNL     1      46.358   3.879   7.799  0.00  0.00    +0.000 A 
ATOM     18  C   UNL     1      45.566   4.508   8.766  0.00  0.00    +0.000 A 
ATOM     19  C   UNL     1      44.831   3.751   9.692  0.00  0.00    +0.000 A 
ATOM     20  C   UNL     1      44.899   2.352   9.629  0.00  0.00    +0.000 A 
ATOM     21  C   UNL     1      45.687   1.722   8.663  0.00  0.00    +0.000 A 
BRANCH  16  23
ATOM     22  N   UNL     1      48.235   2.483   6.117  0.00  0.00    +0.000 N 
ATOM     23  C   UNL     1      47.257   1.766   6.749  0.00  0.00    +0.000 C 
ATOM     24  O   UNL     1      47.105   0.573   6.520  0.00  0.00    +0.000 OA
ATOM     25  H   UNL     1      48.862   1.953   5.524  0.00  0.00    +0.000 HD
ATOM     26  H   UNL     1      48.559   3.374   6.464  0.00  0.00    +0.000 HD
ENDBRANCH  16  23
ENDBRANCH  15  19
ENDBRANCH   1  15
TORSDOF 4
ENDMDL
MODEL 3
REMARK VINA RESULT:    -7.736      4.193      8.069
REMARK INTER + INTRA:         -10.259
REMARK INTER:                  -9.753
REMARK INTRA:                  -0.506
REMARK UNBOUND:                -0.714
REMARK  Name = 
REMARK  4 active torsions:
REMARK  status: ('A' for Active; 'I' for Inactive)
REMARK    1  A    between atoms: C_2  and  C_4
REMARK    2  A    between atoms: C_7  and  C_8
REMARK    3  A    between atoms: C_8  and  N_9
REMARK    4  A    between atoms: C_14  and  C_15
REMARK                            x       y       z     vdW  Elec       q    Type
REMARK                         _______ _______ _______ _____ _____    ______ ____
ROOT
ATOM      1  N   UNL     1      45.548   5.108  14.026  0.00  0.00    +0.000 N 
ATOM      2  C   UNL     1      44.782   4.976  12.851  0.00  0.00    +0.000 A 
ATOM      3  C   UNL     1      43.496   5.506  12.844  0.00  0.00    +0.000 A 
ATOM      4  C   UNL     1      42.715   5.381  11.701  0.00  0.00    +0.000 A 
ATOM      5  C   UNL     1      43.245   4.745  10.584  0.00  0.00    +0.000 A 
ATOM      6  C   UNL     1      44.545   4.249  10.643  0.00  0.00    +0.000 A 
ATOM      7  N   UNL     1      45.290   4.341  11.776  0.00  0.00    +0.000 NA
ATOM      8  H   UNL     1      45.608   6.092  14.267  0.00  0.00    +0.000 HD
ENDROOT
BRANCH   6   9
ATOM      9  C   UNL     1      45.220   3.627   9.486  0.00  0.00    +0.000 A 
ATOM     10  C   UNL     1      45.827   4.402   8.480  0.00  0.00    +0.000 A 
ATOM     11  C   UNL     1      46.485   3.809   7.397  0.00  0.00    +0.000 A 
ATOM     12  C   UNL     1      46.552   2.423   7.297  0.00  0.00    +0.000 A 
ATOM     13  C   UNL     1      45.967   1.631   8.281  0.00  0.00    +0.000 A 
ATOM     14  C   UNL     1      45.310   2.228   9.362  0.00  0.00    +0.000 A 
ENDBRANCH   6   9
BRANCH   1  15
ATOM     15  C   UNL     1      46.873   4.505  13.919  0.00  0.00    +0.000 C 
BRANCH  15  19
ATOM     16  C   UNL     1      48.693   4.385  17.845  0.00  0.00    +0.000 A 
ATOM     17  C   UNL     1      48.726   5.566  17.094  0.00  0.00    +0.000 A 
ATOM     18  C   UNL     1      48.146   5.603  15.821  0.00  0.00    +0.000 A 
ATOM     19  C   UNL     1      47.533   4.461  15.281  0.00  0.00    +0.000 A 
ATOM     20  C   UNL     1      47.518   3.279  16.036  0.00  0.00    +0.000 A 
ATOM     21  C   UNL     1      48.099   3.240  17.306  0.00  0.00    +0.000 A 
BRANCH  16  23
ATOM     22  N   UNL     1      48.530   3.734  20.188  0.00  0.00    +0.000 N 
ATOM     23  C   UNL     1      49.292   4.296  19.201  0.00  0.00    +0.000 C 
ATOM     24  O   UNL     1      50.436   4.670  19.427  0.00  0.00    +0.000 OA
ATOM     25  H   UNL     1      48.995   3.576  21.073  0.00  0.00    +0.000 HD
ATOM     26  H   UNL     1      47.708   3.184  19.985  0.00  0.00    +0.000 HD
ENDBRANCH  16  23
ENDBRANCH  15  19
ENDBRANCH   1  15
TORSDOF 4
ENDMDL
MODEL 4
REMARK VINA RESULT:    -7.461      3.440      6.907
REMARK INTER + INTRA:          -9.919
REMARK INTER:                  -9.181
REMARK INTRA:                  -0.738
REMARK UNBOUND:                -0.714
REMARK  Name = 
REMARK  4 active torsions:
REMARK  status: ('A' for Active; 'I' for Inactive)
REMARK    1  A    between atoms: C_2  and  C_4
REMARK    2  A    between atoms: C_7  and  C_8
REMARK    3  A    between atoms: C_8  and  N_9
REMARK    4  A    between atoms: C_14  and  C_15
REMARK                            x       y       z     vdW  Elec       q    Type
REMARK                         _______ _______ _______ _____ _____    ______ ____
ROOT
ATOM      1  N   UNL     1      44.146   6.783  12.161  0.00  0.00    +0.000 N 
ATOM      2  C   UNL     1      44.056   5.445  11.732  0.00  0.00    +0.000 A 
ATOM      3  C   UNL     1      43.182   4.598  12.405  0.00  0.00    +0.000 A 
ATOM      4  C   UNL     1      43.081   3.269  12.008  0.00  0.00    +0.000 A 
ATOM      5  C   UNL     1      43.843   2.823  10.934  0.00  0.00    +0.000 A 
ATOM      6  C   UNL     1      44.688   3.720  10.288  0.00  0.00    +0.000 A 
ATOM      7  N   UNL     1      44.810   5.007  10.704  0.00  0.00    +0.000 NA
ATOM      8  H   UNL     1      43.219   7.196  12.136  0.00  0.00    +0.000 HD
ENDROOT
BRANCH   6   9
ATOM      9  C   UNL     1      45.478   3.360   9.092  0.00  0.00    +0.000 A 
ATOM     10  C   UNL     1      45.764   2.019   8.771  0.00  0.00    +0.000 A 
ATOM     11  C   UNL     1      46.493   1.681   7.626  0.00  0.00    +0.000 A 
ATOM     12  C   UNL     1      46.953   2.680   6.773  0.00  0.00    +0.000 A 
ATOM     13  C   UNL     1      46.679   4.014   7.061  0.00  0.00    +0.000 A 
ATOM     14  C   UNL     1      45.949   4.348   8.207  0.00  0.00    +0.000 A 
ENDBRANCH   6   9
BRANCH   1  15
ATOM     15  C   UNL     1      45.100   7.571  11.389  0.00  0.00    +0.000 C 
BRANCH  15  19
ATOM     16  C   UNL     1      48.789   7.921  13.627  0.00  0.00    +0.000 A 
ATOM     17  C   UNL     1      47.663   8.655  14.016  0.00  0.00    +0.000 A 
ATOM     18  C   UNL     1      46.473   8.549  13.287  0.00  0.00    +0.000 A 
ATOM     19  C   UNL     1      46.396   7.716  12.160  0.00  0.00    +0.000 A 
ATOM     20  C   UNL     1      47.534   6.995  11.771  0.00  0.00    +0.000 A 
ATOM     21  C   UNL     1      48.724   7.101  12.496  0.00  0.00    +0.000 A 
BRANCH  16  23
ATOM     22  N   UNL     1      51.227   7.915  13.637  0.00  0.00    +0.000 N 
ATOM     23  C   UNL     1      50.074   7.996  14.369  0.00  0.00    +0.000 C 
ATOM     24  O   UNL     1      50.110   8.165  15.581  0.00  0.00    +0.000 OA
ATOM     25  H   UNL     1      52.087   8.084  14.142  0.00  0.00    +0.000 HD
ATOM     26  H   UNL     1      51.238   8.043  12.636  0.00  0.00    +0.000 HD
ENDBRANCH  16  23
ENDBRANCH  15  19
ENDBRANCH   1  15
TORSDOF 4
ENDMDL
MODEL 5
REMARK VINA RESULT:    -7.296      3.259      6.888
REMARK INTER + INTRA:          -9.716
REMARK INTER:                  -9.030
REMARK INTRA:                  -0.685
REMARK UNBOUND:                -0.714
REMARK  Name = 
REMARK  4 active torsions:
REMARK  status: ('A' for Active; 'I' for Inactive)
REMARK    1  A    between atoms: C_2  and  C_4
REMARK    2  A    between atoms: C_7  and  C_8
REMARK    3  A    between atoms: C_8  and  N_9
REMARK    4  A    between atoms: C_14  and  C_15
REMARK                            x       y       z     vdW  Elec       q    Type
REMARK                         _______ _______ _______ _____ _____    ______ ____
ROOT
ATOM      1  N   UNL     1      45.741   5.599  13.756  0.00  0.00    +0.000 N 
ATOM      2  C   UNL     1      44.886   5.209  12.708  0.00  0.00    +0.000 A 
ATOM      3  C   UNL     1      43.534   5.515  12.816  0.00  0.00    +0.000 A 
ATOM      4  C   UNL     1      42.665   5.133  11.799  0.00  0.00    +0.000 A 
ATOM      5  C   UNL     1      43.174   4.470  10.688  0.00  0.00    +0.000 A 
ATOM      6  C   UNL     1      44.539   4.205  10.626  0.00  0.00    +0.000 A 
ATOM      7  N   UNL     1      45.376   4.548  11.640  0.00  0.00    +0.000 NA
ATOM      8  H   UNL     1      45.651   6.601  13.895  0.00  0.00    +0.000 HD
ENDROOT
BRANCH   6   9
ATOM      9  C   UNL     1      45.182   3.575   9.455  0.00  0.00    +0.000 A 
ATOM     10  C   UNL     1      45.736   4.343   8.413  0.00  0.00    +0.000 A 
ATOM     11  C   UNL     1      46.363   3.742   7.316  0.00  0.00    +0.000 A 
ATOM     12  C   UNL     1      46.454   2.356   7.238  0.00  0.00    +0.000 A 
ATOM     13  C   UNL     1      45.922   1.571   8.258  0.00  0.00    +0.000 A 
ATOM     14  C   UNL     1      45.295   2.175   9.353  0.00  0.00    +0.000 A 
ENDBRANCH   6   9
BRANCH   1  15
ATOM     15  C   UNL     1      47.132   5.215  13.538  0.00  0.00    +0.000 C 
BRANCH  15  19
ATOM     16  C   UNL     1      49.579   8.684  12.695  0.00  0.00    +0.000 A 
ATOM     17  C   UNL     1      49.630   8.081  13.958  0.00  0.00    +0.000 A 
ATOM     18  C   UNL     1      48.832   6.966  14.233  0.00  0.00    +0.000 A 
ATOM     19  C   UNL     1      47.971   6.443  13.255  0.00  0.00    +0.000 A 
ATOM     20  C   UNL     1      47.917   7.063  11.999  0.00  0.00    +0.000 A 
ATOM     21  C   UNL     1      48.711   8.178  11.723  0.00  0.00    +0.000 A 
BRANCH  16  23
ATOM     22  N   UNL     1      50.253  10.402  11.103  0.00  0.00    +0.000 N 
ATOM     23  C   UNL     1      50.408   9.868  12.352  0.00  0.00    +0.000 C 
ATOM     24  O   UNL     1      51.171  10.378  13.163  0.00  0.00    +0.000 OA
ATOM     25  H   UNL     1      50.737  11.274  10.928  0.00  0.00    +0.000 HD
ATOM     26  H   UNL     1      49.460  10.181  10.518  0.00  0.00    +0.000 HD
ENDBRANCH  16  23
ENDBRANCH  15  19
ENDBRANCH   1  15
TORSDOF 4
ENDMDL
MODEL 6
REMARK VINA RESULT:    -7.045      1.689      3.386
REMARK INTER + INTRA:          -9.407
REMARK INTER:                  -8.755
REMARK INTRA:                  -0.651
REMARK UNBOUND:                -0.714
REMARK  Name = 
REMARK  4 active torsions:
REMARK  status: ('A' for Active; 'I' for Inactive)
REMARK    1  A    between atoms: C_2  and  C_4
REMARK    2  A    between atoms: C_7  and  C_8
REMARK    3  A    between atoms: C_8  and  N_9
REMARK    4  A    between atoms: C_14  and  C_15
REMARK                            x       y       z     vdW  Elec       q    Type
REMARK                         _______ _______ _______ _____ _____    ______ ____
ROOT
ATOM      1  N   UNL     1      43.691   6.041  10.794  0.00  0.00    +0.000 N 
ATOM      2  C   UNL     1      44.358   7.157  11.334  0.00  0.00    +0.000 A 
ATOM      3  C   UNL     1      43.890   8.424  11.001  0.00  0.00    +0.000 A 
ATOM      4  C   UNL     1      44.536   9.544  11.513  0.00  0.00    +0.000 A 
ATOM      5  C   UNL     1      45.623   9.371  12.362  0.00  0.00    +0.000 A 
ATOM      6  C   UNL     1      46.036   8.078  12.674  0.00  0.00    +0.000 A 
ATOM      7  N   UNL     1      45.425   6.989  12.141  0.00  0.00    +0.000 NA
ATOM      8  H   UNL     1      42.709   6.094  11.045  0.00  0.00    +0.000 HD
ENDROOT
BRANCH   6   9
ATOM      9  C   UNL     1      47.131   7.793  13.625  0.00  0.00    +0.000 A 
ATOM     10  C   UNL     1      47.590   6.481  13.851  0.00  0.00    +0.000 A 
ATOM     11  C   UNL     1      48.641   6.218  14.736  0.00  0.00    +0.000 A 
ATOM     12  C   UNL     1      49.260   7.263  15.414  0.00  0.00    +0.000 A 
ATOM     13  C   UNL     1      48.831   8.571  15.204  0.00  0.00    +0.000 A 
ATOM     14  C   UNL     1      47.780   8.831  14.319  0.00  0.00    +0.000 A 
ENDBRANCH   6   9
BRANCH   1  15
ATOM     15  C   UNL     1      44.277   4.768  11.203  0.00  0.00    +0.000 C 
BRANCH  15  19
ATOM     16  C   UNL     1      46.156   2.892   7.784  0.00  0.00    +0.000 A 
ATOM     17  C   UNL     1      45.509   2.107   8.746  0.00  0.00    +0.000 A 
ATOM     18  C   UNL     1      44.909   2.712   9.856  0.00  0.00    +0.000 A 
ATOM     19  C   UNL     1      44.954   4.106  10.022  0.00  0.00    +0.000 A 
ATOM     20  C   UNL     1      45.617   4.881   9.060  0.00  0.00    +0.000 A 
ATOM     21  C   UNL     1      46.218   4.279   7.952  0.00  0.00    +0.000 A 
BRANCH  16  23
ATOM     22  N   UNL     1      47.065   3.133   5.536  0.00  0.00    +0.000 N 
ATOM     23  C   UNL     1      46.805   2.298   6.587  0.00  0.00    +0.000 C 
ATOM     24  O   UNL     1      47.134   1.119   6.551  0.00  0.00    +0.000 OA
ATOM     25  H   UNL     1      47.611   2.738   4.779  0.00  0.00    +0.000 HD
ATOM     26  H   UNL     1      47.054   4.137   5.631  0.00  0.00    +0.000 HD
ENDBRANCH  16  23
ENDBRANCH  15  19
ENDBRANCH   1  15
TORSDOF 4
ENDMDL
MODEL 7
REMARK VINA RESULT:    -6.775      4.523      7.938
REMARK INTER + INTRA:          -9.072
REMARK INTER:                  -8.394
REMARK INTRA:                  -0.679
REMARK UNBOUND:                -0.714
REMARK  Name = 
REMARK  4 active torsions:
REMARK  status: ('A' for Active; 'I' for Inactive)
REMARK    1  A    between atoms: C_2  and  C_4
REMARK    2  A    between atoms: C_7  and  C_8
REMARK    3  A    between atoms: C_8  and  N_9
REMARK    4  A    between atoms: C_14  and  C_15
REMARK                            x       y       z     vdW  Elec       q    Type
REMARK                         _______ _______ _______ _____ _____    ______ ____
ROOT
ATOM      1  N   UNL     1      48.283   6.249  15.521  0.00  0.00    +0.000 N 
ATOM      2  C   UNL     1      47.764   6.454  14.228  0.00  0.00    +0.000 A 
ATOM      3  C   UNL     1      48.245   7.532  13.493  0.00  0.00    +0.000 A 
ATOM      4  C   UNL     1      47.743   7.763  12.217  0.00  0.00    +0.000 A 
ATOM      5  C   UNL     1      46.785   6.899  11.699  0.00  0.00    +0.000 A 
ATOM      6  C   UNL     1      46.353   5.827  12.475  0.00  0.00    +0.000 A 
ATOM      7  N   UNL     1      46.820   5.628  13.735  0.00  0.00    +0.000 NA
ATOM      8  H   UNL     1      49.293   6.167  15.458  0.00  0.00    +0.000 HD
ENDROOT
BRANCH   6   9
ATOM      9  C   UNL     1      45.397   4.813  11.983  0.00  0.00    +0.000 A 
ATOM     10  C   UNL     1      45.148   4.637  10.608  0.00  0.00    +0.000 A 
ATOM     11  C   UNL     1      44.259   3.662  10.146  0.00  0.00    +0.000 A 
ATOM     12  C   UNL     1      43.598   2.836  11.050  0.00  0.00    +0.000 A 
ATOM     13  C   UNL     1      43.830   2.983  12.415  0.00  0.00    +0.000 A 
ATOM     14  C   UNL     1      44.720   3.960  12.874  0.00  0.00    +0.000 A 
ENDBRANCH   6   9
BRANCH   1  15
ATOM     15  C   UNL     1      47.697   5.098  16.200  0.00  0.00    +0.000 C 
BRANCH  15  19
ATOM     16  C   UNL     1      50.854   2.394  17.408  0.00  0.00    +0.000 A 
ATOM     17  C   UNL     1      49.663   1.886  16.878  0.00  0.00    +0.000 A 
ATOM     18  C   UNL     1      48.639   2.760  16.496  0.00  0.00    +0.000 A 
ATOM     19  C   UNL     1      48.789   4.147  16.645  0.00  0.00    +0.000 A 
ATOM     20  C   UNL     1      49.981   4.645  17.190  0.00  0.00    +0.000 A 
ATOM     21  C   UNL     1      51.004   3.775  17.574  0.00  0.00    +0.000 A 
BRANCH  16  23
ATOM     22  N   UNL     1      51.667   0.210  18.122  0.00  0.00    +0.000 N 
ATOM     23  C   UNL     1      51.972   1.510  17.826  0.00  0.00    +0.000 C 
ATOM     24  O   UNL     1      53.130   1.909  17.867  0.00  0.00    +0.000 OA
ATOM     25  H   UNL     1      52.454  -0.404  18.291  0.00  0.00    +0.000 HD
ATOM     26  H   UNL     1      50.793  -0.213  17.848  0.00  0.00    +0.000 HD
ENDBRANCH  16  23
ENDBRANCH  15  19
ENDBRANCH   1  15
TORSDOF 4
ENDMDL
MODEL 8
REMARK VINA RESULT:    -6.652      3.997      5.703
REMARK INTER + INTRA:          -8.922
REMARK INTER:                  -8.320
REMARK INTRA:                  -0.602
REMARK UNBOUND:                -0.714
REMARK  Name = 
REMARK  4 active torsions:
REMARK  status: ('A' for Active; 'I' for Inactive)
REMARK    1  A    between atoms: C_2  and  C_4
REMARK    2  A    between atoms: C_7  and  C_8
REMARK    3  A    between atoms: C_8  and  N_9
REMARK    4  A    between atoms: C_14  and  C_15
REMARK                            x       y       z     vdW  Elec       q    Type
REMARK                         _______ _______ _______ _____ _____    ______ ____
ROOT
ATOM      1  N   UNL     1      46.735   4.424  15.580  0.00  0.00    +0.000 N 
ATOM      2  C   UNL     1      47.745   4.296  16.552  0.00  0.00    +0.000 A 
ATOM      3  C   UNL     1      47.492   3.493  17.659  0.00  0.00    +0.000 A 
ATOM      4  C   UNL     1      48.469   3.358  18.640  0.00  0.00    +0.000 A 
ATOM      5  C   UNL     1      49.684   4.014  18.480  0.00  0.00    +0.000 A 
ATOM      6  C   UNL     1      49.888   4.790  17.343  0.00  0.00    +0.000 A 
ATOM      7  N   UNL     1      48.916   4.949  16.407  0.00  0.00    +0.000 NA
ATOM      8  H   UNL     1      46.481   3.498  15.250  0.00  0.00    +0.000 HD
ENDROOT
BRANCH   6   9
ATOM      9  C   UNL     1      51.171   5.462  17.049  0.00  0.00    +0.000 A 
ATOM     10  C   UNL     1      52.398   4.948  17.511  0.00  0.00    +0.000 A 
ATOM     11  C   UNL     1      53.612   5.575  17.212  0.00  0.00    +0.000 A 
ATOM     12  C   UNL     1      53.626   6.733  16.440  0.00  0.00    +0.000 A 
ATOM     13  C   UNL     1      52.429   7.259  15.963  0.00  0.00    +0.000 A 
ATOM     14  C   UNL     1      51.217   6.630  16.265  0.00  0.00    +0.000 A 
ENDBRANCH   6   9
BRANCH   1  15
ATOM     15  C   UNL     1      47.110   5.298  14.473  0.00  0.00    +0.000 C 
BRANCH  15  19
ATOM     16  C   UNL     1      45.114   4.050  10.840  0.00  0.00    +0.000 A 
ATOM     17  C   UNL     1      45.595   5.359  10.960  0.00  0.00    +0.000 A 
ATOM     18  C   UNL     1      46.232   5.765  12.137  0.00  0.00    +0.000 A 
ATOM     19  C   UNL     1      46.390   4.873  13.210  0.00  0.00    +0.000 A 
ATOM     20  C   UNL     1      45.892   3.569  13.085  0.00  0.00    +0.000 A 
ATOM     21  C   UNL     1      45.253   3.161  11.911  0.00  0.00    +0.000 A 
BRANCH  16  23
ATOM     22  N   UNL     1      43.968   4.515   8.740  0.00  0.00    +0.000 N 
ATOM     23  C   UNL     1      44.433   3.569   9.611  0.00  0.00    +0.000 C 
ATOM     24  O   UNL     1      44.324   2.375   9.359  0.00  0.00    +0.000 OA
ATOM     25  H   UNL     1      43.613   4.170   7.856  0.00  0.00    +0.000 HD
ATOM     26  H   UNL     1      44.270   5.477   8.780  0.00  0.00    +0.000 HD
ENDBRANCH  16  23
ENDBRANCH  15  19
ENDBRANCH   1  15
TORSDOF 4
ENDMDL
MODEL 9
REMARK VINA RESULT:    -6.632      4.158      6.985
REMARK INTER + INTRA:          -8.896
REMARK INTER:                  -8.247
REMARK INTRA:                  -0.649
REMARK UNBOUND:                -0.714
REMARK  Name = 
REMARK  4 active torsions:
REMARK  status: ('A' for Active; 'I' for Inactive)
REMARK    1  A    between atoms: C_2  and  C_4
REMARK    2  A    between atoms: C_7  and  C_8
REMARK    3  A    between atoms: C_8  and  N_9
REMARK    4  A    between atoms: C_14  and  C_15
REMARK                            x       y       z     vdW  Elec       q    Type
REMARK                         _______ _______ _______ _____ _____    ______ ____
ROOT
ATOM      1  N   UNL     1      48.182   7.558  14.783  0.00  0.00    +0.000 N 
ATOM      2  C   UNL     1      48.748   7.161  16.010  0.00  0.00    +0.000 A 
ATOM      3  C   UNL     1      48.689   8.051  17.077  0.00  0.00    +0.000 A 
ATOM      4  C   UNL     1      49.248   7.688  18.298  0.00  0.00    +0.000 A 
ATOM      5  C   UNL     1      49.836   6.435  18.427  0.00  0.00    +0.000 A 
ATOM      6  C   UNL     1      49.851   5.579  17.329  0.00  0.00    +0.000 A 
ATOM      7  N   UNL     1      49.336   5.954  16.129  0.00  0.00    +0.000 NA
ATOM      8  H   UNL     1      47.210   7.807  14.937  0.00  0.00    +0.000 HD
ENDROOT
BRANCH   6   9
ATOM      9  C   UNL     1      50.384   4.202  17.391  0.00  0.00    +0.000 A 
ATOM     10  C   UNL     1      49.600   3.089  17.034  0.00  0.00    +0.000 A 
ATOM     11  C   UNL     1      50.115   1.789  17.073  0.00  0.00    +0.000 A 
ATOM     12  C   UNL     1      51.431   1.573  17.469  0.00  0.00    +0.000 A 
ATOM     13  C   UNL     1      52.233   2.656  17.821  0.00  0.00    +0.000 A 
ATOM     14  C   UNL     1      51.714   3.954  17.781  0.00  0.00    +0.000 A 
ENDBRANCH   6   9
BRANCH   1  15
ATOM     15  C   UNL     1      48.314   6.550  13.736  0.00  0.00    +0.000 C 
BRANCH  15  19
ATOM     16  C   UNL     1      44.442   5.479  12.123  0.00  0.00    +0.000 A 
ATOM     17  C   UNL     1      45.187   6.505  11.531  0.00  0.00    +0.000 A 
ATOM     18  C   UNL     1      46.434   6.858  12.058  0.00  0.00    +0.000 A 
ATOM     19  C   UNL     1      46.949   6.195  13.184  0.00  0.00    +0.000 A 
ATOM     20  C   UNL     1      46.188   5.178  13.777  0.00  0.00    +0.000 A 
ATOM     21  C   UNL     1      44.942   4.826  13.254  0.00  0.00    +0.000 A 
BRANCH  16  23
ATOM     22  N   UNL     1      42.083   5.952  11.734  0.00  0.00    +0.000 N 
ATOM     23  C   UNL     1      43.115   5.065  11.600  0.00  0.00    +0.000 C 
ATOM     24  O   UNL     1      42.951   3.992  11.033  0.00  0.00    +0.000 OA
ATOM     25  H   UNL     1      41.218   5.703  11.271  0.00  0.00    +0.000 HD
ATOM     26  H   UNL     1      42.236   6.927  11.947  0.00  0.00    +0.000 HD
ENDBRANCH  16  23
ENDBRANCH  15  19
ENDBRANCH   1  15
TORSDOF 4
ENDMDL
