MODEL 1
REMARK VINA RESULT:    -9.062      0.000      0.000
REMARK INTER + INTRA:         -13.354
REMARK INTER:                 -12.505
REMARK INTRA:                  -0.849
REMARK UNBOUND:                -0.849
REMARK  Name = 
REMARK  8 active torsions:
REMARK  status: ('A' for Active; 'I' for Inactive)
REMARK    1  A    between atoms: C_1  and  C_2
REMARK    2  A    between atoms: C_2  and  O_3
REMARK    3  A    between atoms: C_5  and  N_6
REMARK    4  A    between atoms: C_9  and  C_10
REMARK    5  A    between atoms: C_10  and  C_13
REMARK    6  A    between atoms: C_13  and  N_14
REMARK    7  A    between atoms: N_14  and  C_15
REMARK    8  A    between atoms: C_18  and  C_19
REMARK                            x       y       z     vdW  Elec       q    Type
REMARK                         _______ _______ _______ _____ _____    ______ ____
ROOT
ATOM      1  C   UNL     1      44.636   5.060  12.404  0.00  0.00    +0.000 C 
ATOM      2  F   UNL     1      44.453   3.706  12.363  0.00  0.00    +0.000 F 
ATOM      3  F   UNL     1      43.597   5.537  13.162  0.00  0.00    +0.000 F 
ENDROOT
BRANCH   1   7
ATOM      4  N   UNL     1      47.786   4.525  16.156  0.00  0.00    +0.000 N 
ATOM      5  C   UNL     1      47.520   5.122  14.897  0.00  0.00    +0.000 A 
ATOM      6  C   UNL     1      46.315   4.807  14.273  0.00  0.00    +0.000 A 
ATOM      7  C   UNL     1      45.977   5.401  13.042  0.00  0.00    +0.000 A 
ATOM      8  C   UNL     1      46.909   6.277  12.479  0.00  0.00    +0.000 A 
ATOM      9  C   UNL     1      48.088   6.529  13.159  0.00  0.00    +0.000 A 
ATOM     10  N   UNL     1      48.399   5.984  14.357  0.00  0.00    +0.000 NA
ATOM     11  H   UNL     1      47.904   3.524  16.019  0.00  0.00    +0.000 HD
BRANCH   4  15
ATOM     12  C   UNL     1      48.663   4.403  20.502  0.00  0.00    +0.000 C 
ATOM     13  C   UNL     1      49.134   5.016  19.191  0.00  0.00    +0.000 C 
ATOM     14  C   UNL     1      48.001   5.638  18.336  0.00  0.00    +0.000 C 
ATOM     15  C   UNL     1      48.724   5.084  17.083  0.00  0.00    +0.000 C 
ATOM     16  C   UNL     1      49.356   4.017  18.014  0.00  0.00    +0.000 C 
BRANCH  13  17
ATOM     17  O   UNL     1      50.253   5.892  19.459  0.00  0.00    +0.000 OA
ATOM     18  H   UNL     1      51.012   5.297  19.586  0.00  0.00    +0.000 HD
ENDBRANCH  13  17
ENDBRANCH   4  15
ENDBRANCH   1   7
BRANCH   1  19
ATOM     19  C   UNL     1      44.460   5.626  10.971  0.00  0.00    +0.000 C 
BRANCH  19  20
ATOM     20  N   UNL     1      43.786   4.732  10.006  0.00  0.00    +0.000 N 
ATOM     21  H   UNL     1      43.137   5.229   9.392  0.00  0.00    +0.000 HD
BRANCH  20  22
ATOM     22  C   UNL     1      44.699   3.987   9.227  0.00  0.00    +0.000 A 
ATOM     23  N   UNL     1      45.548   4.642   8.399  0.00  0.00    +0.000 NA
ATOM     24  C   UNL     1      46.413   3.904   7.650  0.00  0.00    +0.000 A 
ATOM     25  C   UNL     1      46.502   2.524   7.710  0.00  0.00    +0.000 A 
ATOM     26  C   UNL     1      45.643   1.852   8.582  0.00  0.00    +0.000 A 
ATOM     27  C   UNL     1      44.742   2.591   9.339  0.00  0.00    +0.000 A 
ATOM     28  F   UNL     1      43.906   1.943  10.164  0.00  0.00    +0.000 F 
BRANCH  25  29
ATOM     29  C   UNL     1      47.449   1.816   6.831  0.00  0.00    +0.000 C 
ATOM     30  N   UNL     1      48.526   2.519   6.365  0.00  0.00    +0.000 N 
ATOM     31  O   UNL     1      47.268   0.646   6.523  0.00  0.00    +0.000 OA
ATOM     32  H   UNL     1      48.636   3.518   6.464  0.00  0.00    +0.000 HD
ATOM     33  H   UNL     1      49.147   2.040   5.725  0.00  0.00    +0.000 HD
ENDBRANCH  25  29
ENDBRANCH  20  22
ENDBRANCH  19  20
ENDBRANCH   1  19
TORSDOF 7
ENDMDL
MODEL 2
REMARK VINA RESULT:    -8.492      2.462      4.073
REMARK INTER + INTRA:         -12.568
REMARK INTER:                 -11.595
REMARK INTRA:                  -0.973
REMARK UNBOUND:                -0.849
REMARK  Name = 
REMARK  8 active torsions:
REMARK  status: ('A' for Active; 'I' for Inactive)
REMARK    1  A    between atoms: C_1  and  C_2
REMARK    2  A    between atoms: C_2  and  O_3
REMARK    3  A    between atoms: C_5  and  N_6
REMARK    4  A    between atoms: C_9  and  C_10
REMARK    5  A    between atoms: C_10  and  C_13
REMARK    6  A    between atoms: C_13  and  N_14
REMARK    7  A    between atoms: N_14  and  C_15
REMARK    8  A    between atoms: C_18  and  C_19
REMARK                            x       y       z     vdW  Elec       q    Type
REMARK                         _______ _______ _______ _____ _____    ______ ____
ROOT
ATOM      1  C   UNL     1      44.387   5.179  12.334  0.00  0.00    +0.000 C 
ATOM      2  F   UNL     1      44.136   3.835  12.362  0.00  0.00    +0.000 F 
ATOM      3  F   UNL     1      43.338   5.751  13.005  0.00  0.00    +0.000 F 
ENDROOT
BRANCH   1   7
ATOM      4  N   UNL     1      48.309   8.124  12.811  0.00  0.00    +0.000 N 
ATOM      5  C   UNL     1      47.634   6.956  13.248  0.00  0.00    +0.000 A 
ATOM      6  C   UNL     1      46.407   6.658  12.659  0.00  0.00    +0.000 A 
ATOM      7  C   UNL     1      45.710   5.491  13.023  0.00  0.00    +0.000 A 
ATOM      8  C   UNL     1      46.288   4.684  14.007  0.00  0.00    +0.000 A 
ATOM      9  C   UNL     1      47.505   5.055  14.550  0.00  0.00    +0.000 A 
ATOM     10  N   UNL     1      48.190   6.160  14.178  0.00  0.00    +0.000 NA
ATOM     11  H   UNL     1      47.766   8.936  13.094  0.00  0.00    +0.000 HD
BRANCH   4  15
ATOM     12  C   UNL     1      51.790   9.645  10.519  0.00  0.00    +0.000 C 
ATOM     13  C   UNL     1      51.396   9.038  11.858  0.00  0.00    +0.000 C 
ATOM     14  C   UNL     1      50.498   7.780  11.748  0.00  0.00    +0.000 C 
ATOM     15  C   UNL     1      49.721   8.300  12.983  0.00  0.00    +0.000 C 
ATOM     16  C   UNL     1      50.201   9.721  12.591  0.00  0.00    +0.000 C 
BRANCH  13  17
ATOM     17  O   UNL     1      52.585   8.874  12.665  0.00  0.00    +0.000 OA
ATOM     18  H   UNL     1      53.018   8.076  12.316  0.00  0.00    +0.000 HD
ENDBRANCH  13  17
ENDBRANCH   4  15
ENDBRANCH   1   7
BRANCH   1  19
ATOM     19  C   UNL     1      44.315   5.663  10.863  0.00  0.00    +0.000 C 
BRANCH  19  20
ATOM     20  N   UNL     1      43.684   4.728   9.909  0.00  0.00    +0.000 N 
ATOM     21  H   UNL     1      43.041   5.193   9.264  0.00  0.00    +0.000 HD
BRANCH  20  22
ATOM     22  C   UNL     1      44.632   3.979   9.174  0.00  0.00    +0.000 A 
ATOM     23  N   UNL     1      45.490   4.628   8.351  0.00  0.00    +0.000 NA
ATOM     24  C   UNL     1      46.389   3.887   7.647  0.00  0.00    +0.000 A 
ATOM     25  C   UNL     1      46.502   2.511   7.748  0.00  0.00    +0.000 A 
ATOM     26  C   UNL     1      45.634   1.846   8.615  0.00  0.00    +0.000 A 
ATOM     27  C   UNL     1      44.698   2.588   9.328  0.00  0.00    +0.000 A 
ATOM     28  F   UNL     1      43.853   1.947  10.148  0.00  0.00    +0.000 F 
BRANCH  25  29
ATOM     29  C   UNL     1      47.486   1.798   6.914  0.00  0.00    +0.000 C 
ATOM     30  N   UNL     1      48.410   2.550   6.243  0.00  0.00    +0.000 N 
ATOM     31  O   UNL     1      47.465   0.578   6.819  0.00  0.00    +0.000 OA
ATOM     32  H   UNL     1      48.374   3.557   6.166  0.00  0.00    +0.000 HD
ATOM     33  H   UNL     1      49.053   2.056   5.636  0.00  0.00    +0.000 HD
ENDBRANCH  25  29
ENDBRANCH  20  22
ENDBRANCH  19  20
ENDBRANCH   1  19
TORSDOF 7
ENDMDL
MODEL 3
REMARK VINA RESULT:    -8.358      2.282      2.905
REMARK INTER + INTRA:         -12.383
REMARK INTER:                 -11.299
REMARK INTRA:                  -1.084
REMARK UNBOUND:                -0.849
REMARK  Name = 
REMARK  8 active torsions:
REMARK  status: ('A' for Active; 'I' for Inactive)
REMARK    1  A    between atoms: C_1  and  C_2
REMARK    2  A    between atoms: C_2  and  O_3
REMARK    3  A    between atoms: C_5  and  N_6
REMARK    4  A    between atoms: C_9  and  C_10
REMARK    5  A    between atoms: C_10  and  C_13
REMARK    6  A    between atoms: C_13  and  N_14
REMARK    7  A    between atoms: N_14  and  C_15
REMARK    8  A    between atoms: C_18  and  C_19
REMARK                            x       y       z     vdW  Elec       q    Type
REMARK                         _______ _______ _______ _____ _____    ______ ____
ROOT
ATOM      1  C   UNL     1      43.685   4.202  12.260  0.00  0.00    +0.000 C 
ATOM      2  F   UNL     1      43.134   3.920  13.480  0.00  0.00    +0.000 F 
ATOM      3  F   UNL     1      42.620   4.505  11.451  0.00  0.00    +0.000 F 
ENDROOT
BRANCH   1   7
ATOM      4  N   UNL     1      47.763   6.173  14.202  0.00  0.00    +0.000 N 
ATOM      5  C   UNL     1      46.658   6.336  13.328  0.00  0.00    +0.000 A 
ATOM      6  C   UNL     1      45.779   5.264  13.186  0.00  0.00    +0.000 A 
ATOM      7  C   UNL     1      44.643   5.382  12.365  0.00  0.00    +0.000 A 
ATOM      8  C   UNL     1      44.467   6.593  11.689  0.00  0.00    +0.000 A 
ATOM      9  C   UNL     1      45.391   7.606  11.876  0.00  0.00    +0.000 A 
ATOM     10  N   UNL     1      46.466   7.504  12.690  0.00  0.00    +0.000 NA
ATOM     11  H   UNL     1      48.386   5.473  13.806  0.00  0.00    +0.000 HD
BRANCH   4  15
ATOM     12  C   UNL     1      51.770   7.131  15.845  0.00  0.00    +0.000 C 
ATOM     13  C   UNL     1      50.401   7.735  15.569  0.00  0.00    +0.000 C 
ATOM     14  C   UNL     1      49.213   6.871  16.059  0.00  0.00    +0.000 C 
ATOM     15  C   UNL     1      48.455   7.289  14.774  0.00  0.00    +0.000 C 
ATOM     16  C   UNL     1      49.844   7.530  14.127  0.00  0.00    +0.000 C 
BRANCH  13  17
ATOM     17  O   UNL     1      50.393   9.106  16.029  0.00  0.00    +0.000 OA
ATOM     18  H   UNL     1      49.508   9.441  15.804  0.00  0.00    +0.000 HD
ENDBRANCH  13  17
ENDBRANCH   4  15
ENDBRANCH   1   7
BRANCH   1  19
ATOM     19  C   UNL     1      44.337   2.910  11.703  0.00  0.00    +0.000 C 
BRANCH  19  20
ATOM     20  N   UNL     1      43.772   2.401  10.436  0.00  0.00    +0.000 N 
ATOM     21  H   UNL     1      42.921   2.894  10.154  0.00  0.00    +0.000 HD
BRANCH  20  22
ATOM     22  C   UNL     1      44.706   2.424   9.377  0.00  0.00    +0.000 A 
ATOM     23  N   UNL     1      45.371   1.287   9.059  0.00  0.00    +0.000 NA
ATOM     24  C   UNL     1      46.273   1.334   8.040  0.00  0.00    +0.000 A 
ATOM     25  C   UNL     1      46.527   2.466   7.286  0.00  0.00    +0.000 A 
ATOM     26  C   UNL     1      45.824   3.630   7.599  0.00  0.00    +0.000 A 
ATOM     27  C   UNL     1      44.912   3.603   8.648  0.00  0.00    +0.000 A 
ATOM     28  F   UNL     1      44.249   4.726   8.959  0.00  0.00    +0.000 F 
BRANCH  25  29
ATOM     29  C   UNL     1      47.550   2.421   6.227  0.00  0.00    +0.000 C 
ATOM     30  N   UNL     1      47.324   3.158   5.097  0.00  0.00    +0.000 N 
ATOM     31  O   UNL     1      48.558   1.738   6.351  0.00  0.00    +0.000 OA
ATOM     32  H   UNL     1      46.446   3.611   4.882  0.00  0.00    +0.000 HD
ATOM     33  H   UNL     1      48.008   3.086   4.354  0.00  0.00    +0.000 HD
ENDBRANCH  25  29
ENDBRANCH  20  22
ENDBRANCH  19  20
ENDBRANCH   1  19
TORSDOF 7
ENDMDL
MODEL 4
REMARK VINA RESULT:    -7.319      3.986      4.682
REMARK INTER + INTRA:         -10.950
REMARK INTER:                 -10.274
REMARK INTRA:                  -0.676
REMARK UNBOUND:                -0.849
REMARK  Name = 
REMARK  8 active torsions:
REMARK  status: ('A' for Active; 'I' for Inactive)
REMARK    1  A    between atoms: C_1  and  C_2
REMARK    2  A    between atoms: C_2  and  O_3
REMARK    3  A    between atoms: C_5  and  N_6
REMARK    4  A    between atoms: C_9  and  C_10
REMARK    5  A    between atoms: C_10  and  C_13
REMARK    6  A    between atoms: C_13  and  N_14
REMARK    7  A    between atoms: N_14  and  C_15
REMARK    8  A    between atoms: C_18  and  C_19
REMARK                            x       y       z     vdW  Elec       q    Type
REMARK                         _______ _______ _______ _____ _____    ______ ____
ROOT
ATOM      1  C   UNL     1      44.766   6.910  11.915  0.00  0.00    +0.000 C 
ATOM      2  F   UNL     1      44.417   6.546  13.186  0.00  0.00    +0.000 F 
ATOM      3  F   UNL     1      43.588   7.272  11.313  0.00  0.00    +0.000 F 
ENDROOT
BRANCH   1   7
ATOM      4  N   UNL     1      49.422   8.513  12.097  0.00  0.00    +0.000 N 
ATOM      5  C   UNL     1      48.046   8.850  12.026  0.00  0.00    +0.000 A 
ATOM      6  C   UNL     1      47.126   7.805  11.970  0.00  0.00    +0.000 A 
ATOM      7  C   UNL     1      45.745   8.077  11.941  0.00  0.00    +0.000 A 
ATOM      8  C   UNL     1      45.359   9.420  11.938  0.00  0.00    +0.000 A 
ATOM      9  C   UNL     1      46.336  10.399  11.985  0.00  0.00    +0.000 A 
ATOM     10  N   UNL     1      47.662  10.138  12.046  0.00  0.00    +0.000 NA
ATOM     11  H   UNL     1      49.692   8.075  11.219  0.00  0.00    +0.000 HD
BRANCH   4  15
ATOM     12  C   UNL     1      53.760   9.326  11.650  0.00  0.00    +0.000 C 
ATOM     13  C   UNL     1      52.509   9.803  12.374  0.00  0.00    +0.000 C 
ATOM     14  C   UNL     1      51.687   8.670  13.038  0.00  0.00    +0.000 C 
ATOM     15  C   UNL     1      50.406   9.424  12.600  0.00  0.00    +0.000 C 
ATOM     16  C   UNL     1      51.261  10.066  11.477  0.00  0.00    +0.000 C 
BRANCH  13  17
ATOM     17  O   UNL     1      52.864  10.898  13.250  0.00  0.00    +0.000 OA
ATOM     18  H   UNL     1      52.121  10.970  13.875  0.00  0.00    +0.000 HD
ENDBRANCH  13  17
ENDBRANCH   4  15
ENDBRANCH   1   7
BRANCH   1  19
ATOM     19  C   UNL     1      45.300   5.658  11.172  0.00  0.00    +0.000 C 
BRANCH  19  20
ATOM     20  N   UNL     1      44.457   5.161  10.065  0.00  0.00    +0.000 N 
ATOM     21  H   UNL     1      44.019   5.915   9.530  0.00  0.00    +0.000 HD
BRANCH  20  22
ATOM     22  C   UNL     1      45.163   4.306   9.187  0.00  0.00    +0.000 A 
ATOM     23  N   UNL     1      46.026   4.845   8.294  0.00  0.00    +0.000 NA
ATOM     24  C   UNL     1      46.688   4.004   7.453  0.00  0.00    +0.000 A 
ATOM     25  C   UNL     1      46.558   2.627   7.479  0.00  0.00    +0.000 A 
ATOM     26  C   UNL     1      45.687   2.071   8.416  0.00  0.00    +0.000 A 
ATOM     27  C   UNL     1      44.990   2.918   9.271  0.00  0.00    +0.000 A 
ATOM     28  F   UNL     1      44.140   2.384  10.160  0.00  0.00    +0.000 F 
BRANCH  25  29
ATOM     29  C   UNL     1      47.294   1.807   6.500  0.00  0.00    +0.000 C 
ATOM     30  N   UNL     1      48.084   2.459   5.595  0.00  0.00    +0.000 N 
ATOM     31  O   UNL     1      47.189   0.588   6.494  0.00  0.00    +0.000 OA
ATOM     32  H   UNL     1      48.084   3.461   5.460  0.00  0.00    +0.000 HD
ATOM     33  H   UNL     1      48.550   1.893   4.896  0.00  0.00    +0.000 HD
ENDBRANCH  25  29
ENDBRANCH  20  22
ENDBRANCH  19  20
ENDBRANCH   1  19
TORSDOF 7
ENDMDL
MODEL 5
REMARK VINA RESULT:    -6.721      3.140      8.727
REMARK INTER + INTRA:         -10.124
REMARK INTER:                  -9.404
REMARK INTRA:                  -0.720
REMARK UNBOUND:                -0.849
REMARK  Name = 
REMARK  8 active torsions:
REMARK  status: ('A' for Active; 'I' for Inactive)
REMARK    1  A    between atoms: C_1  and  C_2
REMARK    2  A    between atoms: C_2  and  O_3
REMARK    3  A    between atoms: C_5  and  N_6
REMARK    4  A    between atoms: C_9  and  C_10
REMARK    5  A    between atoms: C_10  and  C_13
REMARK    6  A    between atoms: C_13  and  N_14
REMARK    7  A    between atoms: N_14  and  C_15
REMARK    8  A    between atoms: C_18  and  C_19
REMARK                            x       y       z     vdW  Elec       q    Type
REMARK                         _______ _______ _______ _____ _____    ______ ____
ROOT
ATOM      1  C   UNL     1      47.951   8.202  14.182  0.00  0.00    +0.000 C 
ATOM      2  F   UNL     1      48.869   9.027  13.595  0.00  0.00    +0.000 F 
ATOM      3  F   UNL     1      47.498   8.894  15.275  0.00  0.00    +0.000 F 
ENDROOT
BRANCH   1   7
ATOM      4  N   UNL     1      45.456   4.912  11.491  0.00  0.00    +0.000 N 
ATOM      5  C   UNL     1      45.589   6.263  11.901  0.00  0.00    +0.000 A 
ATOM      6  C   UNL     1      46.604   6.569  12.806  0.00  0.00    +0.000 A 
ATOM      7  C   UNL     1      46.810   7.898  13.218  0.00  0.00    +0.000 A 
ATOM      8  C   UNL     1      45.941   8.867  12.707  0.00  0.00    +0.000 A 
ATOM      9  C   UNL     1      44.952   8.480  11.820  0.00  0.00    +0.000 A 
ATOM     10  N   UNL     1      44.773   7.207  11.400  0.00  0.00    +0.000 NA
ATOM     11  H   UNL     1      45.162   4.359  12.293  0.00  0.00    +0.000 HD
BRANCH   4  15
ATOM     12  C   UNL     1      46.291   2.616   7.789  0.00  0.00    +0.000 C 
ATOM     13  C   UNL     1      45.213   3.431   8.488  0.00  0.00    +0.000 C 
ATOM     14  C   UNL     1      45.705   4.789   9.049  0.00  0.00    +0.000 C 
ATOM     15  C   UNL     1      44.791   4.545  10.276  0.00  0.00    +0.000 C 
ATOM     16  C   UNL     1      44.905   3.030   9.963  0.00  0.00    +0.000 C 
BRANCH  13  17
ATOM     17  O   UNL     1      44.052   3.507   7.629  0.00  0.00    +0.000 OA
ATOM     18  H   UNL     1      43.593   2.658   7.752  0.00  0.00    +0.000 HD
ENDBRANCH  13  17
ENDBRANCH   4  15
ENDBRANCH   1   7
BRANCH   1  19
ATOM     19  C   UNL     1      48.684   6.939  14.704  0.00  0.00    +0.000 C 
BRANCH  19  20
ATOM     20  N   UNL     1      48.267   6.460  16.038  0.00  0.00    +0.000 N 
ATOM     21  H   UNL     1      47.308   6.102  16.049  0.00  0.00    +0.000 HD
BRANCH  20  22
ATOM     22  C   UNL     1      49.143   5.483  16.563  0.00  0.00    +0.000 A 
ATOM     23  N   UNL     1      50.454   5.787  16.714  0.00  0.00    +0.000 NA
ATOM     24  C   UNL     1      51.282   4.828  17.213  0.00  0.00    +0.000 A 
ATOM     25  C   UNL     1      50.857   3.572  17.609  0.00  0.00    +0.000 A 
ATOM     26  C   UNL     1      49.501   3.269  17.476  0.00  0.00    +0.000 A 
ATOM     27  C   UNL     1      48.646   4.232  16.950  0.00  0.00    +0.000 A 
ATOM     28  F   UNL     1      47.347   3.934  16.807  0.00  0.00    +0.000 F 
BRANCH  25  29
ATOM     29  C   UNL     1      51.840   2.593  18.105  0.00  0.00    +0.000 C 
ATOM     30  N   UNL     1      52.729   3.014  19.055  0.00  0.00    +0.000 N 
ATOM     31  O   UNL     1      51.866   1.449  17.670  0.00  0.00    +0.000 OA
ATOM     32  H   UNL     1      52.849   3.979  19.331  0.00  0.00    +0.000 HD
ATOM     33  H   UNL     1      53.432   2.350  19.357  0.00  0.00    +0.000 HD
ENDBRANCH  25  29
ENDBRANCH  20  22
ENDBRANCH  19  20
ENDBRANCH   1  19
TORSDOF 7
ENDMDL
MODEL 6
REMARK VINA RESULT:    -6.670      3.941      5.939
REMARK INTER + INTRA:         -10.054
REMARK INTER:                  -9.411
REMARK INTRA:                  -0.643
REMARK UNBOUND:                -0.849
REMARK  Name = 
REMARK  8 active torsions:
REMARK  status: ('A' for Active; 'I' for Inactive)
REMARK    1  A    between atoms: C_1  and  C_2
REMARK    2  A    between atoms: C_2  and  O_3
REMARK    3  A    between atoms: C_5  and  N_6
REMARK    4  A    between atoms: C_9  and  C_10
REMARK    5  A    between atoms: C_10  and  C_13
REMARK    6  A    between atoms: C_13  and  N_14
REMARK    7  A    between atoms: N_14  and  C_15
REMARK    8  A    between atoms: C_18  and  C_19
REMARK                            x       y       z     vdW  Elec       q    Type
REMARK                         _______ _______ _______ _____ _____    ______ ____
ROOT
ATOM      1  C   UNL     1      47.514   3.766  17.159  0.00  0.00    +0.000 C 
ATOM      2  F   UNL     1      46.893   2.635  17.613  0.00  0.00    +0.000 F 
ATOM      3  F   UNL     1      46.748   4.804  17.624  0.00  0.00    +0.000 F 
ENDROOT
BRANCH   1   7
ATOM      4  N   UNL     1      52.093   1.950  17.318  0.00  0.00    +0.000 N 
ATOM      5  C   UNL     1      51.188   2.945  17.766  0.00  0.00    +0.000 A 
ATOM      6  C   UNL     1      49.889   2.914  17.264  0.00  0.00    +0.000 A 
ATOM      7  C   UNL     1      48.935   3.851  17.703  0.00  0.00    +0.000 A 
ATOM      8  C   UNL     1      49.362   4.812  18.623  0.00  0.00    +0.000 A 
ATOM      9  C   UNL     1      50.673   4.781  19.066  0.00  0.00    +0.000 A 
ATOM     10  N   UNL     1      51.581   3.862  18.668  0.00  0.00    +0.000 NA
ATOM     11  H   UNL     1      52.273   2.099  16.328  0.00  0.00    +0.000 HD
BRANCH   4  15
ATOM     12  C   UNL     1      55.636  -0.686  16.903  0.00  0.00    +0.000 C 
ATOM     13  C   UNL     1      54.975   0.311  17.843  0.00  0.00    +0.000 C 
ATOM     14  C   UNL     1      53.465   0.059  18.080  0.00  0.00    +0.000 C 
ATOM     15  C   UNL     1      53.266   1.595  18.060  0.00  0.00    +0.000 C 
ATOM     16  C   UNL     1      54.560   1.674  17.209  0.00  0.00    +0.000 C 
BRANCH  13  17
ATOM     17  O   UNL     1      55.774   0.423  19.043  0.00  0.00    +0.000 OA
ATOM     18  H   UNL     1      55.411  -0.245  19.650  0.00  0.00    +0.000 HD
ENDBRANCH  13  17
ENDBRANCH   4  15
ENDBRANCH   1   7
BRANCH   1  19
ATOM     19  C   UNL     1      47.432   3.787  15.611  0.00  0.00    +0.000 C 
BRANCH  19  20
ATOM     20  N   UNL     1      46.782   4.974  15.019  0.00  0.00    +0.000 N 
ATOM     21  H   UNL     1      47.409   5.780  14.958  0.00  0.00    +0.000 HD
BRANCH  20  22
ATOM     22  C   UNL     1      46.225   4.710  13.747  0.00  0.00    +0.000 A 
ATOM     23  N   UNL     1      45.988   3.427  13.384  0.00  0.00    +0.000 NA
ATOM     24  C   UNL     1      45.459   3.195  12.151  0.00  0.00    +0.000 A 
ATOM     25  C   UNL     1      45.115   4.195  11.259  0.00  0.00    +0.000 A 
ATOM     26  C   UNL     1      45.336   5.519  11.644  0.00  0.00    +0.000 A 
ATOM     27  C   UNL     1      45.893   5.770  12.893  0.00  0.00    +0.000 A 
ATOM     28  F   UNL     1      46.121   7.041  13.256  0.00  0.00    +0.000 F 
BRANCH  25  29
ATOM     29  C   UNL     1      44.581   3.837   9.933  0.00  0.00    +0.000 C 
ATOM     30  N   UNL     1      43.786   4.755   9.303  0.00  0.00    +0.000 N 
ATOM     31  O   UNL     1      44.831   2.753   9.424  0.00  0.00    +0.000 OA
ATOM     32  H   UNL     1      43.427   5.591   9.742  0.00  0.00    +0.000 HD
ATOM     33  H   UNL     1      43.384   4.484   8.413  0.00  0.00    +0.000 HD
ENDBRANCH  25  29
ENDBRANCH  20  22
ENDBRANCH  19  20
ENDBRANCH   1  19
TORSDOF 7
ENDMDL
MODEL 7
REMARK VINA RESULT:    -6.495      3.861      8.571
REMARK INTER + INTRA:          -9.812
REMARK INTER:                  -8.434
REMARK INTRA:                  -1.377
REMARK UNBOUND:                -0.849
REMARK  Name = 
REMARK  8 active torsions:
REMARK  status: ('A' for Active; 'I' for Inactive)
REMARK    1  A    between atoms: C_1  and  C_2
REMARK    2  A    between atoms: C_2  and  O_3
REMARK    3  A    between atoms: C_5  and  N_6
REMARK    4  A    between atoms: C_9  and  C_10
REMARK    5  A    between atoms: C_10  and  C_13
REMARK    6  A    between atoms: C_13  and  N_14
REMARK    7  A    between atoms: N_14  and  C_15
REMARK    8  A    between atoms: C_18  and  C_19
REMARK                            x       y       z     vdW  Elec       q    Type
REMARK                         _______ _______ _______ _____ _____    ______ ____
ROOT
ATOM      1  C   UNL     1      49.365   9.077  12.390  0.00  0.00    +0.000 C 
ATOM      2  F   UNL     1      49.698   9.115  11.064  0.00  0.00    +0.000 F 
ATOM      3  F   UNL     1      49.480  10.373  12.823  0.00  0.00    +0.000 F 
ENDROOT
BRANCH   1   7
ATOM      4  N   UNL     1      46.258   5.274  12.799  0.00  0.00    +0.000 N 
ATOM      5  C   UNL     1      46.423   6.682  12.775  0.00  0.00    +0.000 A 
ATOM      6  C   UNL     1      47.717   7.181  12.642  0.00  0.00    +0.000 A 
ATOM      7  C   UNL     1      47.940   8.568  12.570  0.00  0.00    +0.000 A 
ATOM      8  C   UNL     1      46.821   9.400  12.671  0.00  0.00    +0.000 A 
ATOM      9  C   UNL     1      45.569   8.826  12.811  0.00  0.00    +0.000 A 
ATOM     10  N   UNL     1      45.352   7.492  12.848  0.00  0.00    +0.000 NA
ATOM     11  H   UNL     1      46.683   4.914  13.650  0.00  0.00    +0.000 HD
BRANCH   4  15
ATOM     12  C   UNL     1      44.573   2.562   9.720  0.00  0.00    +0.000 C 
ATOM     13  C   UNL     1      44.209   3.334  10.981  0.00  0.00    +0.000 C 
ATOM     14  C   UNL     1      44.674   4.812  10.978  0.00  0.00    +0.000 C 
ATOM     15  C   UNL     1      45.010   4.646  12.481  0.00  0.00    +0.000 C 
ATOM     16  C   UNL     1      45.155   3.128  12.202  0.00  0.00    +0.000 C 
BRANCH  13  17
ATOM     17  O   UNL     1      42.805   3.133  11.264  0.00  0.00    +0.000 OA
ATOM     18  H   UNL     1      42.550   2.359  10.731  0.00  0.00    +0.000 HD
ENDBRANCH  13  17
ENDBRANCH   4  15
ENDBRANCH   1   7
BRANCH   1  19
ATOM     19  C   UNL     1      50.431   8.241  13.143  0.00  0.00    +0.000 C 
BRANCH  19  20
ATOM     20  N   UNL     1      50.716   8.663  14.530  0.00  0.00    +0.000 N 
ATOM     21  H   UNL     1      50.497   9.648  14.698  0.00  0.00    +0.000 HD
BRANCH  20  22
ATOM     22  C   UNL     1      50.055   7.861  15.489  0.00  0.00    +0.000 A 
ATOM     23  N   UNL     1      50.554   6.636  15.780  0.00  0.00    +0.000 NA
ATOM     24  C   UNL     1      49.897   5.876  16.699  0.00  0.00    +0.000 A 
ATOM     25  C   UNL     1      48.768   6.296  17.381  0.00  0.00    +0.000 A 
ATOM     26  C   UNL     1      48.269   7.568  17.098  0.00  0.00    +0.000 A 
ATOM     27  C   UNL     1      48.919   8.348  16.148  0.00  0.00    +0.000 A 
ATOM     28  F   UNL     1      48.429   9.564  15.864  0.00  0.00    +0.000 F 
BRANCH  25  29
ATOM     29  C   UNL     1      48.110   5.383  18.332  0.00  0.00    +0.000 C 
ATOM     30  N   UNL     1      46.761   5.521  18.512  0.00  0.00    +0.000 N 
ATOM     31  O   UNL     1      48.753   4.543  18.947  0.00  0.00    +0.000 OA
ATOM     32  H   UNL     1      46.217   6.291  18.149  0.00  0.00    +0.000 HD
ATOM     33  H   UNL     1      46.324   4.922  19.201  0.00  0.00    +0.000 HD
ENDBRANCH  25  29
ENDBRANCH  20  22
ENDBRANCH  19  20
ENDBRANCH   1  19
TORSDOF 7
ENDMDL
MODEL 8
REMARK VINA RESULT:    -6.429      3.655      8.781
REMARK INTER + INTRA:          -9.721
REMARK INTER:                  -8.799
REMARK INTRA:                  -0.923
REMARK UNBOUND:                -0.849
REMARK  Name = 
REMARK  8 active torsions:
REMARK  status: ('A' for Active; 'I' for Inactive)
REMARK    1  A    between atoms: C_1  and  C_2
REMARK    2  A    between atoms: C_2  and  O_3
REMARK    3  A    between atoms: C_5  and  N_6
REMARK    4  A    between atoms: C_9  and  C_10
REMARK    5  A    between atoms: C_10  and  C_13
REMARK    6  A    between atoms: C_13  and  N_14
REMARK    7  A    between atoms: N_14  and  C_15
REMARK    8  A    between atoms: C_18  and  C_19
REMARK                            x       y       z     vdW  Elec       q    Type
REMARK                         _______ _______ _______ _____ _____    ______ ____
ROOT
ATOM      1  C   UNL     1      49.029   9.022  13.553  0.00  0.00    +0.000 C 
ATOM      2  F   UNL     1      49.783   9.831  12.749  0.00  0.00    +0.000 F 
ATOM      3  F   UNL     1      48.820   9.752  14.695  0.00  0.00    +0.000 F 
ENDROOT
BRANCH   1   7
ATOM      4  N   UNL     1      46.110   5.655  11.449  0.00  0.00    +0.000 N 
ATOM      5  C   UNL     1      46.279   7.005  11.848  0.00  0.00    +0.000 A 
ATOM      6  C   UNL     1      47.465   7.346  12.495  0.00  0.00    +0.000 A 
ATOM      7  C   UNL     1      47.706   8.678  12.878  0.00  0.00    +0.000 A 
ATOM      8  C   UNL     1      46.701   9.612  12.609  0.00  0.00    +0.000 A 
ATOM      9  C   UNL     1      45.548   9.190  11.971  0.00  0.00    +0.000 A 
ATOM     10  N   UNL     1      45.329   7.916  11.574  0.00  0.00    +0.000 NA
ATOM     11  H   UNL     1      46.038   5.078  12.284  0.00  0.00    +0.000 HD
BRANCH   4  15
ATOM     12  C   UNL     1      45.921   2.843   8.024  0.00  0.00    +0.000 C 
ATOM     13  C   UNL     1      45.120   3.906   8.760  0.00  0.00    +0.000 C 
ATOM     14  C   UNL     1      45.903   5.213   9.040  0.00  0.00    +0.000 C 
ATOM     15  C   UNL     1      45.194   5.273  10.416  0.00  0.00    +0.000 C 
ATOM     16  C   UNL     1      45.020   3.735  10.306  0.00  0.00    +0.000 C 
BRANCH  13  17
ATOM     17  O   UNL     1      43.851   4.083   8.089  0.00  0.00    +0.000 OA
ATOM     18  H   UNL     1      43.795   5.037   7.906  0.00  0.00    +0.000 HD
ENDBRANCH  13  17
ENDBRANCH   4  15
ENDBRANCH   1   7
BRANCH   1  19
ATOM     19  C   UNL     1      49.876   7.784  13.943  0.00  0.00    +0.000 C 
BRANCH  19  20
ATOM     20  N   UNL     1      50.270   7.697  15.364  0.00  0.00    +0.000 N 
ATOM     21  H   UNL     1      50.086   8.560  15.880  0.00  0.00    +0.000 HD
BRANCH  20  22
ATOM     22  C   UNL     1      49.664   6.608  16.030  0.00  0.00    +0.000 A 
ATOM     23  N   UNL     1      48.533   6.068  15.518  0.00  0.00    +0.000 NA
ATOM     24  C   UNL     1      47.960   5.026  16.180  0.00  0.00    +0.000 A 
ATOM     25  C   UNL     1      48.485   4.460  17.329  0.00  0.00    +0.000 A 
ATOM     26  C   UNL     1      49.665   5.001  17.843  0.00  0.00    +0.000 A 
ATOM     27  C   UNL     1      50.251   6.079  17.187  0.00  0.00    +0.000 A 
ATOM     28  F   UNL     1      51.376   6.608  17.690  0.00  0.00    +0.000 F 
BRANCH  25  29
ATOM     29  C   UNL     1      47.770   3.356  17.991  0.00  0.00    +0.000 C 
ATOM     30  N   UNL     1      48.240   2.933  19.203  0.00  0.00    +0.000 N 
ATOM     31  O   UNL     1      46.798   2.830  17.465  0.00  0.00    +0.000 OA
ATOM     32  H   UNL     1      49.121   3.226  19.603  0.00  0.00    +0.000 HD
ATOM     33  H   UNL     1      47.772   2.143  19.630  0.00  0.00    +0.000 HD
ENDBRANCH  25  29
ENDBRANCH  20  22
ENDBRANCH  19  20
ENDBRANCH   1  19
TORSDOF 7
ENDMDL
MODEL 9
REMARK VINA RESULT:    -6.405      3.368      4.564
REMARK INTER + INTRA:          -9.688
REMARK INTER:                  -8.722
REMARK INTRA:                  -0.966
REMARK UNBOUND:                -0.849
REMARK  Name = 
REMARK  8 active torsions:
REMARK  status: ('A' for Active; 'I' for Inactive)
REMARK    1  A    between atoms: C_1  and  C_2
REMARK    2  A    between atoms: C_2  and  O_3
REMARK    3  A    between atoms: C_5  and  N_6
REMARK    4  A    between atoms: C_9  and  C_10
REMARK    5  A    between atoms: C_10  and  C_13
REMARK    6  A    between atoms: C_13  and  N_14
REMARK    7  A    between atoms: N_14  and  C_15
REMARK    8  A    between atoms: C_18  and  C_19
REMARK                            x       y       z     vdW  Elec       q    Type
REMARK                         _______ _______ _______ _____ _____    ______ ____
ROOT
ATOM      1  C   UNL     1      48.238   8.365  12.509  0.00  0.00    +0.000 C 
ATOM      2  F   UNL     1      48.906   9.370  11.868  0.00  0.00    +0.000 F 
ATOM      3  F   UNL     1      48.582   7.222  11.834  0.00  0.00    +0.000 F 
ENDROOT
BRANCH   1   7
ATOM      4  N   UNL     1      51.115   6.347  15.964  0.00  0.00    +0.000 N 
ATOM      5  C   UNL     1      50.094   7.282  15.659  0.00  0.00    +0.000 A 
ATOM      6  C   UNL     1      49.701   7.402  14.327  0.00  0.00    +0.000 A 
ATOM      7  C   UNL     1      48.665   8.284  13.970  0.00  0.00    +0.000 A 
ATOM      8  C   UNL     1      48.087   9.039  14.995  0.00  0.00    +0.000 A 
ATOM      9  C   UNL     1      48.541   8.868  16.291  0.00  0.00    +0.000 A 
ATOM     10  N   UNL     1      49.515   7.997  16.640  0.00  0.00    +0.000 NA
ATOM     11  H   UNL     1      51.983   6.668  15.543  0.00  0.00    +0.000 HD
BRANCH   4  15
ATOM     12  C   UNL     1      52.187   2.494  17.883  0.00  0.00    +0.000 C 
ATOM     13  C   UNL     1      51.808   3.934  18.194  0.00  0.00    +0.000 C 
ATOM     14  C   UNL     1      50.565   4.446  17.423  0.00  0.00    +0.000 C 
ATOM     15  C   UNL     1      51.289   5.809  17.281  0.00  0.00    +0.000 C 
ATOM     16  C   UNL     1      52.621   5.030  17.440  0.00  0.00    +0.000 C 
BRANCH  13  17
ATOM     17  O   UNL     1      51.752   4.104  19.629  0.00  0.00    +0.000 OA
ATOM     18  H   UNL     1      52.355   4.844  19.817  0.00  0.00    +0.000 HD
ENDBRANCH  13  17
ENDBRANCH   4  15
ENDBRANCH   1   7
BRANCH   1  19
ATOM     19  C   UNL     1      46.715   8.579  12.311  0.00  0.00    +0.000 C 
BRANCH  19  20
ATOM     20  N   UNL     1      45.836   7.847  13.246  0.00  0.00    +0.000 N 
ATOM     21  H   UNL     1      45.030   8.399  13.548  0.00  0.00    +0.000 HD
BRANCH  20  22
ATOM     22  C   UNL     1      45.394   6.611  12.722  0.00  0.00    +0.000 A 
ATOM     23  N   UNL     1      44.454   6.607  11.747  0.00  0.00    +0.000 NA
ATOM     24  C   UNL     1      44.036   5.405  11.262  0.00  0.00    +0.000 A 
ATOM     25  C   UNL     1      44.540   4.187  11.682  0.00  0.00    +0.000 A 
ATOM     26  C   UNL     1      45.527   4.193  12.669  0.00  0.00    +0.000 A 
ATOM     27  C   UNL     1      45.951   5.413  13.187  0.00  0.00    +0.000 A 
ATOM     28  F   UNL     1      46.887   5.417  14.147  0.00  0.00    +0.000 F 
BRANCH  25  29
ATOM     29  C   UNL     1      43.995   2.939  11.119  0.00  0.00    +0.000 C 
ATOM     30  N   UNL     1      44.674   2.364  10.081  0.00  0.00    +0.000 N 
ATOM     31  O   UNL     1      42.965   2.447  11.558  0.00  0.00    +0.000 OA
ATOM     32  H   UNL     1      45.435   2.808   9.585  0.00  0.00    +0.000 HD
ATOM     33  H   UNL     1      44.269   1.533   9.668  0.00  0.00    +0.000 HD
ENDBRANCH  25  29
ENDBRANCH  20  22
ENDBRANCH  19  20
ENDBRANCH   1  19
TORSDOF 7
ENDMDL
