MODEL 1
REMARK VINA RESULT:    -6.623      0.000      0.000
REMARK INTER + INTRA:          -8.791
REMARK INTER:                  -8.365
REMARK INTRA:                  -0.426
REMARK UNBOUND:                -0.426
REMARK  Name = 
REMARK  7 active torsions:
REMARK  status: ('A' for Active; 'I' for Inactive)
REMARK    1  A    between atoms: C_1  and  O_2
REMARK    2  A    between atoms: O_2  and  C_3
REMARK    3  A    between atoms: C_7  and  C_8
REMARK    4  A    between atoms: C_8  and  N_9
REMARK    5  A    between atoms: C_15  and  C_16
REMARK    6  A    between atoms: C_16  and  N_17
REMARK    7  A    between atoms: C_20  and  C_21
REMARK                            x       y       z     vdW  Elec       q    Type
REMARK                         _______ _______ _______ _____ _____    ______ ____
ROOT
ATOM      1  N   UNL     1      45.876   6.615  12.776  0.00  0.00    +0.000 N 
ATOM      2  C   UNL     1      46.394   7.829  12.390  0.00  0.00    +0.000 A 
ATOM      3  C   UNL     1      47.544   8.060  13.109  0.00  0.00    +0.000 A 
ATOM      4  C   UNL     1      47.741   6.950  13.971  0.00  0.00    +0.000 A 
ATOM      5  C   UNL     1      48.688   6.652  14.958  0.00  0.00    +0.000 A 
ATOM      6  N   UNL     1      48.614   5.500  15.663  0.00  0.00    +0.000 NA
ATOM      7  C   UNL     1      47.623   4.612  15.385  0.00  0.00    +0.000 A 
ATOM      8  C   UNL     1      46.637   4.828  14.419  0.00  0.00    +0.000 A 
ATOM      9  C   UNL     1      46.712   6.040  13.721  0.00  0.00    +0.000 A 
ENDROOT
BRANCH   1  10
ATOM     10  C   UNL     1      44.511   6.180  12.475  0.00  0.00    +0.000 C 
BRANCH  10  15
ATOM     11  C   UNL     1      44.413   3.308  10.039  0.00  0.00    +0.000 A 
ATOM     12  N   UNL     1      43.677   2.411  10.713  0.00  0.00    +0.000 NA
ATOM     13  C   UNL     1      43.353   2.757  11.959  0.00  0.00    +0.000 A 
ATOM     14  N   UNL     1      43.653   3.919  12.555  0.00  0.00    +0.000 NA
ATOM     15  C   UNL     1      44.400   4.808  11.848  0.00  0.00    +0.000 A 
ATOM     16  C   UNL     1      44.869   4.512  10.572  0.00  0.00    +0.000 A 
ATOM     17  C   UNL     1      45.731   5.416   9.743  0.00  0.00    +0.000 C 
BRANCH  11  19
ATOM     18  C   UNL     1      45.607   1.992   8.493  0.00  0.00    +0.000 C 
ATOM     19  O   UNL     1      44.694   3.067   8.704  0.00  0.00    +0.000 OA
ENDBRANCH  11  19
ENDBRANCH  10  15
ENDBRANCH   1  10
BRANCH   7  20
ATOM     20  C   UNL     1      47.565   3.382  16.265  0.00  0.00    +0.000 C 
BRANCH  20  21
ATOM     21  N   UNL     1      46.671   3.574  17.412  0.00  0.00    +0.000 NA
ATOM     22  H   UNL     1      47.178   4.146  18.092  0.00  0.00    +0.000 HD
ATOM     23  H   UNL     1      46.528   2.674  17.864  0.00  0.00    +0.000 HD
ENDBRANCH  20  21
ENDBRANCH   7  20
TORSDOF 5
ENDMDL
MODEL 2
REMARK VINA RESULT:    -6.494      2.137      3.857
REMARK INTER + INTRA:          -8.628
REMARK INTER:                  -7.969
REMARK INTRA:                  -0.660
REMARK UNBOUND:                -0.426
REMARK  Name = 
REMARK  7 active torsions:
REMARK  status: ('A' for Active; 'I' for Inactive)
REMARK    1  A    between atoms: C_1  and  O_2
REMARK    2  A    between atoms: O_2  and  C_3
REMARK    3  A    between atoms: C_7  and  C_8
REMARK    4  A    between atoms: C_8  and  N_9
REMARK    5  A    between atoms: C_15  and  C_16
REMARK    6  A    between atoms: C_16  and  N_17
REMARK    7  A    between atoms: C_20  and  C_21
REMARK                            x       y       z     vdW  Elec       q    Type
REMARK                         _______ _______ _______ _____ _____    ______ ____
ROOT
ATOM      1  N   UNL     1      45.037   5.108  12.334  0.00  0.00    +0.000 N 
ATOM      2  C   UNL     1      45.893   4.254  12.989  0.00  0.00    +0.000 A 
ATOM      3  C   UNL     1      46.868   5.004  13.606  0.00  0.00    +0.000 A 
ATOM      4  C   UNL     1      46.605   6.368  13.318  0.00  0.00    +0.000 A 
ATOM      5  C   UNL     1      47.272   7.562  13.617  0.00  0.00    +0.000 A 
ATOM      6  N   UNL     1      46.796   8.750  13.179  0.00  0.00    +0.000 NA
ATOM      7  C   UNL     1      45.641   8.780  12.464  0.00  0.00    +0.000 A 
ATOM      8  C   UNL     1      44.912   7.640  12.120  0.00  0.00    +0.000 A 
ATOM      9  C   UNL     1      45.436   6.417  12.557  0.00  0.00    +0.000 A 
ENDROOT
BRANCH   1  10
ATOM     10  C   UNL     1      44.078   4.677  11.316  0.00  0.00    +0.000 C 
BRANCH  10  15
ATOM     11  C   UNL     1      45.644   3.493   8.101  0.00  0.00    +0.000 A 
ATOM     12  N   UNL     1      45.210   2.224   8.043  0.00  0.00    +0.000 NA
ATOM     13  C   UNL     1      44.527   1.805   9.108  0.00  0.00    +0.000 A 
ATOM     14  N   UNL     1      44.204   2.546  10.177  0.00  0.00    +0.000 NA
ATOM     15  C   UNL     1      44.659   3.827  10.209  0.00  0.00    +0.000 A 
ATOM     16  C   UNL     1      45.458   4.340   9.191  0.00  0.00    +0.000 A 
ATOM     17  C   UNL     1      46.033   5.723   9.168  0.00  0.00    +0.000 C 
BRANCH  11  19
ATOM     18  C   UNL     1      46.798   3.055   6.094  0.00  0.00    +0.000 C 
ATOM     19  O   UNL     1      46.266   4.033   6.987  0.00  0.00    +0.000 OA
ENDBRANCH  11  19
ENDBRANCH  10  15
ENDBRANCH   1  10
BRANCH   7  20
ATOM     20  C   UNL     1      45.213  10.138  11.948  0.00  0.00    +0.000 C 
BRANCH  20  21
ATOM     21  N   UNL     1      43.785  10.384  12.180  0.00  0.00    +0.000 NA
ATOM     22  H   UNL     1      43.662  10.494  13.189  0.00  0.00    +0.000 HD
ATOM     23  H   UNL     1      43.269   9.543  11.931  0.00  0.00    +0.000 HD
ENDBRANCH  20  21
ENDBRANCH   7  20
TORSDOF 5
ENDMDL
MODEL 3
REMARK VINA RESULT:    -6.299      2.761      6.571
REMARK INTER + INTRA:          -8.382
REMARK INTER:                  -7.913
REMARK INTRA:                  -0.469
REMARK UNBOUND:                -0.426
REMARK  Name = 
REMARK  7 active torsions:
REMARK  status: ('A' for Active; 'I' for Inactive)
REMARK    1  A    between atoms: C_1  and  O_2
REMARK    2  A    between atoms: O_2  and  C_3
REMARK    3  A    between atoms: C_7  and  C_8
REMARK    4  A    between atoms: C_8  and  N_9
REMARK    5  A    between atoms: C_15  and  C_16
REMARK    6  A    between atoms: C_16  and  N_17
REMARK    7  A    between atoms: C_20  and  C_21
REMARK                            x       y       z     vdW  Elec       q    Type
REMARK                         _______ _______ _______ _____ _____    ______ ____
ROOT
ATOM      1  N   UNL     1      44.212   4.934  11.311  0.00  0.00    +0.000 N 
ATOM      2  C   UNL     1      43.419   4.107  12.072  0.00  0.00    +0.000 A 
ATOM      3  C   UNL     1      43.391   2.865  11.481  0.00  0.00    +0.000 A 
ATOM      4  C   UNL     1      44.193   2.929  10.312  0.00  0.00    +0.000 A 
ATOM      5  C   UNL     1      44.489   2.014   9.295  0.00  0.00    +0.000 A 
ATOM      6  N   UNL     1      45.283   2.364   8.258  0.00  0.00    +0.000 NA
ATOM      7  C   UNL     1      45.820   3.611   8.223  0.00  0.00    +0.000 A 
ATOM      8  C   UNL     1      45.579   4.586   9.193  0.00  0.00    +0.000 A 
ATOM      9  C   UNL     1      44.729   4.216  10.243  0.00  0.00    +0.000 A 
ENDROOT
BRANCH   1  10
ATOM     10  C   UNL     1      44.226   6.392  11.437  0.00  0.00    +0.000 C 
BRANCH  10  15
ATOM     11  C   UNL     1      46.925   8.600  12.862  0.00  0.00    +0.000 A 
ATOM     12  N   UNL     1      47.724   7.698  13.453  0.00  0.00    +0.000 NA
ATOM     13  C   UNL     1      47.275   6.443  13.441  0.00  0.00    +0.000 A 
ATOM     14  N   UNL     1      46.147   6.016  12.858  0.00  0.00    +0.000 NA
ATOM     15  C   UNL     1      45.357   6.952  12.269  0.00  0.00    +0.000 A 
ATOM     16  C   UNL     1      45.684   8.305  12.301  0.00  0.00    +0.000 A 
ATOM     17  C   UNL     1      44.851   9.403  11.714  0.00  0.00    +0.000 C 
BRANCH  11  19
ATOM     18  C   UNL     1      48.499  10.045  11.870  0.00  0.00    +0.000 C 
ATOM     19  O   UNL     1      47.375   9.904  12.737  0.00  0.00    +0.000 OA
ENDBRANCH  11  19
ENDBRANCH  10  15
ENDBRANCH   1  10
BRANCH   7  20
ATOM     20  C   UNL     1      46.638   3.949   6.994  0.00  0.00    +0.000 C 
BRANCH  20  21
ATOM     21  N   UNL     1      47.782   3.044   6.835  0.00  0.00    +0.000 NA
ATOM     22  H   UNL     1      47.528   2.370   6.109  0.00  0.00    +0.000 HD
ATOM     23  H   UNL     1      47.884   2.501   7.689  0.00  0.00    +0.000 HD
ENDBRANCH  20  21
ENDBRANCH   7  20
TORSDOF 5
ENDMDL
MODEL 4
REMARK VINA RESULT:    -5.828      2.792      6.242
REMARK INTER + INTRA:          -7.787
REMARK INTER:                  -7.202
REMARK INTRA:                  -0.585
REMARK UNBOUND:                -0.426
REMARK  Name = 
REMARK  7 active torsions:
REMARK  status: ('A' for Active; 'I' for Inactive)
REMARK    1  A    between atoms: C_1  and  O_2
REMARK    2  A    between atoms: O_2  and  C_3
REMARK    3  A    between atoms: C_7  and  C_8
REMARK    4  A    between atoms: C_8  and  N_9
REMARK    5  A    between atoms: C_15  and  C_16
REMARK    6  A    between atoms: C_16  and  N_17
REMARK    7  A    between atoms: C_20  and  C_21
REMARK                            x       y       z     vdW  Elec       q    Type
REMARK                         _______ _______ _______ _____ _____    ______ ____
ROOT
ATOM      1  N   UNL     1      46.459   6.506  13.034  0.00  0.00    +0.000 N 
ATOM      2  C   UNL     1      46.237   7.863  13.061  0.00  0.00    +0.000 A 
ATOM      3  C   UNL     1      45.091   8.131  12.348  0.00  0.00    +0.000 A 
ATOM      4  C   UNL     1      44.591   6.896  11.862  0.00  0.00    +0.000 A 
ATOM      5  C   UNL     1      43.510   6.550  11.042  0.00  0.00    +0.000 A 
ATOM      6  N   UNL     1      43.279   5.260  10.708  0.00  0.00    +0.000 NA
ATOM      7  C   UNL     1      44.094   4.290  11.200  0.00  0.00    +0.000 A 
ATOM      8  C   UNL     1      45.194   4.544  12.022  0.00  0.00    +0.000 A 
ATOM      9  C   UNL     1      45.435   5.889  12.332  0.00  0.00    +0.000 A 
ENDROOT
BRANCH   1  10
ATOM     10  C   UNL     1      47.731   5.881  13.400  0.00  0.00    +0.000 C 
BRANCH  10  15
ATOM     11  C   UNL     1      48.686   5.228  16.985  0.00  0.00    +0.000 A 
ATOM     12  N   UNL     1      48.215   3.984  17.165  0.00  0.00    +0.000 NA
ATOM     13  C   UNL     1      47.522   3.482  16.143  0.00  0.00    +0.000 A 
ATOM     14  N   UNL     1      47.310   4.085  14.965  0.00  0.00    +0.000 NA
ATOM     15  C   UNL     1      47.798   5.344  14.812  0.00  0.00    +0.000 A 
ATOM     16  C   UNL     1      48.458   5.999  15.848  0.00  0.00    +0.000 A 
ATOM     17  C   UNL     1      48.990   7.398  15.777  0.00  0.00    +0.000 C 
BRANCH  11  19
ATOM     18  C   UNL     1      50.080   4.805  18.836  0.00  0.00    +0.000 C 
ATOM     19  O   UNL     1      49.508   5.773  17.958  0.00  0.00    +0.000 OA
ENDBRANCH  11  19
ENDBRANCH  10  15
ENDBRANCH   1  10
BRANCH   7  20
ATOM     20  C   UNL     1      43.814   2.881  10.721  0.00  0.00    +0.000 C 
BRANCH  20  21
ATOM     21  N   UNL     1      43.026   2.120  11.698  0.00  0.00    +0.000 NA
ATOM     22  H   UNL     1      43.619   1.353  12.025  0.00  0.00    +0.000 HD
ATOM     23  H   UNL     1      42.250   1.678  11.211  0.00  0.00    +0.000 HD
ENDBRANCH  20  21
ENDBRANCH   7  20
TORSDOF 5
ENDMDL
MODEL 5
REMARK VINA RESULT:    -5.802      2.101      3.162
REMARK INTER + INTRA:          -7.754
REMARK INTER:                  -7.158
REMARK INTRA:                  -0.596
REMARK UNBOUND:                -0.426
REMARK  Name = 
REMARK  7 active torsions:
REMARK  status: ('A' for Active; 'I' for Inactive)
REMARK    1  A    between atoms: C_1  and  O_2
REMARK    2  A    between atoms: O_2  and  C_3
REMARK    3  A    between atoms: C_7  and  C_8
REMARK    4  A    between atoms: C_8  and  N_9
REMARK    5  A    between atoms: C_15  and  C_16
REMARK    6  A    between atoms: C_16  and  N_17
REMARK    7  A    between atoms: C_20  and  C_21
REMARK                            x       y       z     vdW  Elec       q    Type
REMARK                         _______ _______ _______ _____ _____    ______ ____
ROOT
ATOM      1  N   UNL     1      48.519   6.892  14.297  0.00  0.00    +0.000 N 
ATOM      2  C   UNL     1      48.764   8.245  14.313  0.00  0.00    +0.000 A 
ATOM      3  C   UNL     1      48.882   8.650  15.622  0.00  0.00    +0.000 A 
ATOM      4  C   UNL     1      48.701   7.507  16.443  0.00  0.00    +0.000 A 
ATOM      5  C   UNL     1      48.653   7.312  17.828  0.00  0.00    +0.000 A 
ATOM      6  N   UNL     1      48.431   6.083  18.348  0.00  0.00    +0.000 NA
ATOM      7  C   UNL     1      48.283   5.024  17.510  0.00  0.00    +0.000 A 
ATOM      8  C   UNL     1      48.315   5.127  16.117  0.00  0.00    +0.000 A 
ATOM      9  C   UNL     1      48.515   6.412  15.597  0.00  0.00    +0.000 A 
ENDROOT
BRANCH   1  10
ATOM     10  C   UNL     1      48.023   6.168  13.125  0.00  0.00    +0.000 C 
BRANCH  10  15
ATOM     11  C   UNL     1      44.646   4.510  12.930  0.00  0.00    +0.000 A 
ATOM     12  N   UNL     1      43.857   5.549  12.614  0.00  0.00    +0.000 NA
ATOM     13  C   UNL     1      44.458   6.738  12.591  0.00  0.00    +0.000 A 
ATOM     14  N   UNL     1      45.761   6.964  12.803  0.00  0.00    +0.000 NA
ATOM     15  C   UNL     1      46.536   5.894  13.123  0.00  0.00    +0.000 A 
ATOM     16  C   UNL     1      45.994   4.620  13.264  0.00  0.00    +0.000 A 
ATOM     17  C   UNL     1      46.768   3.397  13.653  0.00  0.00    +0.000 C 
BRANCH  11  19
ATOM     18  C   UNL     1      43.419   2.957  11.653  0.00  0.00    +0.000 C 
ATOM     19  O   UNL     1      44.118   3.231  12.866  0.00  0.00    +0.000 OA
ENDBRANCH  11  19
ENDBRANCH  10  15
ENDBRANCH   1  10
BRANCH   7  20
ATOM     20  C   UNL     1      47.966   3.697  18.165  0.00  0.00    +0.000 C 
BRANCH  20  21
ATOM     21  N   UNL     1      46.749   3.092  17.611  0.00  0.00    +0.000 NA
ATOM     22  H   UNL     1      45.964   3.446  18.162  0.00  0.00    +0.000 HD
ATOM     23  H   UNL     1      46.778   2.090  17.788  0.00  0.00    +0.000 HD
ENDBRANCH  20  21
ENDBRANCH   7  20
TORSDOF 5
ENDMDL
MODEL 6
REMARK VINA RESULT:    -5.413      2.778      3.894
REMARK INTER + INTRA:          -7.263
REMARK INTER:                  -6.713
REMARK INTRA:                  -0.549
REMARK UNBOUND:                -0.426
REMARK  Name = 
REMARK  7 active torsions:
REMARK  status: ('A' for Active; 'I' for Inactive)
REMARK    1  A    between atoms: C_1  and  O_2
REMARK    2  A    between atoms: O_2  and  C_3
REMARK    3  A    between atoms: C_7  and  C_8
REMARK    4  A    between atoms: C_8  and  N_9
REMARK    5  A    between atoms: C_15  and  C_16
REMARK    6  A    between atoms: C_16  and  N_17
REMARK    7  A    between atoms: C_20  and  C_21
REMARK                            x       y       z     vdW  Elec       q    Type
REMARK                         _______ _______ _______ _____ _____    ______ ____
ROOT
ATOM      1  N   UNL     1      48.710   7.644  15.021  0.00  0.00    +0.000 N 
ATOM      2  C   UNL     1      48.272   8.936  15.192  0.00  0.00    +0.000 A 
ATOM      3  C   UNL     1      48.063   9.152  16.534  0.00  0.00    +0.000 A 
ATOM      4  C   UNL     1      48.379   7.948  17.216  0.00  0.00    +0.000 A 
ATOM      5  C   UNL     1      48.307   7.552  18.556  0.00  0.00    +0.000 A 
ATOM      6  N   UNL     1      48.656   6.299  18.928  0.00  0.00    +0.000 NA
ATOM      7  C   UNL     1      49.111   5.429  17.988  0.00  0.00    +0.000 A 
ATOM      8  C   UNL     1      49.215   5.739  16.631  0.00  0.00    +0.000 A 
ATOM      9  C   UNL     1      48.819   7.031  16.260  0.00  0.00    +0.000 A 
ENDROOT
BRANCH   1  10
ATOM     10  C   UNL     1      48.730   6.954  13.730  0.00  0.00    +0.000 C 
BRANCH  10  15
ATOM     11  C   UNL     1      45.251   5.619  13.180  0.00  0.00    +0.000 A 
ATOM     12  N   UNL     1      45.407   4.325  13.501  0.00  0.00    +0.000 NA
ATOM     13  C   UNL     1      46.657   3.950  13.771  0.00  0.00    +0.000 A 
ATOM     14  N   UNL     1      47.731   4.752  13.796  0.00  0.00    +0.000 NA
ATOM     15  C   UNL     1      47.543   6.057  13.465  0.00  0.00    +0.000 A 
ATOM     16  C   UNL     1      46.294   6.536  13.078  0.00  0.00    +0.000 A 
ATOM     17  C   UNL     1      46.009   7.946  12.659  0.00  0.00    +0.000 C 
BRANCH  11  19
ATOM     18  C   UNL     1      42.971   5.088  12.916  0.00  0.00    +0.000 C 
ATOM     19  O   UNL     1      43.967   6.106  12.995  0.00  0.00    +0.000 OA
ENDBRANCH  11  19
ENDBRANCH  10  15
ENDBRANCH   1  10
BRANCH   7  20
ATOM     20  C   UNL     1      49.413   4.026  18.471  0.00  0.00    +0.000 C 
BRANCH  20  21
ATOM     21  N   UNL     1      48.540   3.634  19.584  0.00  0.00    +0.000 NA
ATOM     22  H   UNL     1      48.352   4.479  20.127  0.00  0.00    +0.000 HD
ATOM     23  H   UNL     1      49.064   3.021  20.204  0.00  0.00    +0.000 HD
ENDBRANCH  20  21
ENDBRANCH   7  20
TORSDOF 5
ENDMDL
MODEL 7
REMARK VINA RESULT:    -5.385      3.497      7.134
REMARK INTER + INTRA:          -7.228
REMARK INTER:                  -6.897
REMARK INTRA:                  -0.331
REMARK UNBOUND:                -0.426
REMARK  Name = 
REMARK  7 active torsions:
REMARK  status: ('A' for Active; 'I' for Inactive)
REMARK    1  A    between atoms: C_1  and  O_2
REMARK    2  A    between atoms: O_2  and  C_3
REMARK    3  A    between atoms: C_7  and  C_8
REMARK    4  A    between atoms: C_8  and  N_9
REMARK    5  A    between atoms: C_15  and  C_16
REMARK    6  A    between atoms: C_16  and  N_17
REMARK    7  A    between atoms: C_20  and  C_21
REMARK                            x       y       z     vdW  Elec       q    Type
REMARK                         _______ _______ _______ _____ _____    ______ ____
ROOT
ATOM      1  N   UNL     1      47.192   5.090  14.877  0.00  0.00    +0.000 N 
ATOM      2  C   UNL     1      48.273   5.940  14.904  0.00  0.00    +0.000 A 
ATOM      3  C   UNL     1      48.293   6.656  13.730  0.00  0.00    +0.000 A 
ATOM      4  C   UNL     1      47.187   6.231  12.950  0.00  0.00    +0.000 A 
ATOM      5  C   UNL     1      46.733   6.551  11.664  0.00  0.00    +0.000 A 
ATOM      6  N   UNL     1      45.635   5.954  11.149  0.00  0.00    +0.000 NA
ATOM      7  C   UNL     1      44.951   5.055  11.903  0.00  0.00    +0.000 A 
ATOM      8  C   UNL     1      45.331   4.676  13.193  0.00  0.00    +0.000 A 
ATOM      9  C   UNL     1      46.489   5.282  13.698  0.00  0.00    +0.000 A 
ENDROOT
BRANCH   1  10
ATOM     10  C   UNL     1      47.023   3.959  15.790  0.00  0.00    +0.000 C 
BRANCH  10  15
ATOM     11  C   UNL     1      49.324   4.566  18.710  0.00  0.00    +0.000 A 
ATOM     12  N   UNL     1      50.362   3.773  18.402  0.00  0.00    +0.000 NA
ATOM     13  C   UNL     1      50.198   3.011  17.321  0.00  0.00    +0.000 A 
ATOM     14  N   UNL     1      49.130   3.013  16.512  0.00  0.00    +0.000 NA
ATOM     15  C   UNL     1      48.093   3.825  16.850  0.00  0.00    +0.000 A 
ATOM     16  C   UNL     1      48.121   4.596  18.008  0.00  0.00    +0.000 A 
ATOM     17  C   UNL     1      47.008   5.485  18.474  0.00  0.00    +0.000 C 
BRANCH  11  19
ATOM     18  C   UNL     1      49.515   4.850  21.041  0.00  0.00    +0.000 C 
ATOM     19  O   UNL     1      49.463   5.465  19.755  0.00  0.00    +0.000 OA
ENDBRANCH  11  19
ENDBRANCH  10  15
ENDBRANCH   1  10
BRANCH   7  20
ATOM     20  C   UNL     1      43.776   4.377  11.229  0.00  0.00    +0.000 C 
BRANCH  20  21
ATOM     21  N   UNL     1      43.497   4.957   9.910  0.00  0.00    +0.000 NA
ATOM     22  H   UNL     1      42.637   5.503  10.002  0.00  0.00    +0.000 HD
ATOM     23  H   UNL     1      43.274   4.201   9.267  0.00  0.00    +0.000 HD
ENDBRANCH  20  21
ENDBRANCH   7  20
TORSDOF 5
ENDMDL
MODEL 8
REMARK VINA RESULT:    -5.119      3.285      5.659
REMARK INTER + INTRA:          -6.892
REMARK INTER:                  -6.196
REMARK INTRA:                  -0.697
REMARK UNBOUND:                -0.426
REMARK  Name = 
REMARK  7 active torsions:
REMARK  status: ('A' for Active; 'I' for Inactive)
REMARK    1  A    between atoms: C_1  and  O_2
REMARK    2  A    between atoms: O_2  and  C_3
REMARK    3  A    between atoms: C_7  and  C_8
REMARK    4  A    between atoms: C_8  and  N_9
REMARK    5  A    between atoms: C_15  and  C_16
REMARK    6  A    between atoms: C_16  and  N_17
REMARK    7  A    between atoms: C_20  and  C_21
REMARK                            x       y       z     vdW  Elec       q    Type
REMARK                         _______ _______ _______ _____ _____    ______ ____
ROOT
ATOM      1  N   UNL     1      46.187   7.142  12.798  0.00  0.00    +0.000 N 
ATOM      2  C   UNL     1      45.651   6.959  11.545  0.00  0.00    +0.000 A 
ATOM      3  C   UNL     1      45.550   5.608  11.307  0.00  0.00    +0.000 A 
ATOM      4  C   UNL     1      46.045   4.933  12.454  0.00  0.00    +0.000 A 
ATOM      5  C   UNL     1      46.244   3.584  12.767  0.00  0.00    +0.000 A 
ATOM      6  N   UNL     1      46.772   3.219  13.958  0.00  0.00    +0.000 NA
ATOM      7  C   UNL     1      47.084   4.179  14.868  0.00  0.00    +0.000 A 
ATOM      8  C   UNL     1      46.920   5.547  14.639  0.00  0.00    +0.000 A 
ATOM      9  C   UNL     1      46.401   5.906  13.389  0.00  0.00    +0.000 A 
ENDROOT
BRANCH   1  10
ATOM     10  C   UNL     1      46.736   8.413  13.272  0.00  0.00    +0.000 C 
BRANCH  10  15
ATOM     11  C   UNL     1      49.814   9.594  11.449  0.00  0.00    +0.000 A 
ATOM     12  N   UNL     1      49.382  10.745  10.912  0.00  0.00    +0.000 NA
ATOM     13  C   UNL     1      48.087  11.007  11.088  0.00  0.00    +0.000 A 
ATOM     14  N   UNL     1      47.220  10.258  11.783  0.00  0.00    +0.000 NA
ATOM     15  C   UNL     1      47.686   9.097  12.314  0.00  0.00    +0.000 A 
ATOM     16  C   UNL     1      48.999   8.681  12.115  0.00  0.00    +0.000 A 
ATOM     17  C   UNL     1      49.581   7.399  12.629  0.00  0.00    +0.000 C 
BRANCH  11  19
ATOM     18  C   UNL     1      51.842   9.887  10.286  0.00  0.00    +0.000 C 
ATOM     19  O   UNL     1      51.169   9.308  11.403  0.00  0.00    +0.000 OA
ENDBRANCH  11  19
ENDBRANCH  10  15
ENDBRANCH   1  10
BRANCH   7  20
ATOM     20  C   UNL     1      47.738   3.696  16.145  0.00  0.00    +0.000 C 
BRANCH  20  21
ATOM     21  N   UNL     1      46.747   3.230  17.122  0.00  0.00    +0.000 NA
ATOM     22  H   UNL     1      45.993   3.921  17.132  0.00  0.00    +0.000 HD
ATOM     23  H   UNL     1      47.165   3.267  18.048  0.00  0.00    +0.000 HD
ENDBRANCH  20  21
ENDBRANCH   7  20
TORSDOF 5
ENDMDL
MODEL 9
REMARK VINA RESULT:    -4.912      3.159      4.418
REMARK INTER + INTRA:          -6.630
REMARK INTER:                  -5.995
REMARK INTRA:                  -0.635
REMARK UNBOUND:                -0.426
REMARK  Name = 
REMARK  7 active torsions:
REMARK  status: ('A' for Active; 'I' for Inactive)
REMARK    1  A    between atoms: C_1  and  O_2
REMARK    2  A    between atoms: O_2  and  C_3
REMARK    3  A    between atoms: C_7  and  C_8
REMARK    4  A    between atoms: C_8  and  N_9
REMARK    5  A    between atoms: C_15  and  C_16
REMARK    6  A    between atoms: C_16  and  N_17
REMARK    7  A    between atoms: C_20  and  C_21
REMARK                            x       y       z     vdW  Elec       q    Type
REMARK                         _______ _______ _______ _____ _____    ______ ____
ROOT
ATOM      1  N   UNL     1      49.106   7.423  15.135  0.00  0.00    +0.000 N 
ATOM      2  C   UNL     1      49.157   8.724  15.579  0.00  0.00    +0.000 A 
ATOM      3  C   UNL     1      48.865   8.737  16.923  0.00  0.00    +0.000 A 
ATOM      4  C   UNL     1      48.622   7.397  17.322  0.00  0.00    +0.000 A 
ATOM      5  C   UNL     1      48.230   6.807  18.529  0.00  0.00    +0.000 A 
ATOM      6  N   UNL     1      48.041   5.470  18.617  0.00  0.00    +0.000 NA
ATOM      7  C   UNL     1      48.264   4.694  17.525  0.00  0.00    +0.000 A 
ATOM      8  C   UNL     1      48.655   5.198  16.282  0.00  0.00    +0.000 A 
ATOM      9  C   UNL     1      48.816   6.587  16.202  0.00  0.00    +0.000 A 
ENDROOT
BRANCH   1  10
ATOM     10  C   UNL     1      49.043   7.047  13.722  0.00  0.00    +0.000 C 
BRANCH  10  15
ATOM     11  C   UNL     1      45.787   8.273  12.278  0.00  0.00    +0.000 A 
ATOM     12  N   UNL     1      44.994   7.206  12.462  0.00  0.00    +0.000 NA
ATOM     13  C   UNL     1      45.599   6.121  12.945  0.00  0.00    +0.000 A 
ATOM     14  N   UNL     1      46.888   6.031  13.298  0.00  0.00    +0.000 NA
ATOM     15  C   UNL     1      47.668   7.127  13.099  0.00  0.00    +0.000 A 
ATOM     16  C   UNL     1      47.160   8.284  12.516  0.00  0.00    +0.000 A 
ATOM     17  C   UNL     1      47.957   9.519  12.224  0.00  0.00    +0.000 C 
BRANCH  11  19
ATOM     18  C   UNL     1      44.089   9.308  11.015  0.00  0.00    +0.000 C 
ATOM     19  O   UNL     1      45.209   9.469  11.883  0.00  0.00    +0.000 OA
ENDBRANCH  11  19
ENDBRANCH  10  15
ENDBRANCH   1  10
BRANCH   7  20
ATOM     20  C   UNL     1      47.960   3.219  17.684  0.00  0.00    +0.000 C 
BRANCH  20  21
ATOM     21  N   UNL     1      46.517   2.955  17.663  0.00  0.00    +0.000 NA
ATOM     22  H   UNL     1      46.284   2.651  16.715  0.00  0.00    +0.000 HD
ATOM     23  H   UNL     1      46.026   3.836  17.796  0.00  0.00    +0.000 HD
ENDBRANCH  20  21
ENDBRANCH   7  20
TORSDOF 5
ENDMDL
