MODEL 1
REMARK VINA RESULT:    -8.430      0.000      0.000
REMARK INTER + INTRA:         -11.578
REMARK INTER:                 -10.894
REMARK INTRA:                  -0.684
REMARK UNBOUND:                -0.684
REMARK  Name = 
REMARK  5 active torsions:
REMARK  status: ('A' for Active; 'I' for Inactive)
REMARK    1  A    between atoms: C_2  and  C_4
REMARK    2  A    between atoms: C_7  and  C_8
REMARK    3  A    between atoms: C_8  and  S_9
REMARK    4  A    between atoms: S_9  and  C_10
REMARK    5  A    between atoms: C_14  and  N_15
REMARK                            x       y       z     vdW  Elec       q    Type
REMARK                         _______ _______ _______ _____ _____    ______ ____
ROOT
ATOM      1  S   UNL     1      43.695   3.246  11.811  0.00  0.00    +0.000 S 
ENDROOT
BRANCH   1   2
ATOM      2  C   UNL     1      45.074   4.023  12.618  0.00  0.00    +0.000 A 
ATOM      3  N   UNL     1      45.989   3.272  13.242  0.00  0.00    +0.000 NA
ATOM      4  C   UNL     1      47.019   3.950  13.774  0.00  0.00    +0.000 A 
ATOM      5  C   UNL     1      47.150   5.322  13.710  0.00  0.00    +0.000 A 
ATOM      6  C   UNL     1      46.146   6.028  13.076  0.00  0.00    +0.000 A 
ATOM      7  N   UNL     1      45.113   5.367  12.525  0.00  0.00    +0.000 NA
BRANCH   6   8
ATOM      8  N   UNL     1      46.242   7.408  12.903  0.00  0.00    +0.000 N 
ATOM      9  C   UNL     1      47.610   7.950  12.740  0.00  0.00    +0.000 C 
ATOM     10  C   UNL     1      47.574   9.472  12.974  0.00  0.00    +0.000 C 
ATOM     11  O   UNL     1      46.642  10.127  12.096  0.00  0.00    +0.000 OA
ATOM     12  C   UNL     1      45.322   9.591  12.279  0.00  0.00    +0.000 C 
ATOM     13  C   UNL     1      45.286   8.078  12.002  0.00  0.00    +0.000 C 
ENDBRANCH   6   8
ENDBRANCH   1   2
BRANCH   1  14
ATOM     14  C   UNL     1      43.654   4.137  10.215  0.00  0.00    +0.000 C 
BRANCH  14  18
ATOM     15  C   UNL     1      46.608   2.677   7.466  0.00  0.00    +0.000 A 
ATOM     16  C   UNL     1      45.977   1.776   8.320  0.00  0.00    +0.000 A 
ATOM     17  C   UNL     1      45.021   2.244   9.225  0.00  0.00    +0.000 A 
ATOM     18  C   UNL     1      44.699   3.602   9.249  0.00  0.00    +0.000 A 
ATOM     19  N   UNL     1      45.319   4.494   8.432  0.00  0.00    +0.000 NA
ATOM     20  C   UNL     1      46.256   4.015   7.570  0.00  0.00    +0.000 A 
BRANCH  15  22
ATOM     21  N   UNL     1      47.812   3.068   5.387  0.00  0.00    +0.000 N 
ATOM     22  C   UNL     1      47.646   2.278   6.491  0.00  0.00    +0.000 C 
ATOM     23  O   UNL     1      48.351   1.295   6.675  0.00  0.00    +0.000 OA
ATOM     24  H   UNL     1      48.589   2.834   4.780  0.00  0.00    +0.000 HD
ATOM     25  H   UNL     1      47.436   4.003   5.322  0.00  0.00    +0.000 HD
ENDBRANCH  15  22
ENDBRANCH  14  18
ENDBRANCH   1  14
TORSDOF 5
ENDMDL
MODEL 2
REMARK VINA RESULT:    -8.301      2.512      3.666
REMARK INTER + INTRA:         -11.412
REMARK INTER:                 -10.941
REMARK INTRA:                  -0.471
REMARK UNBOUND:                -0.684
REMARK  Name = 
REMARK  5 active torsions:
REMARK  status: ('A' for Active; 'I' for Inactive)
REMARK    1  A    between atoms: C_2  and  C_4
REMARK    2  A    between atoms: C_7  and  C_8
REMARK    3  A    between atoms: C_8  and  S_9
REMARK    4  A    between atoms: S_9  and  C_10
REMARK    5  A    between atoms: C_14  and  N_15
REMARK                            x       y       z     vdW  Elec       q    Type
REMARK                         _______ _______ _______ _____ _____    ______ ____
ROOT
ATOM      1  S   UNL     1      43.898   4.128  12.017  0.00  0.00    +0.000 S 
ENDROOT
BRANCH   1   2
ATOM      2  C   UNL     1      45.410   4.880  12.568  0.00  0.00    +0.000 A 
ATOM      3  N   UNL     1      46.014   5.797  11.804  0.00  0.00    +0.000 NA
ATOM      4  C   UNL     1      47.121   6.344  12.333  0.00  0.00    +0.000 A 
ATOM      5  C   UNL     1      47.631   6.002  13.568  0.00  0.00    +0.000 A 
ATOM      6  C   UNL     1      46.966   5.023  14.282  0.00  0.00    +0.000 A 
ATOM      7  N   UNL     1      45.849   4.473  13.776  0.00  0.00    +0.000 NA
BRANCH   6   8
ATOM      8  N   UNL     1      47.375   4.676  15.569  0.00  0.00    +0.000 N 
ATOM      9  C   UNL     1      47.650   3.239  15.799  0.00  0.00    +0.000 C 
ATOM     10  C   UNL     1      47.679   2.975  17.316  0.00  0.00    +0.000 C 
ATOM     11  O   UNL     1      48.642   3.808  17.986  0.00  0.00    +0.000 OA
ATOM     12  C   UNL     1      48.348   5.195  17.756  0.00  0.00    +0.000 C 
ATOM     13  C   UNL     1      48.362   5.531  16.255  0.00  0.00    +0.000 C 
ENDBRANCH   6   8
ENDBRANCH   1   2
BRANCH   1  14
ATOM     14  C   UNL     1      43.811   4.706  10.285  0.00  0.00    +0.000 C 
BRANCH  14  18
ATOM     15  C   UNL     1      46.417   2.480   7.703  0.00  0.00    +0.000 A 
ATOM     16  C   UNL     1      45.655   1.794   8.646  0.00  0.00    +0.000 A 
ATOM     17  C   UNL     1      44.811   2.512   9.498  0.00  0.00    +0.000 A 
ATOM     18  C   UNL     1      44.730   3.901   9.380  0.00  0.00    +0.000 A 
ATOM     19  N   UNL     1      45.481   4.583   8.475  0.00  0.00    +0.000 NA
ATOM     20  C   UNL     1      46.306   3.862   7.668  0.00  0.00    +0.000 A 
BRANCH  15  22
ATOM     21  N   UNL     1      48.410   2.538   6.308  0.00  0.00    +0.000 N 
ATOM     22  C   UNL     1      47.353   1.808   6.776  0.00  0.00    +0.000 C 
ATOM     23  O   UNL     1      47.207   0.634   6.460  0.00  0.00    +0.000 OA
ATOM     24  H   UNL     1      49.092   2.036   5.751  0.00  0.00    +0.000 HD
ATOM     25  H   UNL     1      48.704   3.408   6.729  0.00  0.00    +0.000 HD
ENDBRANCH  15  22
ENDBRANCH  14  18
ENDBRANCH   1  14
TORSDOF 5
ENDMDL
MODEL 3
REMARK VINA RESULT:    -7.794      1.456      2.038
REMARK INTER + INTRA:         -10.756
REMARK INTER:                 -10.158
REMARK INTRA:                  -0.598
REMARK UNBOUND:                -0.684
REMARK  Name = 
REMARK  5 active torsions:
REMARK  status: ('A' for Active; 'I' for Inactive)
REMARK    1  A    between atoms: C_2  and  C_4
REMARK    2  A    between atoms: C_7  and  C_8
REMARK    3  A    between atoms: C_8  and  S_9
REMARK    4  A    between atoms: S_9  and  C_10
REMARK    5  A    between atoms: C_14  and  N_15
REMARK                            x       y       z     vdW  Elec       q    Type
REMARK                         _______ _______ _______ _____ _____    ______ ____
ROOT
ATOM      1  S   UNL     1      43.621   5.000  11.090  0.00  0.00    +0.000 S 
ENDROOT
BRANCH   1   2
ATOM      2  C   UNL     1      44.996   5.215  12.194  0.00  0.00    +0.000 A 
ATOM      3  N   UNL     1      45.137   4.401  13.247  0.00  0.00    +0.000 NA
ATOM      4  C   UNL     1      46.237   4.611  13.988  0.00  0.00    +0.000 A 
ATOM      5  C   UNL     1      47.170   5.591  13.719  0.00  0.00    +0.000 A 
ATOM      6  C   UNL     1      46.935   6.409  12.631  0.00  0.00    +0.000 A 
ATOM      7  N   UNL     1      45.847   6.208  11.868  0.00  0.00    +0.000 NA
BRANCH   6   8
ATOM      8  N   UNL     1      47.868   7.373  12.247  0.00  0.00    +0.000 N 
ATOM      9  C   UNL     1      47.504   8.780  12.529  0.00  0.00    +0.000 C 
ATOM     10  C   UNL     1      48.411   9.705  11.697  0.00  0.00    +0.000 C 
ATOM     11  O   UNL     1      49.804   9.461  11.955  0.00  0.00    +0.000 OA
ATOM     12  C   UNL     1      50.135   8.094  11.666  0.00  0.00    +0.000 C 
ATOM     13  C   UNL     1      49.297   7.121  12.513  0.00  0.00    +0.000 C 
ENDBRANCH   6   8
ENDBRANCH   1   2
BRANCH   1  14
ATOM     14  C   UNL     1      43.788   3.238  10.634  0.00  0.00    +0.000 C 
BRANCH  14  18
ATOM     15  C   UNL     1      46.570   2.644   7.422  0.00  0.00    +0.000 A 
ATOM     16  C   UNL     1      46.106   3.931   7.683  0.00  0.00    +0.000 A 
ATOM     17  C   UNL     1      45.192   4.132   8.721  0.00  0.00    +0.000 A 
ATOM     18  C   UNL     1      44.772   3.046   9.492  0.00  0.00    +0.000 A 
ATOM     19  N   UNL     1      45.205   1.783   9.236  0.00  0.00    +0.000 NA
ATOM     20  C   UNL     1      46.082   1.612   8.211  0.00  0.00    +0.000 A 
BRANCH  15  22
ATOM     21  N   UNL     1      47.460   3.103   5.204  0.00  0.00    +0.000 N 
ATOM     22  C   UNL     1      47.520   2.332   6.332  0.00  0.00    +0.000 C 
ATOM     23  O   UNL     1      48.349   1.438   6.443  0.00  0.00    +0.000 OA
ATOM     24  H   UNL     1      48.179   2.938   4.509  0.00  0.00    +0.000 HD
ATOM     25  H   UNL     1      46.976   3.989   5.172  0.00  0.00    +0.000 HD
ENDBRANCH  15  22
ENDBRANCH  14  18
ENDBRANCH   1  14
TORSDOF 5
ENDMDL
MODEL 4
REMARK VINA RESULT:    -7.256      1.846      2.816
REMARK INTER + INTRA:         -10.061
REMARK INTER:                  -9.563
REMARK INTRA:                  -0.499
REMARK UNBOUND:                -0.684
REMARK  Name = 
REMARK  5 active torsions:
REMARK  status: ('A' for Active; 'I' for Inactive)
REMARK    1  A    between atoms: C_2  and  C_4
REMARK    2  A    between atoms: C_7  and  C_8
REMARK    3  A    between atoms: C_8  and  S_9
REMARK    4  A    between atoms: S_9  and  C_10
REMARK    5  A    between atoms: C_14  and  N_15
REMARK                            x       y       z     vdW  Elec       q    Type
REMARK                         _______ _______ _______ _____ _____    ______ ____
ROOT
ATOM      1  S   UNL     1      44.448   4.854  11.960  0.00  0.00    +0.000 S 
ENDROOT
BRANCH   1   2
ATOM      2  C   UNL     1      45.081   6.514  12.011  0.00  0.00    +0.000 A 
ATOM      3  N   UNL     1      44.371   7.513  11.475  0.00  0.00    +0.000 NA
ATOM      4  C   UNL     1      44.910   8.735  11.613  0.00  0.00    +0.000 A 
ATOM      5  C   UNL     1      46.111   8.978  12.246  0.00  0.00    +0.000 A 
ATOM      6  C   UNL     1      46.798   7.888  12.745  0.00  0.00    +0.000 A 
ATOM      7  N   UNL     1      46.270   6.658  12.630  0.00  0.00    +0.000 NA
BRANCH   6   8
ATOM      8  N   UNL     1      47.981   8.057  13.465  0.00  0.00    +0.000 N 
ATOM      9  C   UNL     1      48.267   9.432  13.934  0.00  0.00    +0.000 C 
ATOM     10  C   UNL     1      49.753   9.525  14.328  0.00  0.00    +0.000 C 
ATOM     11  O   UNL     1      50.104   8.547  15.323  0.00  0.00    +0.000 OA
ATOM     12  C   UNL     1      49.826   7.222  14.842  0.00  0.00    +0.000 C 
ATOM     13  C   UNL     1      48.340   7.054  14.485  0.00  0.00    +0.000 C 
ENDBRANCH   6   8
ENDBRANCH   1   2
BRANCH   1  14
ATOM     14  C   UNL     1      43.822   4.754  10.245  0.00  0.00    +0.000 C 
BRANCH  14  18
ATOM     15  C   UNL     1      46.453   2.496   7.716  0.00  0.00    +0.000 A 
ATOM     16  C   UNL     1      45.664   1.820   8.644  0.00  0.00    +0.000 A 
ATOM     17  C   UNL     1      44.812   2.548   9.478  0.00  0.00    +0.000 A 
ATOM     18  C   UNL     1      44.749   3.938   9.358  0.00  0.00    +0.000 A 
ATOM     19  N   UNL     1      45.525   4.610   8.468  0.00  0.00    +0.000 NA
ATOM     20  C   UNL     1      46.358   3.880   7.678  0.00  0.00    +0.000 A 
BRANCH  15  22
ATOM     21  N   UNL     1      48.481   2.526   6.371  0.00  0.00    +0.000 N 
ATOM     22  C   UNL     1      47.398   1.813   6.807  0.00  0.00    +0.000 C 
ATOM     23  O   UNL     1      47.239   0.644   6.479  0.00  0.00    +0.000 OA
ATOM     24  H   UNL     1      49.167   2.014   5.828  0.00  0.00    +0.000 HD
ATOM     25  H   UNL     1      48.780   3.387   6.806  0.00  0.00    +0.000 HD
ENDBRANCH  15  22
ENDBRANCH  14  18
ENDBRANCH   1  14
TORSDOF 5
ENDMDL
MODEL 5
REMARK VINA RESULT:    -7.159      1.742      2.404
REMARK INTER + INTRA:          -9.935
REMARK INTER:                  -9.347
REMARK INTRA:                  -0.589
REMARK UNBOUND:                -0.684
REMARK  Name = 
REMARK  5 active torsions:
REMARK  status: ('A' for Active; 'I' for Inactive)
REMARK    1  A    between atoms: C_2  and  C_4
REMARK    2  A    between atoms: C_7  and  C_8
REMARK    3  A    between atoms: C_8  and  S_9
REMARK    4  A    between atoms: S_9  and  C_10
REMARK    5  A    between atoms: C_14  and  N_15
REMARK                            x       y       z     vdW  Elec       q    Type
REMARK                         _______ _______ _______ _____ _____    ______ ____
ROOT
ATOM      1  S   UNL     1      44.665   4.201  12.095  0.00  0.00    +0.000 S 
ENDROOT
BRANCH   1   2
ATOM      2  C   UNL     1      45.383   5.820  12.235  0.00  0.00    +0.000 A 
ATOM      3  N   UNL     1      46.654   5.951  12.636  0.00  0.00    +0.000 NA
ATOM      4  C   UNL     1      47.119   7.211  12.657  0.00  0.00    +0.000 A 
ATOM      5  C   UNL     1      46.368   8.313  12.307  0.00  0.00    +0.000 A 
ATOM      6  C   UNL     1      45.055   8.096  11.934  0.00  0.00    +0.000 A 
ATOM      7  N   UNL     1      44.573   6.842  11.894  0.00  0.00    +0.000 NA
BRANCH   6   8
ATOM      8  N   UNL     1      44.253   9.148  11.494  0.00  0.00    +0.000 N 
ATOM      9  C   UNL     1      44.965  10.319  10.934  0.00  0.00    +0.000 C 
ATOM     10  C   UNL     1      43.997  11.515  10.887  0.00  0.00    +0.000 C 
ATOM     11  O   UNL     1      42.809  11.214  10.134  0.00  0.00    +0.000 OA
ATOM     12  C   UNL     1      42.131  10.081  10.702  0.00  0.00    +0.000 C 
ATOM     13  C   UNL     1      43.036   8.837  10.722  0.00  0.00    +0.000 C 
ENDBRANCH   6   8
ENDBRANCH   1   2
BRANCH   1  14
ATOM     14  C   UNL     1      43.942   4.264  10.417  0.00  0.00    +0.000 C 
BRANCH  14  18
ATOM     15  C   UNL     1      46.635   2.716   7.458  0.00  0.00    +0.000 A 
ATOM     16  C   UNL     1      45.981   1.826   8.306  0.00  0.00    +0.000 A 
ATOM     17  C   UNL     1      45.110   2.322   9.279  0.00  0.00    +0.000 A 
ATOM     18  C   UNL     1      44.893   3.698   9.376  0.00  0.00    +0.000 A 
ATOM     19  N   UNL     1      45.538   4.578   8.565  0.00  0.00    +0.000 NA
ATOM     20  C   UNL     1      46.393   4.071   7.636  0.00  0.00    +0.000 A 
BRANCH  15  22
ATOM     21  N   UNL     1      47.647   3.028   5.266  0.00  0.00    +0.000 N 
ATOM     22  C   UNL     1      47.590   2.286   6.414  0.00  0.00    +0.000 C 
ATOM     23  O   UNL     1      48.324   1.320   6.577  0.00  0.00    +0.000 OA
ATOM     24  H   UNL     1      48.372   2.776   4.604  0.00  0.00    +0.000 HD
ATOM     25  H   UNL     1      47.253   3.955   5.194  0.00  0.00    +0.000 HD
ENDBRANCH  15  22
ENDBRANCH  14  18
ENDBRANCH   1  14
TORSDOF 5
ENDMDL
MODEL 6
REMARK VINA RESULT:    -6.863      5.445      8.362
REMARK INTER + INTRA:          -9.553
REMARK INTER:                  -9.110
REMARK INTRA:                  -0.443
REMARK UNBOUND:                -0.684
REMARK  Name = 
REMARK  5 active torsions:
REMARK  status: ('A' for Active; 'I' for Inactive)
REMARK    1  A    between atoms: C_2  and  C_4
REMARK    2  A    between atoms: C_7  and  C_8
REMARK    3  A    between atoms: C_8  and  S_9
REMARK    4  A    between atoms: S_9  and  C_10
REMARK    5  A    between atoms: C_14  and  N_15
REMARK                            x       y       z     vdW  Elec       q    Type
REMARK                         _______ _______ _______ _____ _____    ______ ____
ROOT
ATOM      1  S   UNL     1      47.647   3.735  16.727  0.00  0.00    +0.000 S 
ENDROOT
BRANCH   1   2
ATOM      2  C   UNL     1      47.390   4.754  15.294  0.00  0.00    +0.000 A 
ATOM      3  N   UNL     1      48.223   5.772  15.044  0.00  0.00    +0.000 NA
ATOM      4  C   UNL     1      47.975   6.447  13.910  0.00  0.00    +0.000 A 
ATOM      5  C   UNL     1      46.942   6.147  13.047  0.00  0.00    +0.000 A 
ATOM      6  C   UNL     1      46.109   5.101  13.393  0.00  0.00    +0.000 A 
ATOM      7  N   UNL     1      46.346   4.404  14.517  0.00  0.00    +0.000 NA
BRANCH   6   8
ATOM      8  N   UNL     1      45.088   4.687  12.537  0.00  0.00    +0.000 N 
ATOM      9  C   UNL     1      45.125   3.267  12.120  0.00  0.00    +0.000 C 
ATOM     10  C   UNL     1      44.212   3.085  10.892  0.00  0.00    +0.000 C 
ATOM     11  O   UNL     1      42.867   3.521  11.156  0.00  0.00    +0.000 OA
ATOM     12  C   UNL     1      42.857   4.902  11.550  0.00  0.00    +0.000 C 
ATOM     13  C   UNL     1      43.709   5.134  12.809  0.00  0.00    +0.000 C 
ENDBRANCH   6   8
ENDBRANCH   1   2
BRANCH   1  14
ATOM     14  C   UNL     1      49.125   4.513  17.470  0.00  0.00    +0.000 C 
BRANCH  14  18
ATOM     15  C   UNL     1      52.377   1.723  17.693  0.00  0.00    +0.000 A 
ATOM     16  C   UNL     1      52.586   3.037  18.106  0.00  0.00    +0.000 A 
ATOM     17  C   UNL     1      51.535   3.955  18.027  0.00  0.00    +0.000 A 
ATOM     18  C   UNL     1      50.289   3.539  17.555  0.00  0.00    +0.000 A 
ATOM     19  N   UNL     1      50.077   2.264  17.134  0.00  0.00    +0.000 NA
ATOM     20  C   UNL     1      51.120   1.394  17.207  0.00  0.00    +0.000 A 
BRANCH  15  22
ATOM     21  N   UNL     1      53.156  -0.480  18.373  0.00  0.00    +0.000 N 
ATOM     22  C   UNL     1      53.434   0.689  17.720  0.00  0.00    +0.000 C 
ATOM     23  O   UNL     1      54.507   0.857  17.155  0.00  0.00    +0.000 OA
ATOM     24  H   UNL     1      53.853  -1.212  18.300  0.00  0.00    +0.000 HD
ATOM     25  H   UNL     1      52.219  -0.755  18.629  0.00  0.00    +0.000 HD
ENDBRANCH  15  22
ENDBRANCH  14  18
ENDBRANCH   1  14
TORSDOF 5
ENDMDL
MODEL 7
REMARK VINA RESULT:    -6.384      3.577      7.617
REMARK INTER + INTRA:          -8.934
REMARK INTER:                  -8.560
REMARK INTRA:                  -0.374
REMARK UNBOUND:                -0.684
REMARK  Name = 
REMARK  5 active torsions:
REMARK  status: ('A' for Active; 'I' for Inactive)
REMARK    1  A    between atoms: C_2  and  C_4
REMARK    2  A    between atoms: C_7  and  C_8
REMARK    3  A    between atoms: C_8  and  S_9
REMARK    4  A    between atoms: S_9  and  C_10
REMARK    5  A    between atoms: C_14  and  N_15
REMARK                            x       y       z     vdW  Elec       q    Type
REMARK                         _______ _______ _______ _____ _____    ______ ____
ROOT
ATOM      1  S   UNL     1      49.065   7.357  12.628  0.00  0.00    +0.000 S 
ENDROOT
BRANCH   1   2
ATOM      2  C   UNL     1      47.329   7.444  12.263  0.00  0.00    +0.000 A 
ATOM      3  N   UNL     1      46.655   8.576  12.499  0.00  0.00    +0.000 NA
ATOM      4  C   UNL     1      45.361   8.557  12.139  0.00  0.00    +0.000 A 
ATOM      5  C   UNL     1      44.737   7.465  11.573  0.00  0.00    +0.000 A 
ATOM      6  C   UNL     1      45.495   6.324  11.391  0.00  0.00    +0.000 A 
ATOM      7  N   UNL     1      46.795   6.326  11.732  0.00  0.00    +0.000 NA
BRANCH   6   8
ATOM      8  N   UNL     1      44.959   5.204  10.756  0.00  0.00    +0.000 N 
ATOM      9  C   UNL     1      45.469   4.920   9.395  0.00  0.00    +0.000 C 
ATOM     10  C   UNL     1      44.508   3.940   8.698  0.00  0.00    +0.000 C 
ATOM     11  O   UNL     1      44.334   2.730   9.456  0.00  0.00    +0.000 OA
ATOM     12  C   UNL     1      43.830   3.030  10.768  0.00  0.00    +0.000 C 
ATOM     13  C   UNL     1      44.782   3.964  11.535  0.00  0.00    +0.000 C 
ENDBRANCH   6   8
ENDBRANCH   1   2
BRANCH   1  14
ATOM     14  C   UNL     1      49.097   7.876  14.381  0.00  0.00    +0.000 C 
BRANCH  14  18
ATOM     15  C   UNL     1      47.948   4.643  16.958  0.00  0.00    +0.000 A 
ATOM     16  C   UNL     1      48.599   5.745  17.507  0.00  0.00    +0.000 A 
ATOM     17  C   UNL     1      48.986   6.798  16.674  0.00  0.00    +0.000 A 
ATOM     18  C   UNL     1      48.699   6.739  15.309  0.00  0.00    +0.000 A 
ATOM     19  N   UNL     1      48.079   5.663  14.758  0.00  0.00    +0.000 NA
ATOM     20  C   UNL     1      47.727   4.644  15.588  0.00  0.00    +0.000 A 
BRANCH  15  22
ATOM     21  N   UNL     1      48.289   3.135  18.838  0.00  0.00    +0.000 N 
ATOM     22  C   UNL     1      47.522   3.474  17.757  0.00  0.00    +0.000 C 
ATOM     23  O   UNL     1      46.507   2.848  17.483  0.00  0.00    +0.000 OA
ATOM     24  H   UNL     1      47.931   2.393  19.428  0.00  0.00    +0.000 HD
ATOM     25  H   UNL     1      48.974   3.759  19.239  0.00  0.00    +0.000 HD
ENDBRANCH  15  22
ENDBRANCH  14  18
ENDBRANCH   1  14
TORSDOF 5
ENDMDL
MODEL 8
REMARK VINA RESULT:    -6.267      4.038      5.974
REMARK INTER + INTRA:          -8.783
REMARK INTER:                  -8.104
REMARK INTRA:                  -0.679
REMARK UNBOUND:                -0.684
REMARK  Name = 
REMARK  5 active torsions:
REMARK  status: ('A' for Active; 'I' for Inactive)
REMARK    1  A    between atoms: C_2  and  C_4
REMARK    2  A    between atoms: C_7  and  C_8
REMARK    3  A    between atoms: C_8  and  S_9
REMARK    4  A    between atoms: S_9  and  C_10
REMARK    5  A    between atoms: C_14  and  N_15
REMARK                            x       y       z     vdW  Elec       q    Type
REMARK                         _______ _______ _______ _____ _____    ______ ____
ROOT
ATOM      1  S   UNL     1      48.125   7.896  12.342  0.00  0.00    +0.000 S 
ENDROOT
BRANCH   1   2
ATOM      2  C   UNL     1      49.124   7.592  13.779  0.00  0.00    +0.000 A 
ATOM      3  N   UNL     1      50.224   8.325  13.991  0.00  0.00    +0.000 NA
ATOM      4  C   UNL     1      50.880   8.054  15.131  0.00  0.00    +0.000 A 
ATOM      5  C   UNL     1      50.484   7.091  16.036  0.00  0.00    +0.000 A 
ATOM      6  C   UNL     1      49.355   6.356  15.728  0.00  0.00    +0.000 A 
ATOM      7  N   UNL     1      48.676   6.620  14.598  0.00  0.00    +0.000 NA
BRANCH   6   8
ATOM      8  N   UNL     1      48.847   5.418  16.625  0.00  0.00    +0.000 N 
ATOM      9  C   UNL     1      47.747   4.565  16.122  0.00  0.00    +0.000 C 
ATOM     10  C   UNL     1      47.044   3.900  17.320  0.00  0.00    +0.000 C 
ATOM     11  O   UNL     1      47.963   3.147  18.130  0.00  0.00    +0.000 OA
ATOM     12  C   UNL     1      49.015   3.998  18.614  0.00  0.00    +0.000 C 
ATOM     13  C   UNL     1      49.792   4.646  17.455  0.00  0.00    +0.000 C 
ENDBRANCH   6   8
ENDBRANCH   1   2
BRANCH   1  14
ATOM     14  C   UNL     1      46.440   7.659  13.011  0.00  0.00    +0.000 C 
BRANCH  14  18
ATOM     15  C   UNL     1      44.588   4.105  11.476  0.00  0.00    +0.000 A 
ATOM     16  C   UNL     1      45.053   5.065  10.580  0.00  0.00    +0.000 A 
ATOM     17  C   UNL     1      45.648   6.230  11.071  0.00  0.00    +0.000 A 
ATOM     18  C   UNL     1      45.785   6.407  12.449  0.00  0.00    +0.000 A 
ATOM     19  N   UNL     1      45.322   5.485  13.334  0.00  0.00    +0.000 NA
ATOM     20  C   UNL     1      44.732   4.367  12.831  0.00  0.00    +0.000 A 
BRANCH  15  22
ATOM     21  N   UNL     1      44.438   2.210   9.956  0.00  0.00    +0.000 N 
ATOM     22  C   UNL     1      43.926   2.853  11.050  0.00  0.00    +0.000 C 
ATOM     23  O   UNL     1      42.975   2.391  11.666  0.00  0.00    +0.000 OA
ATOM     24  H   UNL     1      44.033   1.307   9.736  0.00  0.00    +0.000 HD
ATOM     25  H   UNL     1      45.352   2.414   9.580  0.00  0.00    +0.000 HD
ENDBRANCH  15  22
ENDBRANCH  14  18
ENDBRANCH   1  14
TORSDOF 5
ENDMDL
MODEL 9
REMARK VINA RESULT:    -5.830      5.164      8.136
REMARK INTER + INTRA:          -8.218
REMARK INTER:                  -7.588
REMARK INTRA:                  -0.630
REMARK UNBOUND:                -0.684
REMARK  Name = 
REMARK  5 active torsions:
REMARK  status: ('A' for Active; 'I' for Inactive)
REMARK    1  A    between atoms: C_2  and  C_4
REMARK    2  A    between atoms: C_7  and  C_8
REMARK    3  A    between atoms: C_8  and  S_9
REMARK    4  A    between atoms: S_9  and  C_10
REMARK    5  A    between atoms: C_14  and  N_15
REMARK                            x       y       z     vdW  Elec       q    Type
REMARK                         _______ _______ _______ _____ _____    ______ ____
ROOT
ATOM      1  S   UNL     1      50.039   7.422  16.207  0.00  0.00    +0.000 S 
ENDROOT
BRANCH   1   2
ATOM      2  C   UNL     1      49.439   7.319  14.539  0.00  0.00    +0.000 A 
ATOM      3  N   UNL     1      50.074   7.977  13.561  0.00  0.00    +0.000 NA
ATOM      4  C   UNL     1      49.574   7.792  12.329  0.00  0.00    +0.000 A 
ATOM      5  C   UNL     1      48.481   6.996  12.055  0.00  0.00    +0.000 A 
ATOM      6  C   UNL     1      47.863   6.376  13.123  0.00  0.00    +0.000 A 
ATOM      7  N   UNL     1      48.355   6.538  14.363  0.00  0.00    +0.000 NA
BRANCH   6   8
ATOM      8  N   UNL     1      46.800   5.496  12.921  0.00  0.00    +0.000 N 
ATOM      9  C   UNL     1      46.925   4.166  13.559  0.00  0.00    +0.000 C 
ATOM     10  C   UNL     1      45.907   3.207  12.914  0.00  0.00    +0.000 C 
ATOM     11  O   UNL     1      44.563   3.710  13.010  0.00  0.00    +0.000 OA
ATOM     12  C   UNL     1      44.465   4.996  12.377  0.00  0.00    +0.000 C 
ATOM     13  C   UNL     1      45.422   6.014  13.019  0.00  0.00    +0.000 C 
ENDBRANCH   6   8
ENDBRANCH   1   2
BRANCH   1  14
ATOM     14  C   UNL     1      49.037   6.138  17.038  0.00  0.00    +0.000 C 
BRANCH  14  18
ATOM     15  C   UNL     1      51.279   2.510  17.508  0.00  0.00    +0.000 A 
ATOM     16  C   UNL     1      49.888   2.444  17.478  0.00  0.00    +0.000 A 
ATOM     17  C   UNL     1      49.150   3.622  17.335  0.00  0.00    +0.000 A 
ATOM     18  C   UNL     1      49.815   4.843  17.207  0.00  0.00    +0.000 A 
ATOM     19  N   UNL     1      51.171   4.922  17.251  0.00  0.00    +0.000 NA
ATOM     20  C   UNL     1      51.866   3.763  17.407  0.00  0.00    +0.000 A 
BRANCH  15  22
ATOM     21  N   UNL     1      51.552   0.174  18.137  0.00  0.00    +0.000 N 
ATOM     22  C   UNL     1      52.141   1.320  17.678  0.00  0.00    +0.000 C 
ATOM     23  O   UNL     1      53.331   1.347  17.392  0.00  0.00    +0.000 OA
ATOM     24  H   UNL     1      52.135  -0.654  18.156  0.00  0.00    +0.000 HD
ATOM     25  H   UNL     1      50.551   0.039  18.144  0.00  0.00    +0.000 HD
ENDBRANCH  15  22
ENDBRANCH  14  18
ENDBRANCH   1  14
TORSDOF 5
ENDMDL
