MODEL 1
REMARK VINA RESULT:    -8.423      0.000      0.000
REMARK INTER + INTRA:         -10.184
REMARK INTER:                  -9.901
REMARK INTRA:                  -0.283
REMARK UNBOUND:                -0.283
REMARK  Name = 
REMARK  3 active torsions:
REMARK  status: ('A' for Active; 'I' for Inactive)
REMARK    1  A    between atoms: C_2  and  C_4
REMARK    2  A    between atoms: N_8  and  C_9
REMARK    3  A    between atoms: C_9  and  C_10
REMARK                            x       y       z     vdW  Elec       q    Type
REMARK                         _______ _______ _______ _____ _____    ______ ____
ROOT
ATOM      1  C   UNL     1      46.500   2.714   7.461  0.00  0.00    +0.000 A 
ATOM      2  C   UNL     1      46.038   1.819   8.391  0.00  0.00    +0.000 A 
ATOM      3  N   UNL     1      45.221   2.170   9.413  0.00  0.00    +0.000 NA
ATOM      4  C   UNL     1      44.888   3.472   9.518  0.00  0.00    +0.000 A 
ATOM      5  N   UNL     1      43.903   3.753  10.465  0.00  0.00    +0.000 N 
ATOM      6  N   UNL     1      45.367   4.428   8.710  0.00  0.00    +0.000 NA
ATOM      7  C   UNL     1      46.161   4.026   7.690  0.00  0.00    +0.000 A 
ATOM      8  H   UNL     1      43.780   2.895  10.992  0.00  0.00    +0.000 HD
ENDROOT
BRANCH   1  10
ATOM      9  N   UNL     1      47.241   3.183   5.210  0.00  0.00    +0.000 N 
ATOM     10  C   UNL     1      47.268   2.327   6.274  0.00  0.00    +0.000 C 
ATOM     11  O   UNL     1      47.961   1.318   6.269  0.00  0.00    +0.000 OA
ATOM     12  H   UNL     1      47.893   2.983   4.456  0.00  0.00    +0.000 HD
ATOM     13  H   UNL     1      46.916   4.139   5.280  0.00  0.00    +0.000 HD
ENDBRANCH   1  10
BRANCH   5  14
ATOM     14  C   UNL     1      43.882   5.006  11.237  0.00  0.00    +0.000 C 
ATOM     15  C   UNL     1      42.603   5.228  12.036  0.00  0.00    +0.000 C 
ATOM     16  C   UNL     1      42.955   6.162  10.926  0.00  0.00    +0.000 C 
BRANCH  14  17
ATOM     17  C   UNL     1      45.224   5.301  11.895  0.00  0.00    +0.000 A 
ATOM     18  C   UNL     1      46.039   6.359  11.456  0.00  0.00    +0.000 A 
ATOM     19  C   UNL     1      47.181   6.745  12.164  0.00  0.00    +0.000 A 
ATOM     20  C   UNL     1      47.542   6.070  13.329  0.00  0.00    +0.000 A 
ATOM     21 CL   UNL     1      48.913   6.653  14.205  0.00  0.00    +0.000 Cl
ATOM     22  C   UNL     1      46.779   4.981  13.761  0.00  0.00    +0.000 A 
ATOM     23 CL   UNL     1      47.162   4.095  15.195  0.00  0.00    +0.000 Cl
ATOM     24  C   UNL     1      45.638   4.602  13.044  0.00  0.00    +0.000 A 
ENDBRANCH  14  17
ENDBRANCH   5  14
TORSDOF 3
ENDMDL
MODEL 2
REMARK VINA RESULT:    -7.535      4.410      6.687
REMARK INTER + INTRA:          -9.140
REMARK INTER:                  -9.121
REMARK INTRA:                  -0.019
REMARK UNBOUND:                -0.283
REMARK  Name = 
REMARK  3 active torsions:
REMARK  status: ('A' for Active; 'I' for Inactive)
REMARK    1  A    between atoms: C_2  and  C_4
REMARK    2  A    between atoms: N_8  and  C_9
REMARK    3  A    between atoms: C_9  and  C_10
REMARK                            x       y       z     vdW  Elec       q    Type
REMARK                         _______ _______ _______ _____ _____    ______ ____
ROOT
ATOM      1  C   UNL     1      47.693   5.349  14.904  0.00  0.00    +0.000 A 
ATOM      2  C   UNL     1      47.870   6.120  13.784  0.00  0.00    +0.000 A 
ATOM      3  N   UNL     1      47.073   6.030  12.692  0.00  0.00    +0.000 NA
ATOM      4  C   UNL     1      46.089   5.109  12.720  0.00  0.00    +0.000 A 
ATOM      5  N   UNL     1      45.185   5.181  11.660  0.00  0.00    +0.000 N 
ATOM      6  N   UNL     1      45.903   4.252  13.734  0.00  0.00    +0.000 NA
ATOM      7  C   UNL     1      46.708   4.395  14.812  0.00  0.00    +0.000 A 
ATOM      8  H   UNL     1      45.592   5.834  11.000  0.00  0.00    +0.000 HD
ENDROOT
BRANCH   1  10
ATOM      9  N   UNL     1      48.317   6.725  16.790  0.00  0.00    +0.000 N 
ATOM     10  C   UNL     1      48.457   5.531  16.143  0.00  0.00    +0.000 C 
ATOM     11  O   UNL     1      49.130   4.623  16.611  0.00  0.00    +0.000 OA
ATOM     12  H   UNL     1      48.727   6.785  17.718  0.00  0.00    +0.000 HD
ATOM     13  H   UNL     1      47.569   7.377  16.588  0.00  0.00    +0.000 HD
ENDBRANCH   1  10
BRANCH   5  14
ATOM     14  C   UNL     1      44.536   3.988  11.090  0.00  0.00    +0.000 C 
ATOM     15  C   UNL     1      43.027   3.938  11.295  0.00  0.00    +0.000 C 
ATOM     16  C   UNL     1      43.897   2.904  11.930  0.00  0.00    +0.000 C 
BRANCH  14  17
ATOM     17  C   UNL     1      45.109   3.617   9.728  0.00  0.00    +0.000 A 
ATOM     18  C   UNL     1      45.514   4.603   8.810  0.00  0.00    +0.000 A 
ATOM     19  C   UNL     1      46.202   4.272   7.639  0.00  0.00    +0.000 A 
ATOM     20  C   UNL     1      46.492   2.939   7.351  0.00  0.00    +0.000 A 
ATOM     21 CL   UNL     1      47.422   2.607   5.933  0.00  0.00    +0.000 Cl
ATOM     22  C   UNL     1      46.057   1.935   8.220  0.00  0.00    +0.000 A 
ATOM     23 CL   UNL     1      46.380   0.261   7.933  0.00  0.00    +0.000 Cl
ATOM     24  C   UNL     1      45.368   2.276   9.391  0.00  0.00    +0.000 A 
ENDBRANCH  14  17
ENDBRANCH   5  14
TORSDOF 3
ENDMDL
MODEL 3
REMARK VINA RESULT:    -6.230      4.599      6.640
REMARK INTER + INTRA:          -7.606
REMARK INTER:                  -8.349
REMARK INTRA:                   0.743
REMARK UNBOUND:                -0.283
REMARK  Name = 
REMARK  3 active torsions:
REMARK  status: ('A' for Active; 'I' for Inactive)
REMARK    1  A    between atoms: C_2  and  C_4
REMARK    2  A    between atoms: N_8  and  C_9
REMARK    3  A    between atoms: C_9  and  C_10
REMARK                            x       y       z     vdW  Elec       q    Type
REMARK                         _______ _______ _______ _____ _____    ______ ____
ROOT
ATOM      1  C   UNL     1      48.380   5.820  15.422  0.00  0.00    +0.000 A 
ATOM      2  C   UNL     1      47.711   4.732  15.922  0.00  0.00    +0.000 A 
ATOM      3  N   UNL     1      46.726   4.095  15.245  0.00  0.00    +0.000 NA
ATOM      4  C   UNL     1      46.383   4.593  14.040  0.00  0.00    +0.000 A 
ATOM      5  N   UNL     1      45.503   3.801  13.304  0.00  0.00    +0.000 N 
ATOM      6  N   UNL     1      46.919   5.706  13.517  0.00  0.00    +0.000 NA
ATOM      7  C   UNL     1      47.915   6.294  14.219  0.00  0.00    +0.000 A 
ATOM      8  H   UNL     1      45.184   3.082  13.945  0.00  0.00    +0.000 HD
ENDROOT
BRANCH   1  10
ATOM      9  N   UNL     1      49.608   7.796  16.071  0.00  0.00    +0.000 N 
ATOM     10  C   UNL     1      49.539   6.433  16.080  0.00  0.00    +0.000 C 
ATOM     11  O   UNL     1      50.363   5.752  16.674  0.00  0.00    +0.000 OA
ATOM     12  H   UNL     1      50.328   8.214  16.655  0.00  0.00    +0.000 HD
ATOM     13  H   UNL     1      48.820   8.388  15.842  0.00  0.00    +0.000 HD
ENDBRANCH   1  10
BRANCH   5  14
ATOM     14  C   UNL     1      44.490   4.371  12.400  0.00  0.00    +0.000 C 
ATOM     15  C   UNL     1      43.921   5.707  12.861  0.00  0.00    +0.000 C 
ATOM     16  C   UNL     1      43.029   4.514  12.770  0.00  0.00    +0.000 C 
BRANCH  14  17
ATOM     17  C   UNL     1      44.861   4.192  10.933  0.00  0.00    +0.000 A 
ATOM     18  C   UNL     1      45.287   5.278  10.149  0.00  0.00    +0.000 A 
ATOM     19  C   UNL     1      45.797   5.093   8.860  0.00  0.00    +0.000 A 
ATOM     20  C   UNL     1      45.882   3.811   8.319  0.00  0.00    +0.000 A 
ATOM     21 CL   UNL     1      46.603   3.642   6.758  0.00  0.00    +0.000 Cl
ATOM     22  C   UNL     1      45.417   2.718   9.057  0.00  0.00    +0.000 A 
ATOM     23 CL   UNL     1      45.490   1.099   8.457  0.00  0.00    +0.000 Cl
ATOM     24  C   UNL     1      44.907   2.914  10.347  0.00  0.00    +0.000 A 
ENDBRANCH  14  17
ENDBRANCH   5  14
TORSDOF 3
ENDMDL
MODEL 4
REMARK VINA RESULT:    -5.754      4.639      6.642
REMARK INTER + INTRA:          -7.046
REMARK INTER:                  -7.227
REMARK INTRA:                   0.180
REMARK UNBOUND:                -0.283
REMARK  Name = 
REMARK  3 active torsions:
REMARK  status: ('A' for Active; 'I' for Inactive)
REMARK    1  A    between atoms: C_2  and  C_4
REMARK    2  A    between atoms: N_8  and  C_9
REMARK    3  A    between atoms: C_9  and  C_10
REMARK                            x       y       z     vdW  Elec       q    Type
REMARK                         _______ _______ _______ _____ _____    ______ ____
ROOT
ATOM      1  C   UNL     1      46.018   5.411  12.190  0.00  0.00    +0.000 A 
ATOM      2  C   UNL     1      45.840   4.228  12.859  0.00  0.00    +0.000 A 
ATOM      3  N   UNL     1      46.296   4.013  14.116  0.00  0.00    +0.000 NA
ATOM      4  C   UNL     1      46.983   5.014  14.703  0.00  0.00    +0.000 A 
ATOM      5  N   UNL     1      47.267   4.819  16.055  0.00  0.00    +0.000 N 
ATOM      6  N   UNL     1      47.283   6.168  14.090  0.00  0.00    +0.000 NA
ATOM      7  C   UNL     1      46.786   6.345  12.844  0.00  0.00    +0.000 A 
ATOM      8  H   UNL     1      47.022   3.854  16.247  0.00  0.00    +0.000 HD
ENDROOT
BRANCH   1  10
ATOM      9  N   UNL     1      44.183   6.301  10.895  0.00  0.00    +0.000 N 
ATOM     10  C   UNL     1      45.413   5.707  10.888  0.00  0.00    +0.000 C 
ATOM     11  O   UNL     1      46.019   5.497   9.846  0.00  0.00    +0.000 OA
ATOM     12  H   UNL     1      43.842   6.637   9.998  0.00  0.00    +0.000 HD
ATOM     13  H   UNL     1      43.785   6.736  11.718  0.00  0.00    +0.000 HD
ENDBRANCH   1  10
BRANCH   5  14
ATOM     14  C   UNL     1      48.497   5.324  16.686  0.00  0.00    +0.000 C 
ATOM     15  C   UNL     1      48.274   6.467  17.669  0.00  0.00    +0.000 C 
ATOM     16  C   UNL     1      49.064   6.702  16.425  0.00  0.00    +0.000 C 
BRANCH  14  17
ATOM     17  C   UNL     1      49.452   4.199  17.066  0.00  0.00    +0.000 A 
ATOM     18  C   UNL     1      49.093   2.849  16.910  0.00  0.00    +0.000 A 
ATOM     19  C   UNL     1      50.023   1.820  17.087  0.00  0.00    +0.000 A 
ATOM     20  C   UNL     1      51.338   2.118  17.437  0.00  0.00    +0.000 A 
ATOM     21 CL   UNL     1      52.458   0.808  17.552  0.00  0.00    +0.000 Cl
ATOM     22  C   UNL     1      51.711   3.449  17.649  0.00  0.00    +0.000 A 
ATOM     23 CL   UNL     1      53.323   3.900  18.082  0.00  0.00    +0.000 Cl
ATOM     24  C   UNL     1      50.772   4.473  17.470  0.00  0.00    +0.000 A 
ENDBRANCH  14  17
ENDBRANCH   5  14
TORSDOF 3
ENDMDL
MODEL 5
REMARK VINA RESULT:    -5.711      3.452      4.823
REMARK INTER + INTRA:          -6.995
REMARK INTER:                  -6.526
REMARK INTRA:                  -0.470
REMARK UNBOUND:                -0.283
REMARK  Name = 
REMARK  3 active torsions:
REMARK  status: ('A' for Active; 'I' for Inactive)
REMARK    1  A    between atoms: C_2  and  C_4
REMARK    2  A    between atoms: N_8  and  C_9
REMARK    3  A    between atoms: C_9  and  C_10
REMARK                            x       y       z     vdW  Elec       q    Type
REMARK                         _______ _______ _______ _____ _____    ______ ____
ROOT
ATOM      1  C   UNL     1      44.256   4.192  11.550  0.00  0.00    +0.000 A 
ATOM      2  C   UNL     1      44.194   4.578  12.864  0.00  0.00    +0.000 A 
ATOM      3  N   UNL     1      44.420   5.849  13.273  0.00  0.00    +0.000 NA
ATOM      4  C   UNL     1      44.752   6.752  12.328  0.00  0.00    +0.000 A 
ATOM      5  N   UNL     1      44.790   8.076  12.765  0.00  0.00    +0.000 N 
ATOM      6  N   UNL     1      44.925   6.443  11.035  0.00  0.00    +0.000 NA
ATOM      7  C   UNL     1      44.666   5.166  10.671  0.00  0.00    +0.000 A 
ATOM      8  H   UNL     1      44.716   8.030  13.776  0.00  0.00    +0.000 HD
ENDROOT
BRANCH   1  10
ATOM      9  N   UNL     1      44.656   2.300  10.102  0.00  0.00    +0.000 N 
ATOM     10  C   UNL     1      43.879   2.856  11.077  0.00  0.00    +0.000 C 
ATOM     11  O   UNL     1      42.954   2.241  11.590  0.00  0.00    +0.000 OA
ATOM     12  H   UNL     1      44.480   1.321   9.891  0.00  0.00    +0.000 HD
ATOM     13  H   UNL     1      45.574   2.652   9.860  0.00  0.00    +0.000 HD
ENDBRANCH   1  10
BRANCH   5  14
ATOM     14  C   UNL     1      45.736   9.063  12.221  0.00  0.00    +0.000 C 
ATOM     15  C   UNL     1      45.174  10.475  12.110  0.00  0.00    +0.000 C 
ATOM     16  C   UNL     1      45.561   9.733  10.875  0.00  0.00    +0.000 C 
BRANCH  14  17
ATOM     17  C   UNL     1      47.146   8.870  12.764  0.00  0.00    +0.000 A 
ATOM     18  C   UNL     1      47.407   8.885  14.146  0.00  0.00    +0.000 A 
ATOM     19  C   UNL     1      48.660   8.533  14.657  0.00  0.00    +0.000 A 
ATOM     20  C   UNL     1      49.690   8.167  13.792  0.00  0.00    +0.000 A 
ATOM     21 CL   UNL     1      51.185   7.657  14.492  0.00  0.00    +0.000 Cl
ATOM     22  C   UNL     1      49.475   8.193  12.411  0.00  0.00    +0.000 A 
ATOM     23 CL   UNL     1      50.700   7.751  11.276  0.00  0.00    +0.000 Cl
ATOM     24  C   UNL     1      48.216   8.548  11.909  0.00  0.00    +0.000 A 
ENDBRANCH  14  17
ENDBRANCH   5  14
TORSDOF 3
ENDMDL
MODEL 6
REMARK VINA RESULT:    -5.607      1.366      2.174
REMARK INTER + INTRA:          -6.874
REMARK INTER:                  -7.464
REMARK INTRA:                   0.591
REMARK UNBOUND:                -0.283
REMARK  Name = 
REMARK  3 active torsions:
REMARK  status: ('A' for Active; 'I' for Inactive)
REMARK    1  A    between atoms: C_2  and  C_4
REMARK    2  A    between atoms: N_8  and  C_9
REMARK    3  A    between atoms: C_9  and  C_10
REMARK                            x       y       z     vdW  Elec       q    Type
REMARK                         _______ _______ _______ _____ _____    ______ ____
ROOT
ATOM      1  C   UNL     1      46.166   2.162   7.824  0.00  0.00    +0.000 A 
ATOM      2  C   UNL     1      45.702   3.294   7.204  0.00  0.00    +0.000 A 
ATOM      3  N   UNL     1      45.254   4.377   7.882  0.00  0.00    +0.000 NA
ATOM      4  C   UNL     1      45.241   4.301   9.228  0.00  0.00    +0.000 A 
ATOM      5  N   UNL     1      44.952   5.499   9.883  0.00  0.00    +0.000 N 
ATOM      6  N   UNL     1      45.588   3.202   9.913  0.00  0.00    +0.000 NA
ATOM      7  C   UNL     1      46.051   2.154   9.194  0.00  0.00    +0.000 A 
ATOM      8  H   UNL     1      44.643   6.137   9.157  0.00  0.00    +0.000 HD
ENDROOT
BRANCH   1  10
ATOM      9  N   UNL     1      46.697  -0.191   7.696  0.00  0.00    +0.000 N 
ATOM     10  C   UNL     1      46.782   1.039   7.110  0.00  0.00    +0.000 C 
ATOM     11  O   UNL     1      47.282   1.191   6.003  0.00  0.00    +0.000 OA
ATOM     12  H   UNL     1      46.991  -0.981   7.126  0.00  0.00    +0.000 HD
ATOM     13  H   UNL     1      46.061  -0.398   8.455  0.00  0.00    +0.000 HD
ENDBRANCH   1  10
BRANCH   5  14
ATOM     14  C   UNL     1      44.215   5.547  11.157  0.00  0.00    +0.000 C 
ATOM     15  C   UNL     1      43.047   4.572  11.242  0.00  0.00    +0.000 C 
ATOM     16  C   UNL     1      42.790   6.041  11.277  0.00  0.00    +0.000 C 
BRANCH  14  17
ATOM     17  C   UNL     1      45.145   5.693  12.355  0.00  0.00    +0.000 A 
ATOM     18  C   UNL     1      45.443   4.600  13.187  0.00  0.00    +0.000 A 
ATOM     19  C   UNL     1      46.429   4.682  14.176  0.00  0.00    +0.000 A 
ATOM     20  C   UNL     1      47.135   5.869  14.362  0.00  0.00    +0.000 A 
ATOM     21 CL   UNL     1      48.400   5.876  15.539  0.00  0.00    +0.000 Cl
ATOM     22  C   UNL     1      46.824   6.987  13.583  0.00  0.00    +0.000 A 
ATOM     23 CL   UNL     1      47.655   8.493  13.754  0.00  0.00    +0.000 Cl
ATOM     24  C   UNL     1      45.834   6.895  12.596  0.00  0.00    +0.000 A 
ENDBRANCH  14  17
ENDBRANCH   5  14
TORSDOF 3
ENDMDL
MODEL 7
REMARK VINA RESULT:    -5.567      3.311      4.831
REMARK INTER + INTRA:          -6.826
REMARK INTER:                  -7.026
REMARK INTRA:                   0.200
REMARK UNBOUND:                -0.283
REMARK  Name = 
REMARK  3 active torsions:
REMARK  status: ('A' for Active; 'I' for Inactive)
REMARK    1  A    between atoms: C_2  and  C_4
REMARK    2  A    between atoms: N_8  and  C_9
REMARK    3  A    between atoms: C_9  and  C_10
REMARK                            x       y       z     vdW  Elec       q    Type
REMARK                         _______ _______ _______ _____ _____    ______ ____
ROOT
ATOM      1  C   UNL     1      45.035   4.287  10.896  0.00  0.00    +0.000 A 
ATOM      2  C   UNL     1      45.192   3.779  12.160  0.00  0.00    +0.000 A 
ATOM      3  N   UNL     1      45.783   4.468  13.165  0.00  0.00    +0.000 NA
ATOM      4  C   UNL     1      46.260   5.696  12.875  0.00  0.00    +0.000 A 
ATOM      5  N   UNL     1      46.686   6.437  13.977  0.00  0.00    +0.000 N 
ATOM      6  N   UNL     1      46.232   6.232  11.647  0.00  0.00    +0.000 NA
ATOM      7  C   UNL     1      45.612   5.516  10.681  0.00  0.00    +0.000 A 
ATOM      8  H   UNL     1      46.690   5.787  14.756  0.00  0.00    +0.000 HD
ENDROOT
BRANCH   1  10
ATOM      9  N   UNL     1      44.129   4.279   8.657  0.00  0.00    +0.000 N 
ATOM     10  C   UNL     1      44.278   3.611   9.838  0.00  0.00    +0.000 C 
ATOM     11  O   UNL     1      43.864   2.468   9.986  0.00  0.00    +0.000 OA
ATOM     12  H   UNL     1      43.737   3.746   7.885  0.00  0.00    +0.000 HD
ATOM     13  H   UNL     1      44.684   5.087   8.406  0.00  0.00    +0.000 HD
ENDBRANCH   1  10
BRANCH   5  14
ATOM     14  C   UNL     1      47.810   7.385  13.907  0.00  0.00    +0.000 C 
ATOM     15  C   UNL     1      47.392   8.850  13.864  0.00  0.00    +0.000 C 
ATOM     16  C   UNL     1      48.100   8.247  12.697  0.00  0.00    +0.000 C 
BRANCH  14  17
ATOM     17  C   UNL     1      48.968   6.973  14.808  0.00  0.00    +0.000 A 
ATOM     18  C   UNL     1      50.257   7.506  14.632  0.00  0.00    +0.000 A 
ATOM     19  C   UNL     1      51.277   7.272  15.560  0.00  0.00    +0.000 A 
ATOM     20  C   UNL     1      51.033   6.485  16.684  0.00  0.00    +0.000 A 
ATOM     21 CL   UNL     1      52.309   6.308  17.835  0.00  0.00    +0.000 Cl
ATOM     22  C   UNL     1      49.775   5.900  16.857  0.00  0.00    +0.000 A 
ATOM     23 CL   UNL     1      49.394   4.915  18.225  0.00  0.00    +0.000 Cl
ATOM     24  C   UNL     1      48.760   6.140  15.922  0.00  0.00    +0.000 A 
ENDBRANCH  14  17
ENDBRANCH   5  14
TORSDOF 3
ENDMDL
MODEL 8
REMARK VINA RESULT:    -5.512      4.273      6.069
REMARK INTER + INTRA:          -6.762
REMARK INTER:                  -6.261
REMARK INTRA:                  -0.501
REMARK UNBOUND:                -0.283
REMARK  Name = 
REMARK  3 active torsions:
REMARK  status: ('A' for Active; 'I' for Inactive)
REMARK    1  A    between atoms: C_2  and  C_4
REMARK    2  A    between atoms: N_8  and  C_9
REMARK    3  A    between atoms: C_9  and  C_10
REMARK                            x       y       z     vdW  Elec       q    Type
REMARK                         _______ _______ _______ _____ _____    ______ ____
ROOT
ATOM      1  C   UNL     1      44.825   5.231  12.816  0.00  0.00    +0.000 A 
ATOM      2  C   UNL     1      44.482   6.557  12.761  0.00  0.00    +0.000 A 
ATOM      3  N   UNL     1      45.380   7.545  12.532  0.00  0.00    +0.000 NA
ATOM      4  C   UNL     1      46.671   7.184  12.388  0.00  0.00    +0.000 A 
ATOM      5  N   UNL     1      47.525   8.204  11.971  0.00  0.00    +0.000 N 
ATOM      6  N   UNL     1      47.109   5.923  12.520  0.00  0.00    +0.000 NA
ATOM      7  C   UNL     1      46.172   4.969  12.725  0.00  0.00    +0.000 A 
ATOM      8  H   UNL     1      46.980   9.057  12.034  0.00  0.00    +0.000 HD
ENDROOT
BRANCH   1  10
ATOM      9  N   UNL     1      44.280   2.887  12.610  0.00  0.00    +0.000 N 
ATOM     10  C   UNL     1      43.848   4.143  12.924  0.00  0.00    +0.000 C 
ATOM     11  O   UNL     1      42.718   4.346  13.349  0.00  0.00    +0.000 OA
ATOM     12  H   UNL     1      43.645   2.124  12.831  0.00  0.00    +0.000 HD
ATOM     13  H   UNL     1      45.259   2.644  12.528  0.00  0.00    +0.000 HD
ENDBRANCH   1  10
BRANCH   5  14
ATOM     14  C   UNL     1      48.930   8.289  12.404  0.00  0.00    +0.000 C 
ATOM     15  C   UNL     1      49.787   9.233  11.569  0.00  0.00    +0.000 C 
ATOM     16  C   UNL     1      50.089   7.771  11.581  0.00  0.00    +0.000 C 
BRANCH  14  17
ATOM     17  C   UNL     1      49.063   8.318  13.922  0.00  0.00    +0.000 A 
ATOM     18  C   UNL     1      48.369   9.261  14.700  0.00  0.00    +0.000 A 
ATOM     19  C   UNL     1      48.346   9.181  16.096  0.00  0.00    +0.000 A 
ATOM     20  C   UNL     1      49.030   8.157  16.749  0.00  0.00    +0.000 A 
ATOM     21 CL   UNL     1      48.888   8.064  18.468  0.00  0.00    +0.000 Cl
ATOM     22  C   UNL     1      49.770   7.236  16.003  0.00  0.00    +0.000 A 
ATOM     23 CL   UNL     1      50.643   5.938  16.739  0.00  0.00    +0.000 Cl
ATOM     24  C   UNL     1      49.788   7.325  14.605  0.00  0.00    +0.000 A 
ENDBRANCH  14  17
ENDBRANCH   5  14
TORSDOF 3
ENDMDL
