MODEL 1
REMARK VINA RESULT:    -8.160      0.000      0.000
REMARK INTER + INTRA:         -11.810
REMARK INTER:                 -11.022
REMARK INTRA:                  -0.788
REMARK UNBOUND:                -0.788
REMARK  Name = 
REMARK  7 active torsions:
REMARK  status: ('A' for Active; 'I' for Inactive)
REMARK    1  A    between atoms: C_1  and  C_2
REMARK    2  A    between atoms: C_2  and  N_3
REMARK    3  A    between atoms: C_2  and  C_16
REMARK    4  A    between atoms: C_4  and  C_6
REMARK    5  A    between atoms: C_19  and  C_20
REMARK    6  A    between atoms: C_20  and  N_21
REMARK    7  A    between atoms: C_22  and  C_24
REMARK                            x       y       z     vdW  Elec       q    Type
REMARK                         _______ _______ _______ _____ _____    ______ ____
ROOT
ATOM      1  C   UNL     1      46.473   9.112  13.312  0.00  0.00    +0.000 C 
ATOM      2  C   UNL     1      47.186   7.752  13.300  0.00  0.00    +0.000 C 
ENDROOT
BRANCH   2   3
ATOM      3  C   UNL     1      46.291   6.690  12.659  0.00  0.00    +0.000 A 
ATOM      4  C   UNL     1      46.421   5.344  13.006  0.00  0.00    +0.000 A 
ATOM      5  C   UNL     1      45.632   4.392  12.362  0.00  0.00    +0.000 A 
ATOM      6  C   UNL     1      44.723   4.792  11.383  0.00  0.00    +0.000 A 
ATOM      7  C   UNL     1      44.657   6.151  11.101  0.00  0.00    +0.000 A 
ATOM      8  N   UNL     1      45.412   7.099  11.709  0.00  0.00    +0.000 NA
BRANCH   6   9
ATOM      9  C   UNL     1      43.885   3.800  10.637  0.00  0.00    +0.000 C 
BRANCH   9  10
ATOM     10  N   UNL     1      44.692   2.899   9.852  0.00  0.00    +0.000 N 
ATOM     11  C   UNL     1      45.240   3.285   8.647  0.00  0.00    +0.000 C 
ATOM     12  O   UNL     1      45.057   4.405   8.177  0.00  0.00    +0.000 OA
ATOM     13  H   UNL     1      44.917   1.973  10.198  0.00  0.00    +0.000 HD
BRANCH  11  14
ATOM     14  C   UNL     1      46.033   2.260   7.998  0.00  0.00    +0.000 A 
ATOM     15  C   UNL     1      46.976   2.343   6.990  0.00  0.00    +0.000 A 
ATOM     16  C   UNL     1      47.426   1.025   6.742  0.00  0.00    +0.000 A 
ATOM     17  C   UNL     1      46.733   0.216   7.610  0.00  0.00    +0.000 A 
ATOM     18  O   UNL     1      45.890   0.950   8.380  0.00  0.00    +0.000 OA
ENDBRANCH  11  14
ENDBRANCH   9  10
ENDBRANCH   6   9
ENDBRANCH   2   3
BRANCH   2  19
ATOM     19  N   UNL     1      47.592   7.323  14.638  0.00  0.00    +0.000 N 
ATOM     20  C   UNL     1      48.887   6.986  14.944  0.00  0.00    +0.000 C 
ATOM     21  O   UNL     1      49.810   7.091  14.143  0.00  0.00    +0.000 OA
ATOM     22  H   UNL     1      46.859   6.891  15.196  0.00  0.00    +0.000 HD
BRANCH  20  23
ATOM     23  C   UNL     1      49.137   6.564  16.326  0.00  0.00    +0.000 A 
ATOM     24  C   UNL     1      49.840   7.401  17.182  0.00  0.00    +0.000 A 
ATOM     25  S   UNL     1      50.038   6.763  18.751  0.00  0.00    +0.000 S 
ATOM     26  C   UNL     1      49.234   5.325  18.326  0.00  0.00    +0.000 A 
ATOM     27  N   UNL     1      49.093   4.311  19.220  0.00  0.00    +0.000 NA
ATOM     28  C   UNL     1      48.505   3.262  18.747  0.00  0.00    +0.000 A 
ATOM     29  N   UNL     1      48.025   3.144  17.467  0.00  0.00    +0.000 N 
ATOM     30  C   UNL     1      48.083   4.171  16.553  0.00  0.00    +0.000 A 
ATOM     31  O   UNL     1      47.547   4.083  15.454  0.00  0.00    +0.000 OA
ATOM     32  C   UNL     1      48.785   5.349  17.018  0.00  0.00    +0.000 A 
ATOM     33  H   UNL     1      47.550   2.306  17.169  0.00  0.00    +0.000 HD
ENDBRANCH  20  23
ENDBRANCH   2  19
TORSDOF 6
ENDMDL
MODEL 2
REMARK VINA RESULT:    -7.776      2.150      3.889
REMARK INTER + INTRA:         -11.291
REMARK INTER:                 -10.279
REMARK INTRA:                  -1.012
REMARK UNBOUND:                -0.788
REMARK  Name = 
REMARK  7 active torsions:
REMARK  status: ('A' for Active; 'I' for Inactive)
REMARK    1  A    between atoms: C_1  and  C_2
REMARK    2  A    between atoms: C_2  and  N_3
REMARK    3  A    between atoms: C_2  and  C_16
REMARK    4  A    between atoms: C_4  and  C_6
REMARK    5  A    between atoms: C_19  and  C_20
REMARK    6  A    between atoms: C_20  and  N_21
REMARK    7  A    between atoms: C_22  and  C_24
REMARK                            x       y       z     vdW  Elec       q    Type
REMARK                         _______ _______ _______ _____ _____    ______ ____
ROOT
ATOM      1  C   UNL     1      47.534   3.458  15.577  0.00  0.00    +0.000 C 
ATOM      2  C   UNL     1      46.958   4.810  15.131  0.00  0.00    +0.000 C 
ENDROOT
BRANCH   2   3
ATOM      3  C   UNL     1      46.202   4.654  13.810  0.00  0.00    +0.000 A 
ATOM      4  C   UNL     1      45.633   5.761  13.179  0.00  0.00    +0.000 A 
ATOM      5  C   UNL     1      44.900   5.580  12.007  0.00  0.00    +0.000 A 
ATOM      6  C   UNL     1      44.745   4.299  11.478  0.00  0.00    +0.000 A 
ATOM      7  C   UNL     1      45.346   3.253  12.169  0.00  0.00    +0.000 A 
ATOM      8  N   UNL     1      46.062   3.400  13.310  0.00  0.00    +0.000 NA
BRANCH   6   9
ATOM      9  C   UNL     1      43.931   4.052  10.245  0.00  0.00    +0.000 C 
BRANCH   9  10
ATOM     10  N   UNL     1      44.681   3.342   9.240  0.00  0.00    +0.000 N 
ATOM     11  C   UNL     1      45.607   3.982   8.443  0.00  0.00    +0.000 C 
ATOM     12  O   UNL     1      45.826   5.187   8.538  0.00  0.00    +0.000 OA
ATOM     13  H   UNL     1      44.581   2.339   9.134  0.00  0.00    +0.000 HD
BRANCH  11  14
ATOM     14  C   UNL     1      46.278   3.115   7.496  0.00  0.00    +0.000 A 
ATOM     15  C   UNL     1      46.642   3.319   6.177  0.00  0.00    +0.000 A 
ATOM     16  C   UNL     1      47.264   2.126   5.736  0.00  0.00    +0.000 A 
ATOM     17  C   UNL     1      47.244   1.267   6.808  0.00  0.00    +0.000 A 
ATOM     18  O   UNL     1      46.654   1.853   7.881  0.00  0.00    +0.000 OA
ENDBRANCH  11  14
ENDBRANCH   9  10
ENDBRANCH   6   9
ENDBRANCH   2   3
BRANCH   2  19
ATOM     19  N   UNL     1      47.988   5.840  14.999  0.00  0.00    +0.000 N 
ATOM     20  C   UNL     1      48.573   6.442  16.085  0.00  0.00    +0.000 C 
ATOM     21  O   UNL     1      48.333   6.110  17.241  0.00  0.00    +0.000 OA
ATOM     22  H   UNL     1      47.956   6.377  14.136  0.00  0.00    +0.000 HD
BRANCH  20  23
ATOM     23  C   UNL     1      49.582   7.465  15.793  0.00  0.00    +0.000 A 
ATOM     24  C   UNL     1      50.873   7.315  16.279  0.00  0.00    +0.000 A 
ATOM     25  S   UNL     1      51.920   8.588  15.845  0.00  0.00    +0.000 S 
ATOM     26  C   UNL     1      50.671   9.409  15.033  0.00  0.00    +0.000 A 
ATOM     27  N   UNL     1      50.889  10.621  14.455  0.00  0.00    +0.000 NA
ATOM     28  C   UNL     1      49.841  11.150  13.916  0.00  0.00    +0.000 A 
ATOM     29  N   UNL     1      48.600  10.567  13.883  0.00  0.00    +0.000 N 
ATOM     30  C   UNL     1      48.352   9.313  14.391  0.00  0.00    +0.000 A 
ATOM     31  O   UNL     1      47.264   8.765  14.249  0.00  0.00    +0.000 OA
ATOM     32  C   UNL     1      49.483   8.702  15.058  0.00  0.00    +0.000 A 
ATOM     33  H   UNL     1      47.828  11.023  13.421  0.00  0.00    +0.000 HD
ENDBRANCH  20  23
ENDBRANCH   2  19
TORSDOF 6
ENDMDL
MODEL 3
REMARK VINA RESULT:    -7.527      1.946      2.546
REMARK INTER + INTRA:         -10.955
REMARK INTER:                  -9.866
REMARK INTRA:                  -1.088
REMARK UNBOUND:                -0.788
REMARK  Name = 
REMARK  7 active torsions:
REMARK  status: ('A' for Active; 'I' for Inactive)
REMARK    1  A    between atoms: C_1  and  C_2
REMARK    2  A    between atoms: C_2  and  N_3
REMARK    3  A    between atoms: C_2  and  C_16
REMARK    4  A    between atoms: C_4  and  C_6
REMARK    5  A    between atoms: C_19  and  C_20
REMARK    6  A    between atoms: C_20  and  N_21
REMARK    7  A    between atoms: C_22  and  C_24
REMARK                            x       y       z     vdW  Elec       q    Type
REMARK                         _______ _______ _______ _____ _____    ______ ____
ROOT
ATOM      1  C   UNL     1      47.800   9.363  14.265  0.00  0.00    +0.000 C 
ATOM      2  C   UNL     1      48.128   7.866  14.179  0.00  0.00    +0.000 C 
ENDROOT
BRANCH   2   3
ATOM      3  C   UNL     1      47.216   7.181  13.160  0.00  0.00    +0.000 A 
ATOM      4  C   UNL     1      46.352   7.931  12.360  0.00  0.00    +0.000 A 
ATOM      5  C   UNL     1      45.491   7.275  11.481  0.00  0.00    +0.000 A 
ATOM      6  C   UNL     1      45.502   5.882  11.411  0.00  0.00    +0.000 A 
ATOM      7  C   UNL     1      46.394   5.214  12.241  0.00  0.00    +0.000 A 
ATOM      8  N   UNL     1      47.241   5.825  13.105  0.00  0.00    +0.000 NA
BRANCH   6   9
ATOM      9  C   UNL     1      44.565   5.134  10.512  0.00  0.00    +0.000 C 
BRANCH   9  10
ATOM     10  N   UNL     1      45.260   4.497   9.423  0.00  0.00    +0.000 N 
ATOM     11  C   UNL     1      45.108   3.152   9.157  0.00  0.00    +0.000 C 
ATOM     12  O   UNL     1      44.386   2.431   9.841  0.00  0.00    +0.000 OA
ATOM     13  H   UNL     1      45.841   5.039   8.793  0.00  0.00    +0.000 HD
BRANCH  11  14
ATOM     14  C   UNL     1      45.870   2.679   8.019  0.00  0.00    +0.000 A 
ATOM     15  C   UNL     1      46.165   3.282   6.809  0.00  0.00    +0.000 A 
ATOM     16  C   UNL     1      46.938   2.355   6.070  0.00  0.00    +0.000 A 
ATOM     17  C   UNL     1      47.071   1.246   6.869  0.00  0.00    +0.000 A 
ATOM     18  O   UNL     1      46.433   1.429   8.053  0.00  0.00    +0.000 OA
ENDBRANCH  11  14
ENDBRANCH   9  10
ENDBRANCH   6   9
ENDBRANCH   2   3
BRANCH   2  19
ATOM     19  N   UNL     1      48.023   7.196  15.475  0.00  0.00    +0.000 N 
ATOM     20  C   UNL     1      49.072   6.517  16.043  0.00  0.00    +0.000 C 
ATOM     21  O   UNL     1      50.193   6.485  15.545  0.00  0.00    +0.000 OA
ATOM     22  H   UNL     1      47.085   6.896  15.733  0.00  0.00    +0.000 HD
BRANCH  20  23
ATOM     23  C   UNL     1      48.809   5.887  17.341  0.00  0.00    +0.000 A 
ATOM     24  C   UNL     1      48.958   4.514  17.480  0.00  0.00    +0.000 A 
ATOM     25  S   UNL     1      48.620   3.945  19.051  0.00  0.00    +0.000 S 
ATOM     26  C   UNL     1      48.216   5.508  19.588  0.00  0.00    +0.000 A 
ATOM     27  N   UNL     1      47.786   5.723  20.860  0.00  0.00    +0.000 NA
ATOM     28  C   UNL     1      47.469   6.949  21.116  0.00  0.00    +0.000 A 
ATOM     29  N   UNL     1      47.563   7.984  20.220  0.00  0.00    +0.000 N 
ATOM     30  C   UNL     1      48.060   7.824  18.946  0.00  0.00    +0.000 A 
ATOM     31  O   UNL     1      48.242   8.782  18.203  0.00  0.00    +0.000 OA
ATOM     32  C   UNL     1      48.375   6.456  18.594  0.00  0.00    +0.000 A 
ATOM     33  H   UNL     1      47.325   8.925  20.492  0.00  0.00    +0.000 HD
ENDBRANCH  20  23
ENDBRANCH   2  19
TORSDOF 6
ENDMDL
MODEL 4
REMARK VINA RESULT:    -7.004      2.772      3.559
REMARK INTER + INTRA:         -10.249
REMARK INTER:                  -9.173
REMARK INTRA:                  -1.076
REMARK UNBOUND:                -0.788
REMARK  Name = 
REMARK  7 active torsions:
REMARK  status: ('A' for Active; 'I' for Inactive)
REMARK    1  A    between atoms: C_1  and  C_2
REMARK    2  A    between atoms: C_2  and  N_3
REMARK    3  A    between atoms: C_2  and  C_16
REMARK    4  A    between atoms: C_4  and  C_6
REMARK    5  A    between atoms: C_19  and  C_20
REMARK    6  A    between atoms: C_20  and  N_21
REMARK    7  A    between atoms: C_22  and  C_24
REMARK                            x       y       z     vdW  Elec       q    Type
REMARK                         _______ _______ _______ _____ _____    ______ ____
ROOT
ATOM      1  C   UNL     1      47.873  10.266  13.236  0.00  0.00    +0.000 C 
ATOM      2  C   UNL     1      47.975   8.835  13.785  0.00  0.00    +0.000 C 
ENDROOT
BRANCH   2   3
ATOM      3  C   UNL     1      47.013   7.910  13.038  0.00  0.00    +0.000 A 
ATOM      4  C   UNL     1      47.251   6.536  12.973  0.00  0.00    +0.000 A 
ATOM      5  C   UNL     1      46.388   5.727  12.236  0.00  0.00    +0.000 A 
ATOM      6  C   UNL     1      45.299   6.295  11.574  0.00  0.00    +0.000 A 
ATOM      7  C   UNL     1      45.136   7.670  11.694  0.00  0.00    +0.000 A 
ATOM      8  N   UNL     1      45.959   8.481  12.402  0.00  0.00    +0.000 NA
BRANCH   6   9
ATOM      9  C   UNL     1      44.371   5.469  10.737  0.00  0.00    +0.000 C 
BRANCH   9  10
ATOM     10  N   UNL     1      45.084   4.685   9.761  0.00  0.00    +0.000 N 
ATOM     11  C   UNL     1      44.795   3.353   9.554  0.00  0.00    +0.000 C 
ATOM     12  O   UNL     1      43.930   2.766  10.200  0.00  0.00    +0.000 OA
ATOM     13  H   UNL     1      45.783   5.114   9.164  0.00  0.00    +0.000 HD
BRANCH  11  14
ATOM     14  C   UNL     1      45.598   2.721   8.527  0.00  0.00    +0.000 A 
ATOM     15  C   UNL     1      46.100   3.213   7.336  0.00  0.00    +0.000 A 
ATOM     16  C   UNL     1      46.809   2.153   6.722  0.00  0.00    +0.000 A 
ATOM     17  C   UNL     1      46.698   1.079   7.572  0.00  0.00    +0.000 A 
ATOM     18  O   UNL     1      45.972   1.409   8.670  0.00  0.00    +0.000 OA
ENDBRANCH  11  14
ENDBRANCH   9  10
ENDBRANCH   6   9
ENDBRANCH   2   3
BRANCH   2  19
ATOM     19  N   UNL     1      47.718   8.769  15.223  0.00  0.00    +0.000 N 
ATOM     20  C   UNL     1      48.665   8.352  16.125  0.00  0.00    +0.000 C 
ATOM     21  O   UNL     1      49.816   8.076  15.802  0.00  0.00    +0.000 OA
ATOM     22  H   UNL     1      46.743   8.636  15.483  0.00  0.00    +0.000 HD
BRANCH  20  23
ATOM     23  C   UNL     1      48.254   8.328  17.532  0.00  0.00    +0.000 A 
ATOM     24  C   UNL     1      48.223   7.122  18.218  0.00  0.00    +0.000 A 
ATOM     25  S   UNL     1      47.731   7.271  19.843  0.00  0.00    +0.000 S 
ATOM     26  C   UNL     1      47.494   8.948  19.672  0.00  0.00    +0.000 A 
ATOM     27  N   UNL     1      47.023   9.697  20.705  0.00  0.00    +0.000 NA
ATOM     28  C   UNL     1      46.846  10.945  20.420  0.00  0.00    +0.000 A 
ATOM     29  N   UNL     1      47.118  11.515  19.202  0.00  0.00    +0.000 N 
ATOM     30  C   UNL     1      47.661  10.809  18.153  0.00  0.00    +0.000 A 
ATOM     31  O   UNL     1      48.002  11.363  17.114  0.00  0.00    +0.000 OA
ATOM     32  C   UNL     1      47.825   9.392  18.406  0.00  0.00    +0.000 A 
ATOM     33  H   UNL     1      46.983  12.503  19.053  0.00  0.00    +0.000 HD
ENDBRANCH  20  23
ENDBRANCH   2  19
TORSDOF 6
ENDMDL
MODEL 5
REMARK VINA RESULT:    -6.738      1.575      2.260
REMARK INTER + INTRA:          -9.890
REMARK INTER:                  -8.728
REMARK INTRA:                  -1.162
REMARK UNBOUND:                -0.788
REMARK  Name = 
REMARK  7 active torsions:
REMARK  status: ('A' for Active; 'I' for Inactive)
REMARK    1  A    between atoms: C_1  and  C_2
REMARK    2  A    between atoms: C_2  and  N_3
REMARK    3  A    between atoms: C_2  and  C_16
REMARK    4  A    between atoms: C_4  and  C_6
REMARK    5  A    between atoms: C_19  and  C_20
REMARK    6  A    between atoms: C_20  and  N_21
REMARK    7  A    between atoms: C_22  and  C_24
REMARK                            x       y       z     vdW  Elec       q    Type
REMARK                         _______ _______ _______ _____ _____    ______ ____
ROOT
ATOM      1  C   UNL     1      48.987  10.150  14.715  0.00  0.00    +0.000 C 
ATOM      2  C   UNL     1      49.143   8.634  14.524  0.00  0.00    +0.000 C 
ENDROOT
BRANCH   2   3
ATOM      3  C   UNL     1      48.013   8.090  13.648  0.00  0.00    +0.000 A 
ATOM      4  C   UNL     1      48.196   6.936  12.885  0.00  0.00    +0.000 A 
ATOM      5  C   UNL     1      47.168   6.497  12.051  0.00  0.00    +0.000 A 
ATOM      6  C   UNL     1      45.972   7.212  11.990  0.00  0.00    +0.000 A 
ATOM      7  C   UNL     1      45.875   8.349  12.784  0.00  0.00    +0.000 A 
ATOM      8  N   UNL     1      46.857   8.799  13.602  0.00  0.00    +0.000 NA
BRANCH   6   9
ATOM      9  C   UNL     1      44.858   6.801  11.077  0.00  0.00    +0.000 C 
BRANCH   9  10
ATOM     10  N   UNL     1      45.304   5.873  10.069  0.00  0.00    +0.000 N 
ATOM     11  C   UNL     1      44.740   4.622   9.939  0.00  0.00    +0.000 C 
ATOM     12  O   UNL     1      43.842   4.232  10.681  0.00  0.00    +0.000 OA
ATOM     13  H   UNL     1      46.014   6.142   9.397  0.00  0.00    +0.000 HD
BRANCH  11  14
ATOM     14  C   UNL     1      45.300   3.824   8.867  0.00  0.00    +0.000 A 
ATOM     15  C   UNL     1      45.365   2.453   8.693  0.00  0.00    +0.000 A 
ATOM     16  C   UNL     1      46.032   2.228   7.465  0.00  0.00    +0.000 A 
ATOM     17  C   UNL     1      46.334   3.471   6.963  0.00  0.00    +0.000 A 
ATOM     18  O   UNL     1      45.893   4.446   7.798  0.00  0.00    +0.000 OA
ENDBRANCH  11  14
ENDBRANCH   9  10
ENDBRANCH   6   9
ENDBRANCH   2   3
BRANCH   2  19
ATOM     19  N   UNL     1      49.181   7.913  15.796  0.00  0.00    +0.000 N 
ATOM     20  C   UNL     1      50.300   7.250  16.235  0.00  0.00    +0.000 C 
ATOM     21  O   UNL     1      51.369   7.275  15.634  0.00  0.00    +0.000 OA
ATOM     22  H   UNL     1      48.282   7.571  16.128  0.00  0.00    +0.000 HD
BRANCH  20  23
ATOM     23  C   UNL     1      50.181   6.563  17.525  0.00  0.00    +0.000 A 
ATOM     24  C   UNL     1      50.906   7.022  18.617  0.00  0.00    +0.000 A 
ATOM     25  S   UNL     1      50.650   6.116  20.038  0.00  0.00    +0.000 S 
ATOM     26  C   UNL     1      49.598   5.049  19.232  0.00  0.00    +0.000 A 
ATOM     27  N   UNL     1      49.045   3.988  19.878  0.00  0.00    +0.000 NA
ATOM     28  C   UNL     1      48.306   3.236  19.133  0.00  0.00    +0.000 A 
ATOM     29  N   UNL     1      48.052   3.461  17.803  0.00  0.00    +0.000 N 
ATOM     30  C   UNL     1      48.532   4.560  17.128  0.00  0.00    +0.000 A 
ATOM     31  O   UNL     1      48.199   4.800  15.973  0.00  0.00    +0.000 OA
ATOM     32  C   UNL     1      49.414   5.403  17.908  0.00  0.00    +0.000 A 
ATOM     33  H   UNL     1      47.442   2.849  17.284  0.00  0.00    +0.000 HD
ENDBRANCH  20  23
ENDBRANCH   2  19
TORSDOF 6
ENDMDL
MODEL 6
REMARK VINA RESULT:    -6.737      2.790      3.847
REMARK INTER + INTRA:          -9.888
REMARK INTER:                  -8.947
REMARK INTRA:                  -0.941
REMARK UNBOUND:                -0.788
REMARK  Name = 
REMARK  7 active torsions:
REMARK  status: ('A' for Active; 'I' for Inactive)
REMARK    1  A    between atoms: C_1  and  C_2
REMARK    2  A    between atoms: C_2  and  N_3
REMARK    3  A    between atoms: C_2  and  C_16
REMARK    4  A    between atoms: C_4  and  C_6
REMARK    5  A    between atoms: C_19  and  C_20
REMARK    6  A    between atoms: C_20  and  N_21
REMARK    7  A    between atoms: C_22  and  C_24
REMARK                            x       y       z     vdW  Elec       q    Type
REMARK                         _______ _______ _______ _____ _____    ______ ____
ROOT
ATOM      1  C   UNL     1      47.428   4.424  15.798  0.00  0.00    +0.000 C 
ATOM      2  C   UNL     1      47.365   5.662  14.892  0.00  0.00    +0.000 C 
ENDROOT
BRANCH   2   3
ATOM      3  C   UNL     1      46.629   5.331  13.592  0.00  0.00    +0.000 A 
ATOM      4  C   UNL     1      46.650   6.219  12.515  0.00  0.00    +0.000 A 
ATOM      5  C   UNL     1      45.923   5.917  11.365  0.00  0.00    +0.000 A 
ATOM      6  C   UNL     1      45.185   4.736  11.302  0.00  0.00    +0.000 A 
ATOM      7  C   UNL     1      45.220   3.909  12.418  0.00  0.00    +0.000 A 
ATOM      8  N   UNL     1      45.918   4.177  13.549  0.00  0.00    +0.000 NA
BRANCH   6   9
ATOM      9  C   UNL     1      44.355   4.392  10.103  0.00  0.00    +0.000 C 
BRANCH   9  10
ATOM     10  N   UNL     1      45.172   4.072   8.960  0.00  0.00    +0.000 N 
ATOM     11  C   UNL     1      45.514   2.771   8.658  0.00  0.00    +0.000 C 
ATOM     12  O   UNL     1      45.154   1.825   9.353  0.00  0.00    +0.000 OA
ATOM     13  H   UNL     1      45.470   4.799   8.319  0.00  0.00    +0.000 HD
BRANCH  11  14
ATOM     14  C   UNL     1      46.328   2.630   7.468  0.00  0.00    +0.000 A 
ATOM     15  C   UNL     1      46.301   3.308   6.262  0.00  0.00    +0.000 A 
ATOM     16  C   UNL     1      47.320   2.748   5.456  0.00  0.00    +0.000 A 
ATOM     17  C   UNL     1      47.909   1.765   6.213  0.00  0.00    +0.000 A 
ATOM     18  O   UNL     1      47.322   1.685   7.435  0.00  0.00    +0.000 OA
ENDBRANCH  11  14
ENDBRANCH   9  10
ENDBRANCH   6   9
ENDBRANCH   2   3
BRANCH   2  19
ATOM     19  N   UNL     1      48.690   6.203  14.593  0.00  0.00    +0.000 N 
ATOM     20  C   UNL     1      49.009   7.524  14.784  0.00  0.00    +0.000 C 
ATOM     21  O   UNL     1      48.233   8.331  15.287  0.00  0.00    +0.000 OA
ATOM     22  H   UNL     1      49.212   5.701  13.878  0.00  0.00    +0.000 HD
BRANCH  20  23
ATOM     23  C   UNL     1      50.375   7.920  14.427  0.00  0.00    +0.000 A 
ATOM     24  C   UNL     1      50.670   8.263  13.114  0.00  0.00    +0.000 A 
ATOM     25  S   UNL     1      52.298   8.703  12.871  0.00  0.00    +0.000 S 
ATOM     26  C   UNL     1      52.678   8.402  14.503  0.00  0.00    +0.000 A 
ATOM     27  N   UNL     1      53.950   8.545  14.964  0.00  0.00    +0.000 NA
ATOM     28  C   UNL     1      54.102   8.238  16.209  0.00  0.00    +0.000 A 
ATOM     29  N   UNL     1      53.093   7.821  17.041  0.00  0.00    +0.000 N 
ATOM     30  C   UNL     1      51.782   7.732  16.635  0.00  0.00    +0.000 A 
ATOM     31  O   UNL     1      50.881   7.469  17.424  0.00  0.00    +0.000 OA
ATOM     32  C   UNL     1      51.569   8.012  15.230  0.00  0.00    +0.000 A 
ATOM     33  H   UNL     1      53.275   7.623  18.013  0.00  0.00    +0.000 HD
ENDBRANCH  20  23
ENDBRANCH   2  19
TORSDOF 6
ENDMDL
MODEL 7
REMARK VINA RESULT:    -6.425      3.764      8.570
REMARK INTER + INTRA:          -9.466
REMARK INTER:                  -8.643
REMARK INTRA:                  -0.823
REMARK UNBOUND:                -0.788
REMARK  Name = 
REMARK  7 active torsions:
REMARK  status: ('A' for Active; 'I' for Inactive)
REMARK    1  A    between atoms: C_1  and  C_2
REMARK    2  A    between atoms: C_2  and  N_3
REMARK    3  A    between atoms: C_2  and  C_16
REMARK    4  A    between atoms: C_4  and  C_6
REMARK    5  A    between atoms: C_19  and  C_20
REMARK    6  A    between atoms: C_20  and  N_21
REMARK    7  A    between atoms: C_22  and  C_24
REMARK                            x       y       z     vdW  Elec       q    Type
REMARK                         _______ _______ _______ _____ _____    ______ ____
ROOT
ATOM      1  C   UNL     1      45.482   3.808  12.970  0.00  0.00    +0.000 C 
ATOM      2  C   UNL     1      46.551   4.900  13.122  0.00  0.00    +0.000 C 
ENDROOT
BRANCH   2   3
ATOM      3  C   UNL     1      47.154   4.859  14.527  0.00  0.00    +0.000 A 
ATOM      4  C   UNL     1      47.899   5.935  15.014  0.00  0.00    +0.000 A 
ATOM      5  C   UNL     1      48.485   5.846  16.276  0.00  0.00    +0.000 A 
ATOM      6  C   UNL     1      48.321   4.688  17.036  0.00  0.00    +0.000 A 
ATOM      7  C   UNL     1      47.563   3.667  16.476  0.00  0.00    +0.000 A 
ATOM      8  N   UNL     1      46.983   3.726  15.253  0.00  0.00    +0.000 NA
BRANCH   6   9
ATOM      9  C   UNL     1      48.967   4.533  18.379  0.00  0.00    +0.000 C 
BRANCH   9  10
ATOM     10  N   UNL     1      49.960   3.489  18.378  0.00  0.00    +0.000 N 
ATOM     11  C   UNL     1      51.177   3.650  17.750  0.00  0.00    +0.000 C 
ATOM     12  O   UNL     1      51.469   4.680  17.149  0.00  0.00    +0.000 OA
ATOM     13  H   UNL     1      49.803   2.627  18.889  0.00  0.00    +0.000 HD
BRANCH  11  14
ATOM     14  C   UNL     1      52.060   2.506  17.859  0.00  0.00    +0.000 A 
ATOM     15  C   UNL     1      51.930   1.210  17.391  0.00  0.00    +0.000 A 
ATOM     16  C   UNL     1      53.093   0.512  17.795  0.00  0.00    +0.000 A 
ATOM     17  C   UNL     1      53.863   1.419  18.483  0.00  0.00    +0.000 A 
ATOM     18  O   UNL     1      53.252   2.631  18.525  0.00  0.00    +0.000 OA
ENDBRANCH  11  14
ENDBRANCH   9  10
ENDBRANCH   6   9
ENDBRANCH   2   3
BRANCH   2  19
ATOM     19  N   UNL     1      46.028   6.236  12.840  0.00  0.00    +0.000 N 
ATOM     20  C   UNL     1      46.711   7.151  12.079  0.00  0.00    +0.000 C 
ATOM     21  O   UNL     1      47.772   6.893  11.519  0.00  0.00    +0.000 OA
ATOM     22  H   UNL     1      45.382   6.604  13.534  0.00  0.00    +0.000 HD
BRANCH  20  23
ATOM     23  C   UNL     1      46.063   8.453  11.894  0.00  0.00    +0.000 A 
ATOM     24  C   UNL     1      46.778   9.617  12.143  0.00  0.00    +0.000 A 
ATOM     25  S   UNL     1      45.881  11.041  11.874  0.00  0.00    +0.000 S 
ATOM     26  C   UNL     1      44.491  10.151  11.462  0.00  0.00    +0.000 A 
ATOM     27  N   UNL     1      43.322  10.777  11.159  0.00  0.00    +0.000 NA
ATOM     28  C   UNL     1      42.337   9.978  10.914  0.00  0.00    +0.000 A 
ATOM     29  N   UNL     1      42.421   8.609  10.923  0.00  0.00    +0.000 N 
ATOM     30  C   UNL     1      43.599   7.936  11.154  0.00  0.00    +0.000 A 
ATOM     31  O   UNL     1      43.674   6.717  11.044  0.00  0.00    +0.000 OA
ATOM     32  C   UNL     1      44.720   8.788  11.491  0.00  0.00    +0.000 A 
ATOM     33  H   UNL     1      41.619   8.041  10.695  0.00  0.00    +0.000 HD
ENDBRANCH  20  23
ENDBRANCH   2  19
TORSDOF 6
ENDMDL
MODEL 8
REMARK VINA RESULT:    -6.013      5.368      6.979
REMARK INTER + INTRA:          -8.909
REMARK INTER:                  -8.254
REMARK INTRA:                  -0.655
REMARK UNBOUND:                -0.788
REMARK  Name = 
REMARK  7 active torsions:
REMARK  status: ('A' for Active; 'I' for Inactive)
REMARK    1  A    between atoms: C_1  and  C_2
REMARK    2  A    between atoms: C_2  and  N_3
REMARK    3  A    between atoms: C_2  and  C_16
REMARK    4  A    between atoms: C_4  and  C_6
REMARK    5  A    between atoms: C_19  and  C_20
REMARK    6  A    between atoms: C_20  and  N_21
REMARK    7  A    between atoms: C_22  and  C_24
REMARK                            x       y       z     vdW  Elec       q    Type
REMARK                         _______ _______ _______ _____ _____    ______ ____
ROOT
ATOM      1  C   UNL     1      49.937   9.559  14.190  0.00  0.00    +0.000 C 
ATOM      2  C   UNL     1      49.987   8.190  13.494  0.00  0.00    +0.000 C 
ENDROOT
BRANCH   2   3
ATOM      3  C   UNL     1      50.995   8.217  12.344  0.00  0.00    +0.000 A 
ATOM      4  C   UNL     1      52.125   9.034  12.406  0.00  0.00    +0.000 A 
ATOM      5  C   UNL     1      52.996   9.080  11.317  0.00  0.00    +0.000 A 
ATOM      6  C   UNL     1      52.730   8.312  10.184  0.00  0.00    +0.000 A 
ATOM      7  C   UNL     1      51.584   7.526  10.208  0.00  0.00    +0.000 A 
ATOM      8  N   UNL     1      50.720   7.462  11.251  0.00  0.00    +0.000 NA
BRANCH   6   9
ATOM      9  C   UNL     1      53.615   8.364   8.976  0.00  0.00    +0.000 C 
BRANCH   9  10
ATOM     10  N   UNL     1      54.038   7.049   8.565  0.00  0.00    +0.000 N 
ATOM     11  C   UNL     1      53.482   6.421   7.471  0.00  0.00    +0.000 C 
ATOM     12  O   UNL     1      52.593   6.942   6.803  0.00  0.00    +0.000 OA
ATOM     13  H   UNL     1      54.796   6.577   9.046  0.00  0.00    +0.000 HD
BRANCH  11  14
ATOM     14  C   UNL     1      54.034   5.110   7.192  0.00  0.00    +0.000 A 
ATOM     15  C   UNL     1      55.061   4.409   7.797  0.00  0.00    +0.000 A 
ATOM     16  C   UNL     1      55.177   3.179   7.108  0.00  0.00    +0.000 A 
ATOM     17  C   UNL     1      54.216   3.200   6.126  0.00  0.00    +0.000 A 
ATOM     18  O   UNL     1      53.514   4.360   6.168  0.00  0.00    +0.000 OA
ENDBRANCH  11  14
ENDBRANCH   9  10
ENDBRANCH   6   9
ENDBRANCH   2   3
BRANCH   2  19
ATOM     19  N   UNL     1      48.677   7.766  13.002  0.00  0.00    +0.000 N 
ATOM     20  C   UNL     1      47.954   6.762  13.596  0.00  0.00    +0.000 C 
ATOM     21  O   UNL     1      48.317   6.198  14.624  0.00  0.00    +0.000 OA
ATOM     22  H   UNL     1      48.513   7.928  12.011  0.00  0.00    +0.000 HD
BRANCH  20  23
ATOM     23  C   UNL     1      46.662   6.442  12.981  0.00  0.00    +0.000 A 
ATOM     24  C   UNL     1      45.853   7.467  12.510  0.00  0.00    +0.000 A 
ATOM     25  S   UNL     1      44.392   6.924  11.820  0.00  0.00    +0.000 S 
ATOM     26  C   UNL     1      44.768   5.302  12.172  0.00  0.00    +0.000 A 
ATOM     27  N   UNL     1      43.896   4.301  11.876  0.00  0.00    +0.000 NA
ATOM     28  C   UNL     1      44.290   3.126  12.241  0.00  0.00    +0.000 A 
ATOM     29  N   UNL     1      45.487   2.859  12.857  0.00  0.00    +0.000 N 
ATOM     30  C   UNL     1      46.428   3.830  13.110  0.00  0.00    +0.000 A 
ATOM     31  O   UNL     1      47.536   3.552  13.555  0.00  0.00    +0.000 OA
ATOM     32  C   UNL     1      46.008   5.174  12.770  0.00  0.00    +0.000 A 
ATOM     33  H   UNL     1      45.747   1.913  13.092  0.00  0.00    +0.000 HD
ENDBRANCH  20  23
ENDBRANCH   2  19
TORSDOF 6
ENDMDL
MODEL 9
REMARK VINA RESULT:    -5.880      5.088      7.205
REMARK INTER + INTRA:          -8.730
REMARK INTER:                  -7.745
REMARK INTRA:                  -0.985
REMARK UNBOUND:                -0.788
REMARK  Name = 
REMARK  7 active torsions:
REMARK  status: ('A' for Active; 'I' for Inactive)
REMARK    1  A    between atoms: C_1  and  C_2
REMARK    2  A    between atoms: C_2  and  N_3
REMARK    3  A    between atoms: C_2  and  C_16
REMARK    4  A    between atoms: C_4  and  C_6
REMARK    5  A    between atoms: C_19  and  C_20
REMARK    6  A    between atoms: C_20  and  N_21
REMARK    7  A    between atoms: C_22  and  C_24
REMARK                            x       y       z     vdW  Elec       q    Type
REMARK                         _______ _______ _______ _____ _____    ______ ____
ROOT
ATOM      1  C   UNL     1      48.677   8.694  14.885  0.00  0.00    +0.000 C 
ATOM      2  C   UNL     1      49.087   7.417  14.136  0.00  0.00    +0.000 C 
ENDROOT
BRANCH   2   3
ATOM      3  C   UNL     1      50.150   7.737  13.084  0.00  0.00    +0.000 A 
ATOM      4  C   UNL     1      51.279   8.488  13.417  0.00  0.00    +0.000 A 
ATOM      5  C   UNL     1      52.201   8.813  12.423  0.00  0.00    +0.000 A 
ATOM      6  C   UNL     1      51.988   8.386  11.113  0.00  0.00    +0.000 A 
ATOM      7  C   UNL     1      50.840   7.642  10.870  0.00  0.00    +0.000 A 
ATOM      8  N   UNL     1      49.926   7.312  11.815  0.00  0.00    +0.000 NA
BRANCH   6   9
ATOM      9  C   UNL     1      52.931   8.748  10.006  0.00  0.00    +0.000 C 
BRANCH   9  10
ATOM     10  N   UNL     1      53.351   7.590   9.260  0.00  0.00    +0.000 N 
ATOM     11  C   UNL     1      53.248   7.540   7.886  0.00  0.00    +0.000 C 
ATOM     12  O   UNL     1      52.780   8.469   7.233  0.00  0.00    +0.000 OA
ATOM     13  H   UNL     1      53.784   6.802   9.729  0.00  0.00    +0.000 HD
BRANCH  11  14
ATOM     14  C   UNL     1      53.729   6.306   7.297  0.00  0.00    +0.000 A 
ATOM     15  C   UNL     1      55.005   5.904   6.946  0.00  0.00    +0.000 A 
ATOM     16  C   UNL     1      54.888   4.602   6.403  0.00  0.00    +0.000 A 
ATOM     17  C   UNL     1      53.552   4.286   6.454  0.00  0.00    +0.000 A 
ATOM     18  O   UNL     1      52.839   5.306   6.997  0.00  0.00    +0.000 OA
ENDBRANCH  11  14
ENDBRANCH   9  10
ENDBRANCH   6   9
ENDBRANCH   2   3
BRANCH   2  19
ATOM     19  N   UNL     1      47.948   6.746  13.510  0.00  0.00    +0.000 N 
ATOM     20  C   UNL     1      47.417   5.580  14.000  0.00  0.00    +0.000 C 
ATOM     21  O   UNL     1      47.807   5.054  15.038  0.00  0.00    +0.000 OA
ATOM     22  H   UNL     1      47.836   6.922  12.514  0.00  0.00    +0.000 HD
BRANCH  20  23
ATOM     23  C   UNL     1      46.283   5.021  13.256  0.00  0.00    +0.000 A 
ATOM     24  C   UNL     1      46.190   3.648  13.076  0.00  0.00    +0.000 A 
ATOM     25  S   UNL     1      44.812   3.165  12.197  0.00  0.00    +0.000 S 
ATOM     26  C   UNL     1      44.317   4.779  11.984  0.00  0.00    +0.000 A 
ATOM     27  N   UNL     1      43.204   5.081  11.263  0.00  0.00    +0.000 NA
ATOM     28  C   UNL     1      42.975   6.347  11.143  0.00  0.00    +0.000 A 
ATOM     29  N   UNL     1      43.746   7.337  11.697  0.00  0.00    +0.000 N 
ATOM     30  C   UNL     1      44.838   7.075  12.492  0.00  0.00    +0.000 A 
ATOM     31  O   UNL     1      45.442   7.971  13.070  0.00  0.00    +0.000 OA
ATOM     32  C   UNL     1      45.169   5.670  12.610  0.00  0.00    +0.000 A 
ATOM     33  H   UNL     1      43.495   8.308  11.588  0.00  0.00    +0.000 HD
ENDBRANCH  20  23
ENDBRANCH   2  19
TORSDOF 6
ENDMDL
