MODEL 1
REMARK VINA RESULT:    -8.107      0.000      0.000
REMARK INTER + INTRA:         -12.194
REMARK INTER:                 -10.950
REMARK INTRA:                  -1.244
REMARK UNBOUND:                -1.244
REMARK  Name = 
REMARK  8 active torsions:
REMARK  status: ('A' for Active; 'I' for Inactive)
REMARK    1  A    between atoms: C_1  and  C_2
REMARK    2  A    between atoms: C_2  and  N_3
REMARK    3  A    between atoms: C_2  and  C_17
REMARK    4  A    between atoms: C_4  and  C_6
REMARK    5  A    between atoms: N_12  and  C_13
REMARK    6  A    between atoms: C_20  and  O_21
REMARK    7  A    between atoms: O_21  and  C_22
REMARK    8  A    between atoms: C_22  and  C_23
REMARK                            x       y       z     vdW  Elec       q    Type
REMARK                         _______ _______ _______ _____ _____    ______ ____
ROOT
ATOM      1  C   UNL     1      47.545   8.565  13.490  0.00  0.00    +0.000 C 
ATOM      2  C   UNL     1      47.852   7.072  13.652  0.00  0.00    +0.000 C 
ENDROOT
BRANCH   2   3
ATOM      3  C   UNL     1      46.894   6.235  12.828  0.00  0.00    +0.000 A 
ATOM      4  C   UNL     1      46.527   6.622  11.535  0.00  0.00    +0.000 A 
ATOM      5  C   UNL     1      45.708   5.810  10.728  0.00  0.00    +0.000 A 
ATOM      6  C   UNL     1      45.237   4.591  11.243  0.00  0.00    +0.000 A 
ATOM      7  C   UNL     1      45.551   4.247  12.552  0.00  0.00    +0.000 A 
ATOM      8  C   UNL     1      46.364   5.034  13.339  0.00  0.00    +0.000 A 
BRANCH   6   9
ATOM      9  O   UNL     1      44.471   3.747  10.460  0.00  0.00    +0.000 OA
BRANCH   9  10
ATOM     10  C   UNL     1      44.541   4.075   9.039  0.00  0.00    +0.000 C 
BRANCH  10  11
ATOM     11  C   UNL     1      45.481   3.146   8.296  0.00  0.00    +0.000 A 
ATOM     12  C   UNL     1      46.315   3.673   7.322  0.00  0.00    +0.000 A 
ATOM     13  C   UNL     1      47.214   2.839   6.675  0.00  0.00    +0.000 A 
ATOM     14  C   UNL     1      47.268   1.489   7.027  0.00  0.00    +0.000 A 
ATOM     15  C   UNL     1      46.407   1.050   8.021  0.00  0.00    +0.000 A 
ATOM     16  N   UNL     1      45.524   1.842   8.671  0.00  0.00    +0.000 NA
ENDBRANCH  10  11
ENDBRANCH   9  10
ENDBRANCH   6   9
ENDBRANCH   2   3
BRANCH   2  17
ATOM     17  N   UNL     1      47.830   6.626  15.028  0.00  0.00    +0.000 N 
ATOM     18  C   UNL     1      48.946   6.480  15.796  0.00  0.00    +0.000 C 
ATOM     19  O   UNL     1      50.085   6.626  15.355  0.00  0.00    +0.000 OA
ATOM     20  H   UNL     1      46.916   6.526  15.471  0.00  0.00    +0.000 HD
BRANCH  18  21
ATOM     21  C   UNL     1      48.731   6.077  17.183  0.00  0.00    +0.000 A 
ATOM     22  C   UNL     1      48.954   4.781  17.626  0.00  0.00    +0.000 A 
ATOM     23  S   UNL     1      48.695   4.598  19.309  0.00  0.00    +0.000 S 
ATOM     24  C   UNL     1      48.284   6.240  19.483  0.00  0.00    +0.000 A 
ATOM     25  N   UNL     1      47.972   6.770  20.689  0.00  0.00    +0.000 NA
ATOM     26  C   UNL     1      47.686   8.029  20.668  0.00  0.00    +0.000 A 
ATOM     27  N   UNL     1      47.670   8.832  19.541  0.00  0.00    +0.000 N 
ATOM     28  C   UNL     1      47.283  10.224  19.641  0.00  0.00    +0.000 C 
ATOM     29  C   UNL     1      47.936   8.326  18.284  0.00  0.00    +0.000 A 
ATOM     30  O   UNL     1      47.807   9.005  17.256  0.00  0.00    +0.000 OA
ATOM     31  C   UNL     1      48.304   6.916  18.275  0.00  0.00    +0.000 A 
ENDBRANCH  18  21
ENDBRANCH   2  17
TORSDOF 6
ENDMDL
MODEL 2
REMARK VINA RESULT:    -7.910      1.716      2.641
REMARK INTER + INTRA:         -11.928
REMARK INTER:                 -10.596
REMARK INTRA:                  -1.333
REMARK UNBOUND:                -1.244
REMARK  Name = 
REMARK  8 active torsions:
REMARK  status: ('A' for Active; 'I' for Inactive)
REMARK    1  A    between atoms: C_1  and  C_2
REMARK    2  A    between atoms: C_2  and  N_3
REMARK    3  A    between atoms: C_2  and  C_17
REMARK    4  A    between atoms: C_4  and  C_6
REMARK    5  A    between atoms: N_12  and  C_13
REMARK    6  A    between atoms: C_20  and  O_21
REMARK    7  A    between atoms: O_21  and  C_22
REMARK    8  A    between atoms: C_22  and  C_23
REMARK                            x       y       z     vdW  Elec       q    Type
REMARK                         _______ _______ _______ _____ _____    ______ ____
ROOT
ATOM      1  C   UNL     1      45.759   9.553  12.460  0.00  0.00    +0.000 C 
ATOM      2  C   UNL     1      46.719   8.424  12.857  0.00  0.00    +0.000 C 
ENDROOT
BRANCH   2   3
ATOM      3  C   UNL     1      46.145   7.075  12.475  0.00  0.00    +0.000 A 
ATOM      4  C   UNL     1      45.135   6.965  11.514  0.00  0.00    +0.000 A 
ATOM      5  C   UNL     1      44.655   5.712  11.089  0.00  0.00    +0.000 A 
ATOM      6  C   UNL     1      45.195   4.547  11.656  0.00  0.00    +0.000 A 
ATOM      7  C   UNL     1      46.150   4.667  12.658  0.00  0.00    +0.000 A 
ATOM      8  C   UNL     1      46.630   5.892  13.067  0.00  0.00    +0.000 A 
BRANCH   6   9
ATOM      9  O   UNL     1      44.782   3.300  11.226  0.00  0.00    +0.000 OA
BRANCH   9  10
ATOM     10  C   UNL     1      44.212   3.325   9.882  0.00  0.00    +0.000 C 
BRANCH  10  11
ATOM     11  C   UNL     1      45.218   2.882   8.838  0.00  0.00    +0.000 A 
ATOM     12  C   UNL     1      45.755   3.828   7.978  0.00  0.00    +0.000 A 
ATOM     13  C   UNL     1      46.714   3.439   7.056  0.00  0.00    +0.000 A 
ATOM     14  C   UNL     1      47.127   2.106   7.021  0.00  0.00    +0.000 A 
ATOM     15  C   UNL     1      46.546   1.230   7.925  0.00  0.00    +0.000 A 
ATOM     16  N   UNL     1      45.613   1.583   8.838  0.00  0.00    +0.000 NA
ENDBRANCH  10  11
ENDBRANCH   9  10
ENDBRANCH   6   9
ENDBRANCH   2   3
BRANCH   2  17
ATOM     17  N   UNL     1      47.063   8.428  14.261  0.00  0.00    +0.000 N 
ATOM     18  C   UNL     1      48.209   8.971  14.760  0.00  0.00    +0.000 C 
ATOM     19  O   UNL     1      49.101   9.425  14.044  0.00  0.00    +0.000 OA
ATOM     20  H   UNL     1      46.351   8.106  14.917  0.00  0.00    +0.000 HD
BRANCH  18  21
ATOM     21  C   UNL     1      48.365   8.939  16.211  0.00  0.00    +0.000 A 
ATOM     22  C   UNL     1      48.226  10.071  17.002  0.00  0.00    +0.000 A 
ATOM     23  S   UNL     1      48.387   9.739  18.674  0.00  0.00    +0.000 S 
ATOM     24  C   UNL     1      48.643   8.083  18.381  0.00  0.00    +0.000 A 
ATOM     25  N   UNL     1      48.828   7.203  19.393  0.00  0.00    +0.000 NA
ATOM     26  C   UNL     1      49.006   5.980  19.018  0.00  0.00    +0.000 A 
ATOM     27  N   UNL     1      49.027   5.534  17.709  0.00  0.00    +0.000 N 
ATOM     28  C   UNL     1      49.286   4.140  17.416  0.00  0.00    +0.000 C 
ATOM     29  C   UNL     1      48.889   6.401  16.643  0.00  0.00    +0.000 A 
ATOM     30  O   UNL     1      49.028   6.034  15.468  0.00  0.00    +0.000 OA
ATOM     31  C   UNL     1      48.646   7.785  17.028  0.00  0.00    +0.000 A 
ENDBRANCH  18  21
ENDBRANCH   2  17
TORSDOF 6
ENDMDL
MODEL 3
REMARK VINA RESULT:    -7.671      3.580      4.425
REMARK INTER + INTRA:         -11.606
REMARK INTER:                 -10.375
REMARK INTRA:                  -1.230
REMARK UNBOUND:                -1.244
REMARK  Name = 
REMARK  8 active torsions:
REMARK  status: ('A' for Active; 'I' for Inactive)
REMARK    1  A    between atoms: C_1  and  C_2
REMARK    2  A    between atoms: C_2  and  N_3
REMARK    3  A    between atoms: C_2  and  C_17
REMARK    4  A    between atoms: C_4  and  C_6
REMARK    5  A    between atoms: N_12  and  C_13
REMARK    6  A    between atoms: C_20  and  O_21
REMARK    7  A    between atoms: O_21  and  C_22
REMARK    8  A    between atoms: C_22  and  C_23
REMARK                            x       y       z     vdW  Elec       q    Type
REMARK                         _______ _______ _______ _____ _____    ______ ____
ROOT
ATOM      1  C   UNL     1      47.165   4.426  14.967  0.00  0.00    +0.000 C 
ATOM      2  C   UNL     1      46.814   5.569  14.006  0.00  0.00    +0.000 C 
ENDROOT
BRANCH   2   3
ATOM      3  C   UNL     1      46.024   5.049  12.823  0.00  0.00    +0.000 A 
ATOM      4  C   UNL     1      45.866   5.819  11.665  0.00  0.00    +0.000 A 
ATOM      5  C   UNL     1      45.209   5.313  10.528  0.00  0.00    +0.000 A 
ATOM      6  C   UNL     1      44.687   4.010  10.565  0.00  0.00    +0.000 A 
ATOM      7  C   UNL     1      44.789   3.277  11.742  0.00  0.00    +0.000 A 
ATOM      8  C   UNL     1      45.443   3.766  12.851  0.00  0.00    +0.000 A 
BRANCH   6   9
ATOM      9  O   UNL     1      44.080   3.465   9.449  0.00  0.00    +0.000 OA
BRANCH   9  10
ATOM     10  C   UNL     1      44.554   2.116   9.149  0.00  0.00    +0.000 C 
BRANCH  10  11
ATOM     11  C   UNL     1      45.665   2.130   8.118  0.00  0.00    +0.000 A 
ATOM     12  C   UNL     1      45.836   3.258   7.329  0.00  0.00    +0.000 A 
ATOM     13  C   UNL     1      46.882   3.298   6.420  0.00  0.00    +0.000 A 
ATOM     14  C   UNL     1      47.748   2.207   6.327  0.00  0.00    +0.000 A 
ATOM     15  C   UNL     1      47.510   1.126   7.162  0.00  0.00    +0.000 A 
ATOM     16  N   UNL     1      46.501   1.062   8.061  0.00  0.00    +0.000 NA
ENDBRANCH  10  11
ENDBRANCH   9  10
ENDBRANCH   6   9
ENDBRANCH   2   3
BRANCH   2  17
ATOM     17  N   UNL     1      47.968   6.303  13.538  0.00  0.00    +0.000 N 
ATOM     18  C   UNL     1      48.069   7.662  13.574  0.00  0.00    +0.000 C 
ATOM     19  O   UNL     1      47.142   8.392  13.924  0.00  0.00    +0.000 OA
ATOM     20  H   UNL     1      48.790   5.760  13.273  0.00  0.00    +0.000 HD
BRANCH  18  21
ATOM     21  C   UNL     1      49.332   8.232  13.114  0.00  0.00    +0.000 A 
ATOM     22  C   UNL     1      49.431   8.987  11.955  0.00  0.00    +0.000 A 
ATOM     23  S   UNL     1      51.010   9.594  11.688  0.00  0.00    +0.000 S 
ATOM     24  C   UNL     1      51.593   8.866  13.110  0.00  0.00    +0.000 A 
ATOM     25  N   UNL     1      52.881   9.008  13.504  0.00  0.00    +0.000 NA
ATOM     26  C   UNL     1      53.178   8.402  14.606  0.00  0.00    +0.000 A 
ATOM     27  N   UNL     1      52.307   7.646  15.369  0.00  0.00    +0.000 N 
ATOM     28  C   UNL     1      52.776   6.973  16.562  0.00  0.00    +0.000 C 
ATOM     29  C   UNL     1      50.998   7.434  14.983  0.00  0.00    +0.000 A 
ATOM     30  O   UNL     1      50.245   6.662  15.591  0.00  0.00    +0.000 OA
ATOM     31  C   UNL     1      50.615   8.137  13.765  0.00  0.00    +0.000 A 
ENDBRANCH  18  21
ENDBRANCH   2  17
TORSDOF 6
ENDMDL
MODEL 4
REMARK VINA RESULT:    -7.379      3.144      4.725
REMARK INTER + INTRA:         -11.211
REMARK INTER:                 -10.011
REMARK INTRA:                  -1.200
REMARK UNBOUND:                -1.244
REMARK  Name = 
REMARK  8 active torsions:
REMARK  status: ('A' for Active; 'I' for Inactive)
REMARK    1  A    between atoms: C_1  and  C_2
REMARK    2  A    between atoms: C_2  and  N_3
REMARK    3  A    between atoms: C_2  and  C_17
REMARK    4  A    between atoms: C_4  and  C_6
REMARK    5  A    between atoms: N_12  and  C_13
REMARK    6  A    between atoms: C_20  and  O_21
REMARK    7  A    between atoms: O_21  and  C_22
REMARK    8  A    between atoms: C_22  and  C_23
REMARK                            x       y       z     vdW  Elec       q    Type
REMARK                         _______ _______ _______ _____ _____    ______ ____
ROOT
ATOM      1  C   UNL     1      47.451   4.563  15.374  0.00  0.00    +0.000 C 
ATOM      2  C   UNL     1      47.134   5.723  14.423  0.00  0.00    +0.000 C 
ENDROOT
BRANCH   2   3
ATOM      3  C   UNL     1      46.432   5.219  13.179  0.00  0.00    +0.000 A 
ATOM      4  C   UNL     1      45.904   3.924  13.122  0.00  0.00    +0.000 A 
ATOM      5  C   UNL     1      45.175   3.474  12.005  0.00  0.00    +0.000 A 
ATOM      6  C   UNL     1      44.988   4.343  10.918  0.00  0.00    +0.000 A 
ATOM      7  C   UNL     1      45.572   5.603  10.955  0.00  0.00    +0.000 A 
ATOM      8  C   UNL     1      46.275   6.050  12.052  0.00  0.00    +0.000 A 
BRANCH   6   9
ATOM      9  O   UNL     1      44.234   3.950   9.828  0.00  0.00    +0.000 OA
BRANCH   9  10
ATOM     10  C   UNL     1      44.438   2.548   9.474  0.00  0.00    +0.000 C 
BRANCH  10  11
ATOM     11  C   UNL     1      45.471   2.393   8.376  0.00  0.00    +0.000 A 
ATOM     12  C   UNL     1      45.712   3.459   7.523  0.00  0.00    +0.000 A 
ATOM     13  C   UNL     1      46.692   3.342   6.550  0.00  0.00    +0.000 A 
ATOM     14  C   UNL     1      47.425   2.157   6.458  0.00  0.00    +0.000 A 
ATOM     15  C   UNL     1      47.126   1.146   7.359  0.00  0.00    +0.000 A 
ATOM     16  N   UNL     1      46.180   1.236   8.321  0.00  0.00    +0.000 NA
ENDBRANCH  10  11
ENDBRANCH   9  10
ENDBRANCH   6   9
ENDBRANCH   2   3
BRANCH   2  17
ATOM     17  N   UNL     1      48.298   6.494  14.047  0.00  0.00    +0.000 N 
ATOM     18  C   UNL     1      48.951   7.342  14.891  0.00  0.00    +0.000 C 
ATOM     19  O   UNL     1      48.549   7.598  16.025  0.00  0.00    +0.000 OA
ATOM     20  H   UNL     1      48.711   6.301  13.134  0.00  0.00    +0.000 HD
BRANCH  18  21
ATOM     21  C   UNL     1      50.144   7.994  14.360  0.00  0.00    +0.000 A 
ATOM     22  C   UNL     1      51.419   7.714  14.831  0.00  0.00    +0.000 A 
ATOM     23  S   UNL     1      52.643   8.564  13.986  0.00  0.00    +0.000 S 
ATOM     24  C   UNL     1      51.502   9.320  12.976  0.00  0.00    +0.000 A 
ATOM     25  N   UNL     1      51.879  10.171  11.992  0.00  0.00    +0.000 NA
ATOM     26  C   UNL     1      50.903  10.665  11.304  0.00  0.00    +0.000 A 
ATOM     27  N   UNL     1      49.561  10.398  11.504  0.00  0.00    +0.000 N 
ATOM     28  C   UNL     1      48.556  11.055  10.694  0.00  0.00    +0.000 C 
ATOM     29  C   UNL     1      49.127   9.574  12.523  0.00  0.00    +0.000 A 
ATOM     30  O   UNL     1      47.927   9.423  12.788  0.00  0.00    +0.000 OA
ATOM     31  C   UNL     1      50.203   8.965  13.296  0.00  0.00    +0.000 A 
ENDBRANCH  18  21
ENDBRANCH   2  17
TORSDOF 6
ENDMDL
MODEL 5
REMARK VINA RESULT:    -6.869      4.582      9.336
REMARK INTER + INTRA:         -10.522
REMARK INTER:                  -9.996
REMARK INTRA:                  -0.527
REMARK UNBOUND:                -1.244
REMARK  Name = 
REMARK  8 active torsions:
REMARK  status: ('A' for Active; 'I' for Inactive)
REMARK    1  A    between atoms: C_1  and  C_2
REMARK    2  A    between atoms: C_2  and  N_3
REMARK    3  A    between atoms: C_2  and  C_17
REMARK    4  A    between atoms: C_4  and  C_6
REMARK    5  A    between atoms: N_12  and  C_13
REMARK    6  A    between atoms: C_20  and  O_21
REMARK    7  A    between atoms: O_21  and  C_22
REMARK    8  A    between atoms: C_22  and  C_23
REMARK                            x       y       z     vdW  Elec       q    Type
REMARK                         _______ _______ _______ _____ _____    ______ ____
ROOT
ATOM      1  C   UNL     1      47.117   5.131  18.504  0.00  0.00    +0.000 C 
ATOM      2  C   UNL     1      47.613   4.354  17.278  0.00  0.00    +0.000 C 
ENDROOT
BRANCH   2   3
ATOM      3  C   UNL     1      49.066   3.959  17.447  0.00  0.00    +0.000 A 
ATOM      4  C   UNL     1      49.467   2.623  17.345  0.00  0.00    +0.000 A 
ATOM      5  C   UNL     1      50.824   2.255  17.413  0.00  0.00    +0.000 A 
ATOM      6  C   UNL     1      51.793   3.253  17.604  0.00  0.00    +0.000 A 
ATOM      7  C   UNL     1      51.380   4.569  17.772  0.00  0.00    +0.000 A 
ATOM      8  C   UNL     1      50.053   4.933  17.693  0.00  0.00    +0.000 A 
BRANCH   6   9
ATOM      9  O   UNL     1      53.137   2.931  17.626  0.00  0.00    +0.000 OA
BRANCH   9  10
ATOM     10  C   UNL     1      53.490   2.043  18.731  0.00  0.00    +0.000 C 
BRANCH  10  11
ATOM     11  C   UNL     1      53.988   0.701  18.233  0.00  0.00    +0.000 A 
ATOM     12  C   UNL     1      54.238   0.537  16.879  0.00  0.00    +0.000 A 
ATOM     13  C   UNL     1      54.743  -0.671  16.424  0.00  0.00    +0.000 A 
ATOM     14  C   UNL     1      55.001  -1.692  17.340  0.00  0.00    +0.000 A 
ATOM     15  C   UNL     1      54.733  -1.438  18.677  0.00  0.00    +0.000 A 
ATOM     16  N   UNL     1      54.246  -0.268  19.149  0.00  0.00    +0.000 NA
ENDBRANCH  10  11
ENDBRANCH   9  10
ENDBRANCH   6   9
ENDBRANCH   2   3
BRANCH   2  17
ATOM     17  N   UNL     1      47.443   5.072  16.035  0.00  0.00    +0.000 N 
ATOM     18  C   UNL     1      47.336   4.467  14.818  0.00  0.00    +0.000 C 
ATOM     19  O   UNL     1      47.469   3.254  14.660  0.00  0.00    +0.000 OA
ATOM     20  H   UNL     1      47.284   6.078  16.095  0.00  0.00    +0.000 HD
BRANCH  18  21
ATOM     21  C   UNL     1      47.110   5.345  13.674  0.00  0.00    +0.000 A 
ATOM     22  C   UNL     1      47.780   6.550  13.514  0.00  0.00    +0.000 A 
ATOM     23  S   UNL     1      47.380   7.345  12.051  0.00  0.00    +0.000 S 
ATOM     24  C   UNL     1      46.310   6.103  11.600  0.00  0.00    +0.000 A 
ATOM     25  N   UNL     1      45.637   6.137  10.425  0.00  0.00    +0.000 NA
ATOM     26  C   UNL     1      44.864   5.124  10.217  0.00  0.00    +0.000 A 
ATOM     27  N   UNL     1      44.681   4.059  11.081  0.00  0.00    +0.000 N 
ATOM     28  C   UNL     1      43.745   3.004  10.754  0.00  0.00    +0.000 C 
ATOM     29  C   UNL     1      45.309   4.004  12.309  0.00  0.00    +0.000 A 
ATOM     30  O   UNL     1      45.062   3.120  13.141  0.00  0.00    +0.000 OA
ATOM     31  C   UNL     1      46.222   5.111  12.562  0.00  0.00    +0.000 A 
ENDBRANCH  18  21
ENDBRANCH   2  17
TORSDOF 6
ENDMDL
MODEL 6
REMARK VINA RESULT:    -6.715      2.332      3.041
REMARK INTER + INTRA:         -10.314
REMARK INTER:                  -9.023
REMARK INTRA:                  -1.292
REMARK UNBOUND:                -1.244
REMARK  Name = 
REMARK  8 active torsions:
REMARK  status: ('A' for Active; 'I' for Inactive)
REMARK    1  A    between atoms: C_1  and  C_2
REMARK    2  A    between atoms: C_2  and  N_3
REMARK    3  A    between atoms: C_2  and  C_17
REMARK    4  A    between atoms: C_4  and  C_6
REMARK    5  A    between atoms: N_12  and  C_13
REMARK    6  A    between atoms: C_20  and  O_21
REMARK    7  A    between atoms: O_21  and  C_22
REMARK    8  A    between atoms: C_22  and  C_23
REMARK                            x       y       z     vdW  Elec       q    Type
REMARK                         _______ _______ _______ _____ _____    ______ ____
ROOT
ATOM      1  C   UNL     1      48.774  10.311  14.242  0.00  0.00    +0.000 C 
ATOM      2  C   UNL     1      49.007   8.799  14.139  0.00  0.00    +0.000 C 
ENDROOT
BRANCH   2   3
ATOM      3  C   UNL     1      47.839   8.123  13.452  0.00  0.00    +0.000 A 
ATOM      4  C   UNL     1      46.598   8.760  13.342  0.00  0.00    +0.000 A 
ATOM      5  C   UNL     1      45.532   8.178  12.631  0.00  0.00    +0.000 A 
ATOM      6  C   UNL     1      45.717   6.921  12.032  0.00  0.00    +0.000 A 
ATOM      7  C   UNL     1      46.930   6.266  12.203  0.00  0.00    +0.000 A 
ATOM      8  C   UNL     1      47.979   6.839  12.887  0.00  0.00    +0.000 A 
BRANCH   6   9
ATOM      9  O   UNL     1      44.707   6.345  11.285  0.00  0.00    +0.000 OA
BRANCH   9  10
ATOM     10  C   UNL     1      44.592   4.905  11.502  0.00  0.00    +0.000 C 
BRANCH  10  11
ATOM     11  C   UNL     1      44.878   4.124  10.235  0.00  0.00    +0.000 A 
ATOM     12  C   UNL     1      45.477   4.772   9.166  0.00  0.00    +0.000 A 
ATOM     13  C   UNL     1      45.788   4.051   8.023  0.00  0.00    +0.000 A 
ATOM     14  C   UNL     1      45.503   2.686   7.979  0.00  0.00    +0.000 A 
ATOM     15  C   UNL     1      44.914   2.116   9.097  0.00  0.00    +0.000 A 
ATOM     16  N   UNL     1      44.605   2.794  10.226  0.00  0.00    +0.000 NA
ENDBRANCH  10  11
ENDBRANCH   9  10
ENDBRANCH   6   9
ENDBRANCH   2   3
BRANCH   2  17
ATOM     17  N   UNL     1      49.256   8.166  15.415  0.00  0.00    +0.000 N 
ATOM     18  C   UNL     1      50.445   7.599  15.762  0.00  0.00    +0.000 C 
ATOM     19  O   UNL     1      51.388   7.492  14.979  0.00  0.00    +0.000 OA
ATOM     20  H   UNL     1      48.531   8.255  16.128  0.00  0.00    +0.000 HD
BRANCH  18  21
ATOM     21  C   UNL     1      50.536   7.058  17.115  0.00  0.00    +0.000 A 
ATOM     22  C   UNL     1      51.372   7.601  18.081  0.00  0.00    +0.000 A 
ATOM     23  S   UNL     1      51.230   6.822  19.599  0.00  0.00    +0.000 S 
ATOM     24  C   UNL     1      50.053   5.748  19.004  0.00  0.00    +0.000 A 
ATOM     25  N   UNL     1      49.475   4.816  19.798  0.00  0.00    +0.000 NA
ATOM     26  C   UNL     1      48.596   4.075  19.209  0.00  0.00    +0.000 A 
ATOM     27  N   UNL     1      48.230   4.164  17.878  0.00  0.00    +0.000 N 
ATOM     28  C   UNL     1      47.264   3.239  17.322  0.00  0.00    +0.000 C 
ATOM     29  C   UNL     1      48.825   5.067  17.019  0.00  0.00    +0.000 A 
ATOM     30  O   UNL     1      48.594   5.074  15.802  0.00  0.00    +0.000 OA
ATOM     31  C   UNL     1      49.794   5.948  17.658  0.00  0.00    +0.000 A 
ENDBRANCH  18  21
ENDBRANCH   2  17
TORSDOF 6
ENDMDL
MODEL 7
REMARK VINA RESULT:    -6.660      3.012      4.011
REMARK INTER + INTRA:         -10.239
REMARK INTER:                  -9.582
REMARK INTRA:                  -0.657
REMARK UNBOUND:                -1.244
REMARK  Name = 
REMARK  8 active torsions:
REMARK  status: ('A' for Active; 'I' for Inactive)
REMARK    1  A    between atoms: C_1  and  C_2
REMARK    2  A    between atoms: C_2  and  N_3
REMARK    3  A    between atoms: C_2  and  C_17
REMARK    4  A    between atoms: C_4  and  C_6
REMARK    5  A    between atoms: N_12  and  C_13
REMARK    6  A    between atoms: C_20  and  O_21
REMARK    7  A    between atoms: O_21  and  C_22
REMARK    8  A    between atoms: C_22  and  C_23
REMARK                            x       y       z     vdW  Elec       q    Type
REMARK                         _______ _______ _______ _____ _____    ______ ____
ROOT
ATOM      1  C   UNL     1      47.417   4.549  14.968  0.00  0.00    +0.000 C 
ATOM      2  C   UNL     1      46.517   5.582  14.278  0.00  0.00    +0.000 C 
ENDROOT
BRANCH   2   3
ATOM      3  C   UNL     1      45.919   5.009  13.010  0.00  0.00    +0.000 A 
ATOM      4  C   UNL     1      45.734   3.631  12.857  0.00  0.00    +0.000 A 
ATOM      5  C   UNL     1      45.101   3.094  11.720  0.00  0.00    +0.000 A 
ATOM      6  C   UNL     1      44.660   3.965  10.710  0.00  0.00    +0.000 A 
ATOM      7  C   UNL     1      44.909   5.326  10.839  0.00  0.00    +0.000 A 
ATOM      8  C   UNL     1      45.517   5.854  11.957  0.00  0.00    +0.000 A 
BRANCH   6   9
ATOM      9  O   UNL     1      43.991   3.475   9.604  0.00  0.00    +0.000 OA
BRANCH   9  10
ATOM     10  C   UNL     1      44.556   3.950   8.344  0.00  0.00    +0.000 C 
BRANCH  10  11
ATOM     11  C   UNL     1      45.639   3.021   7.832  0.00  0.00    +0.000 A 
ATOM     12  C   UNL     1      46.602   3.523   6.969  0.00  0.00    +0.000 A 
ATOM     13  C   UNL     1      47.625   2.693   6.538  0.00  0.00    +0.000 A 
ATOM     14  C   UNL     1      47.671   1.374   6.991  0.00  0.00    +0.000 A 
ATOM     15  C   UNL     1      46.675   0.959   7.862  0.00  0.00    +0.000 A 
ATOM     16  N   UNL     1      45.669   1.748   8.302  0.00  0.00    +0.000 NA
ENDBRANCH  10  11
ENDBRANCH   9  10
ENDBRANCH   6   9
ENDBRANCH   2   3
BRANCH   2  17
ATOM     17  N   UNL     1      47.191   6.826  13.982  0.00  0.00    +0.000 N 
ATOM     18  C   UNL     1      48.345   6.910  13.260  0.00  0.00    +0.000 C 
ATOM     19  O   UNL     1      48.967   5.921  12.876  0.00  0.00    +0.000 OA
ATOM     20  H   UNL     1      46.710   7.689  14.234  0.00  0.00    +0.000 HD
BRANCH  18  21
ATOM     21  C   UNL     1      48.854   8.254  13.007  0.00  0.00    +0.000 A 
ATOM     22  C   UNL     1      48.907   8.805  11.734  0.00  0.00    +0.000 A 
ATOM     23  S   UNL     1      49.478  10.419  11.728  0.00  0.00    +0.000 S 
ATOM     24  C   UNL     1      49.666  10.420  13.419  0.00  0.00    +0.000 A 
ATOM     25  N   UNL     1      50.102  11.516  14.085  0.00  0.00    +0.000 NA
ATOM     26  C   UNL     1      50.190  11.369  15.365  0.00  0.00    +0.000 A 
ATOM     27  N   UNL     1      49.891  10.215  16.066  0.00  0.00    +0.000 N 
ATOM     28  C   UNL     1      50.079  10.161  17.501  0.00  0.00    +0.000 C 
ATOM     29  C   UNL     1      49.488   9.060  15.426  0.00  0.00    +0.000 A 
ATOM     30  O   UNL     1      49.334   7.988  16.028  0.00  0.00    +0.000 OA
ATOM     31  C   UNL     1      49.337   9.199  13.983  0.00  0.00    +0.000 A 
ENDBRANCH  18  21
ENDBRANCH   2  17
TORSDOF 6
ENDMDL
MODEL 8
REMARK VINA RESULT:    -6.517      2.869      9.082
REMARK INTER + INTRA:         -10.047
REMARK INTER:                  -8.905
REMARK INTRA:                  -1.142
REMARK UNBOUND:                -1.244
REMARK  Name = 
REMARK  8 active torsions:
REMARK  status: ('A' for Active; 'I' for Inactive)
REMARK    1  A    between atoms: C_1  and  C_2
REMARK    2  A    between atoms: C_2  and  N_3
REMARK    3  A    between atoms: C_2  and  C_17
REMARK    4  A    between atoms: C_4  and  C_6
REMARK    5  A    between atoms: N_12  and  C_13
REMARK    6  A    between atoms: C_20  and  O_21
REMARK    7  A    between atoms: O_21  and  C_22
REMARK    8  A    between atoms: C_22  and  C_23
REMARK                            x       y       z     vdW  Elec       q    Type
REMARK                         _______ _______ _______ _____ _____    ______ ____
ROOT
ATOM      1  C   UNL     1      48.800   8.085  11.343  0.00  0.00    +0.000 C 
ATOM      2  C   UNL     1      47.827   7.929  12.519  0.00  0.00    +0.000 C 
ENDROOT
BRANCH   2   3
ATOM      3  C   UNL     1      48.572   7.955  13.837  0.00  0.00    +0.000 A 
ATOM      4  C   UNL     1      47.978   8.476  14.992  0.00  0.00    +0.000 A 
ATOM      5  C   UNL     1      48.627   8.426  16.240  0.00  0.00    +0.000 A 
ATOM      6  C   UNL     1      49.906   7.854  16.322  0.00  0.00    +0.000 A 
ATOM      7  C   UNL     1      50.516   7.400  15.158  0.00  0.00    +0.000 A 
ATOM      8  C   UNL     1      49.877   7.436  13.938  0.00  0.00    +0.000 A 
BRANCH   6   9
ATOM      9  O   UNL     1      50.550   7.745  17.540  0.00  0.00    +0.000 OA
BRANCH   9  10
ATOM     10  C   UNL     1      51.268   6.482  17.690  0.00  0.00    +0.000 C 
BRANCH  10  11
ATOM     11  C   UNL     1      50.328   5.338  18.013  0.00  0.00    +0.000 A 
ATOM     12  C   UNL     1      49.560   5.404  19.167  0.00  0.00    +0.000 A 
ATOM     13  C   UNL     1      48.661   4.386  19.442  0.00  0.00    +0.000 A 
ATOM     14  C   UNL     1      48.537   3.323  18.546  0.00  0.00    +0.000 A 
ATOM     15  C   UNL     1      49.335   3.343  17.412  0.00  0.00    +0.000 A 
ATOM     16  N   UNL     1      50.217   4.325  17.116  0.00  0.00    +0.000 NA
ENDBRANCH  10  11
ENDBRANCH   9  10
ENDBRANCH   6   9
ENDBRANCH   2   3
BRANCH   2  17
ATOM     17  N   UNL     1      47.016   6.735  12.440  0.00  0.00    +0.000 N 
ATOM     18  C   UNL     1      45.784   6.691  11.857  0.00  0.00    +0.000 C 
ATOM     19  O   UNL     1      45.212   7.692  11.429  0.00  0.00    +0.000 OA
ATOM     20  H   UNL     1      47.445   5.859  12.738  0.00  0.00    +0.000 HD
BRANCH  18  21
ATOM     21  C   UNL     1      45.132   5.386  11.815  0.00  0.00    +0.000 A 
ATOM     22  C   UNL     1      44.467   4.848  12.908  0.00  0.00    +0.000 A 
ATOM     23  S   UNL     1      43.731   3.340  12.565  0.00  0.00    +0.000 S 
ATOM     24  C   UNL     1      44.281   3.372  10.955  0.00  0.00    +0.000 A 
ATOM     25  N   UNL     1      43.981   2.381  10.082  0.00  0.00    +0.000 NA
ATOM     26  C   UNL     1      44.464   2.544   8.895  0.00  0.00    +0.000 A 
ATOM     27  N   UNL     1      45.238   3.612   8.480  0.00  0.00    +0.000 N 
ATOM     28  C   UNL     1      45.763   3.655   7.131  0.00  0.00    +0.000 C 
ATOM     29  C   UNL     1      45.608   4.622   9.346  0.00  0.00    +0.000 A 
ATOM     30  O   UNL     1      46.398   5.518   9.020  0.00  0.00    +0.000 OA
ATOM     31  C   UNL     1      45.047   4.494  10.686  0.00  0.00    +0.000 A 
ENDBRANCH  18  21
ENDBRANCH   2  17
TORSDOF 6
ENDMDL
MODEL 9
REMARK VINA RESULT:    -6.464      3.489      4.886
REMARK INTER + INTRA:          -9.975
REMARK INTER:                  -8.748
REMARK INTRA:                  -1.227
REMARK UNBOUND:                -1.244
REMARK  Name = 
REMARK  8 active torsions:
REMARK  status: ('A' for Active; 'I' for Inactive)
REMARK    1  A    between atoms: C_1  and  C_2
REMARK    2  A    between atoms: C_2  and  N_3
REMARK    3  A    between atoms: C_2  and  C_17
REMARK    4  A    between atoms: C_4  and  C_6
REMARK    5  A    between atoms: N_12  and  C_13
REMARK    6  A    between atoms: C_20  and  O_21
REMARK    7  A    between atoms: O_21  and  C_22
REMARK    8  A    between atoms: C_22  and  C_23
REMARK                            x       y       z     vdW  Elec       q    Type
REMARK                         _______ _______ _______ _____ _____    ______ ____
ROOT
ATOM      1  C   UNL     1      47.403   3.339  16.967  0.00  0.00    +0.000 C 
ATOM      2  C   UNL     1      47.882   4.755  16.622  0.00  0.00    +0.000 C 
ENDROOT
BRANCH   2   3
ATOM      3  C   UNL     1      47.428   5.150  15.232  0.00  0.00    +0.000 A 
ATOM      4  C   UNL     1      47.997   6.243  14.570  0.00  0.00    +0.000 A 
ATOM      5  C   UNL     1      47.645   6.567  13.246  0.00  0.00    +0.000 A 
ATOM      6  C   UNL     1      46.688   5.781  12.583  0.00  0.00    +0.000 A 
ATOM      7  C   UNL     1      46.080   4.739  13.271  0.00  0.00    +0.000 A 
ATOM      8  C   UNL     1      46.432   4.412  14.562  0.00  0.00    +0.000 A 
BRANCH   6   9
ATOM      9  O   UNL     1      46.357   6.042  11.266  0.00  0.00    +0.000 OA
BRANCH   9  10
ATOM     10  C   UNL     1      45.089   5.436  10.871  0.00  0.00    +0.000 C 
BRANCH  10  11
ATOM     11  C   UNL     1      45.283   4.377   9.803  0.00  0.00    +0.000 A 
ATOM     12  C   UNL     1      45.883   4.733   8.605  0.00  0.00    +0.000 A 
ATOM     13  C   UNL     1      46.111   3.759   7.645  0.00  0.00    +0.000 A 
ATOM     14  C   UNL     1      45.743   2.440   7.910  0.00  0.00    +0.000 A 
ATOM     15  C   UNL     1      45.160   2.170   9.139  0.00  0.00    +0.000 A 
ATOM     16  N   UNL     1      44.930   3.099  10.095  0.00  0.00    +0.000 NA
ENDBRANCH  10  11
ENDBRANCH   9  10
ENDBRANCH   6   9
ENDBRANCH   2   3
BRANCH   2  17
ATOM     17  N   UNL     1      49.314   4.921  16.733  0.00  0.00    +0.000 N 
ATOM     18  C   UNL     1      49.940   5.374  17.856  0.00  0.00    +0.000 C 
ATOM     19  O   UNL     1      49.330   5.771  18.848  0.00  0.00    +0.000 OA
ATOM     20  H   UNL     1      49.885   4.572  15.964  0.00  0.00    +0.000 HD
BRANCH  18  21
ATOM     21  C   UNL     1      51.398   5.423  17.811  0.00  0.00    +0.000 A 
ATOM     22  C   UNL     1      52.105   6.617  17.825  0.00  0.00    +0.000 A 
ATOM     23  S   UNL     1      53.802   6.387  17.838  0.00  0.00    +0.000 S 
ATOM     24  C   UNL     1      53.631   4.694  17.828  0.00  0.00    +0.000 A 
ATOM     25  N   UNL     1      54.706   3.872  17.858  0.00  0.00    +0.000 NA
ATOM     26  C   UNL     1      54.422   2.611  17.851  0.00  0.00    +0.000 A 
ATOM     27  N   UNL     1      53.148   2.074  17.808  0.00  0.00    +0.000 N 
ATOM     28  C   UNL     1      52.962   0.639  17.753  0.00  0.00    +0.000 C 
ATOM     29  C   UNL     1      52.024   2.872  17.729  0.00  0.00    +0.000 A 
ATOM     30  O   UNL     1      50.889   2.404  17.568  0.00  0.00    +0.000 OA
ATOM     31  C   UNL     1      52.304   4.302  17.777  0.00  0.00    +0.000 A 
ENDBRANCH  18  21
ENDBRANCH   2  17
TORSDOF 6
ENDMDL
