MODEL 1
REMARK VINA RESULT:    -6.644      0.000      0.000
REMARK INTER + INTRA:         -11.935
REMARK INTER:                 -10.333
REMARK INTRA:                  -1.602
REMARK UNBOUND:                -1.602
REMARK  Name = 
REMARK  10 active torsions:
REMARK  status: ('A' for Active; 'I' for Inactive)
REMARK    1  A    between atoms: N_1  and  C_2
REMARK    2  A    between atoms: C_2  and  C_3
REMARK    3  A    between atoms: C_3  and  N_4
REMARK    4  A    between atoms: N_4  and  C_5
REMARK    5  A    between atoms: C_5  and  C_6
REMARK    6  A    between atoms: C_9  and  C_10
REMARK    7  A    between atoms: C_10  and  N_11
REMARK    8  A    between atoms: N_11  and  C_12
REMARK    9  A    between atoms: C_12  and  C_13
REMARK   10  A    between atoms: C_20  and  C_22
REMARK                            x       y       z     vdW  Elec       q    Type
REMARK                         _______ _______ _______ _____ _____    ______ ____
ROOT
ATOM      1  N   UNL     1      45.815   7.104  12.192  0.00  0.00    +0.000 N 
ATOM      2  C   UNL     1      44.617   6.566  11.655  0.00  0.00    +0.000 C 
ATOM      3  O   UNL     1      43.688   7.323  11.366  0.00  0.00    +0.000 OA
ENDROOT
BRANCH   2   4
ATOM      4  C   UNL     1      44.419   5.106  11.475  0.00  0.00    +0.000 A 
ATOM      5  C   UNL     1      43.772   4.248  12.346  0.00  0.00    +0.000 A 
ATOM      6  S   UNL     1      43.523   2.667  11.765  0.00  0.00    +0.000 S 
ATOM      7  C   UNL     1      44.304   3.042  10.317  0.00  0.00    +0.000 A 
ATOM      8  N   UNL     1      44.428   2.105   9.342  0.00  0.00    +0.000 NA
ATOM      9  C   UNL     1      45.024   2.528   8.283  0.00  0.00    +0.000 A 
ATOM     10  N   UNL     1      45.536   3.783   8.114  0.00  0.00    +0.000 N 
ATOM     11  C   UNL     1      45.543   4.732   9.119  0.00  0.00    +0.000 A 
ATOM     12  O   UNL     1      46.223   5.746   9.017  0.00  0.00    +0.000 OA
ATOM     13  C   UNL     1      44.775   4.347  10.291  0.00  0.00    +0.000 A 
ATOM     14  H   UNL     1      46.070   4.017   7.289  0.00  0.00    +0.000 HD
ENDBRANCH   2   4
BRANCH   1  15
ATOM     15  C   UNL     1      45.901   8.584  12.183  0.00  0.00    +0.000 C 
BRANCH  15  16
ATOM     16  C   UNL     1      47.279   9.292  12.210  0.00  0.00    +0.000 C 
BRANCH  16  17
ATOM     17  N   UNL     1      47.262  10.719  12.550  0.00  0.00    +0.000 NA
ATOM     18  H   UNL     1      47.865  11.222  11.899  0.00  0.00    +0.000 HD
ATOM     19  H   UNL     1      47.654  10.864  13.479  0.00  0.00    +0.000 HD
ENDBRANCH  16  17
ENDBRANCH  15  16
ENDBRANCH   1  15
BRANCH   1  20
ATOM     20  C   UNL     1      47.059   6.347  12.321  0.00  0.00    +0.000 C 
BRANCH  20  21
ATOM     21  C   UNL     1      47.362   5.886  13.735  0.00  0.00    +0.000 A 
ATOM     22  C   UNL     1      46.795   4.734  14.299  0.00  0.00    +0.000 A 
ATOM     23  C   UNL     1      47.151   4.297  15.575  0.00  0.00    +0.000 A 
ATOM     24  C   UNL     1      48.012   5.058  16.369  0.00  0.00    +0.000 A 
ATOM     25  C   UNL     1      48.565   6.224  15.825  0.00  0.00    +0.000 A 
ATOM     26  C   UNL     1      48.271   6.611  14.516  0.00  0.00    +0.000 A 
BRANCH  24  27
ATOM     27  C   UNL     1      48.211   4.728  17.829  0.00  0.00    +0.000 C 
BRANCH  27  28
ATOM     28  N   UNL     1      49.513   5.163  18.337  0.00  0.00    +0.000 NA
ATOM     29  H   UNL     1      49.366   5.768  19.144  0.00  0.00    +0.000 HD
BRANCH  28  30
ATOM     30  C   UNL     1      50.337   4.013  18.701  0.00  0.00    +0.000 C 
BRANCH  30  31
ATOM     31  C   UNL     1      51.113   3.475  17.487  0.00  0.00    +0.000 C 
ATOM     32  C   UNL     1      50.612   2.126  16.984  0.00  0.00    +0.000 C 
ATOM     33  C   UNL     1      51.401   1.134  17.811  0.00  0.00    +0.000 C 
ATOM     34  N   UNL     1      52.740   1.723  17.907  0.00  0.00    +0.000 NA
ATOM     35  C   UNL     1      52.568   3.184  17.873  0.00  0.00    +0.000 C 
ATOM     36  H   UNL     1      53.273   1.444  17.082  0.00  0.00    +0.000 HD
ENDBRANCH  30  31
ENDBRANCH  28  30
ENDBRANCH  27  28
ENDBRANCH  24  27
ENDBRANCH  20  21
ENDBRANCH   1  20
TORSDOF 10
ENDMDL
MODEL 2
REMARK VINA RESULT:    -6.587      1.836      2.962
REMARK INTER + INTRA:         -11.846
REMARK INTER:                 -10.102
REMARK INTRA:                  -1.744
REMARK UNBOUND:                -1.602
REMARK  Name = 
REMARK  10 active torsions:
REMARK  status: ('A' for Active; 'I' for Inactive)
REMARK    1  A    between atoms: N_1  and  C_2
REMARK    2  A    between atoms: C_2  and  C_3
REMARK    3  A    between atoms: C_3  and  N_4
REMARK    4  A    between atoms: N_4  and  C_5
REMARK    5  A    between atoms: C_5  and  C_6
REMARK    6  A    between atoms: C_9  and  C_10
REMARK    7  A    between atoms: C_10  and  N_11
REMARK    8  A    between atoms: N_11  and  C_12
REMARK    9  A    between atoms: C_12  and  C_13
REMARK   10  A    between atoms: C_20  and  C_22
REMARK                            x       y       z     vdW  Elec       q    Type
REMARK                         _______ _______ _______ _____ _____    ______ ____
ROOT
ATOM      1  N   UNL     1      45.990   7.153  12.159  0.00  0.00    +0.000 N 
ATOM      2  C   UNL     1      44.746   6.671  11.676  0.00  0.00    +0.000 C 
ATOM      3  O   UNL     1      43.848   7.471  11.407  0.00  0.00    +0.000 OA
ENDROOT
BRANCH   2   4
ATOM      4  C   UNL     1      44.467   5.221  11.531  0.00  0.00    +0.000 A 
ATOM      5  C   UNL     1      43.820   4.409  12.445  0.00  0.00    +0.000 A 
ATOM      6  S   UNL     1      43.464   2.835  11.904  0.00  0.00    +0.000 S 
ATOM      7  C   UNL     1      44.191   3.148  10.414  0.00  0.00    +0.000 A 
ATOM      8  N   UNL     1      44.220   2.193   9.450  0.00  0.00    +0.000 NA
ATOM      9  C   UNL     1      44.783   2.569   8.357  0.00  0.00    +0.000 A 
ATOM     10  N   UNL     1      45.349   3.793   8.142  0.00  0.00    +0.000 N 
ATOM     11  C   UNL     1      45.453   4.756   9.129  0.00  0.00    +0.000 A 
ATOM     12  O   UNL     1      46.177   5.732   8.977  0.00  0.00    +0.000 OA
ATOM     13  C   UNL     1      44.726   4.427  10.343  0.00  0.00    +0.000 A 
ATOM     14  H   UNL     1      45.853   3.988   7.288  0.00  0.00    +0.000 HD
ENDBRANCH   2   4
BRANCH   1  15
ATOM     15  C   UNL     1      46.152   8.627  12.120  0.00  0.00    +0.000 C 
BRANCH  15  16
ATOM     16  C   UNL     1      47.563   9.265  12.190  0.00  0.00    +0.000 C 
BRANCH  16  17
ATOM     17  N   UNL     1      47.825  10.116  13.357  0.00  0.00    +0.000 NA
ATOM     18  H   UNL     1      47.131   9.913  14.077  0.00  0.00    +0.000 HD
ATOM     19  H   UNL     1      47.708  11.097  13.110  0.00  0.00    +0.000 HD
ENDBRANCH  16  17
ENDBRANCH  15  16
ENDBRANCH   1  15
BRANCH   1  20
ATOM     20  C   UNL     1      47.196   6.335  12.258  0.00  0.00    +0.000 C 
BRANCH  20  21
ATOM     21  C   UNL     1      47.492   5.829  13.659  0.00  0.00    +0.000 A 
ATOM     22  C   UNL     1      48.283   6.539  14.574  0.00  0.00    +0.000 A 
ATOM     23  C   UNL     1      48.473   6.082  15.878  0.00  0.00    +0.000 A 
ATOM     24  C   UNL     1      47.960   4.847  16.278  0.00  0.00    +0.000 A 
ATOM     25  C   UNL     1      47.190   4.117  15.364  0.00  0.00    +0.000 A 
ATOM     26  C   UNL     1      46.931   4.619  14.087  0.00  0.00    +0.000 A 
BRANCH  24  27
ATOM     27  C   UNL     1      48.364   4.233  17.597  0.00  0.00    +0.000 C 
BRANCH  27  28
ATOM     28  N   UNL     1      47.508   4.657  18.706  0.00  0.00    +0.000 NA
ATOM     29  H   UNL     1      46.961   3.858  19.025  0.00  0.00    +0.000 HD
BRANCH  28  30
ATOM     30  C   UNL     1      48.310   5.198  19.801  0.00  0.00    +0.000 C 
BRANCH  30  31
ATOM     31  C   UNL     1      47.755   6.548  20.287  0.00  0.00    +0.000 C 
ATOM     32  C   UNL     1      47.436   7.524  19.159  0.00  0.00    +0.000 C 
ATOM     33  C   UNL     1      48.749   8.245  18.945  0.00  0.00    +0.000 C 
ATOM     34  N   UNL     1      49.287   8.431  20.296  0.00  0.00    +0.000 NA
ATOM     35  C   UNL     1      48.814   7.295  21.104  0.00  0.00    +0.000 C 
ATOM     36  H   UNL     1      48.891   9.287  20.685  0.00  0.00    +0.000 HD
ENDBRANCH  30  31
ENDBRANCH  28  30
ENDBRANCH  27  28
ENDBRANCH  24  27
ENDBRANCH  20  21
ENDBRANCH   1  20
TORSDOF 10
ENDMDL
MODEL 3
REMARK VINA RESULT:    -6.553      1.514      2.185
REMARK INTER + INTRA:         -11.794
REMARK INTER:                 -10.037
REMARK INTRA:                  -1.757
REMARK UNBOUND:                -1.602
REMARK  Name = 
REMARK  10 active torsions:
REMARK  status: ('A' for Active; 'I' for Inactive)
REMARK    1  A    between atoms: N_1  and  C_2
REMARK    2  A    between atoms: C_2  and  C_3
REMARK    3  A    between atoms: C_3  and  N_4
REMARK    4  A    between atoms: N_4  and  C_5
REMARK    5  A    between atoms: C_5  and  C_6
REMARK    6  A    between atoms: C_9  and  C_10
REMARK    7  A    between atoms: C_10  and  N_11
REMARK    8  A    between atoms: N_11  and  C_12
REMARK    9  A    between atoms: C_12  and  C_13
REMARK   10  A    between atoms: C_20  and  C_22
REMARK                            x       y       z     vdW  Elec       q    Type
REMARK                         _______ _______ _______ _____ _____    ______ ____
ROOT
ATOM      1  N   UNL     1      46.135   7.384  11.688  0.00  0.00    +0.000 N 
ATOM      2  C   UNL     1      44.851   6.835  11.439  0.00  0.00    +0.000 C 
ATOM      3  O   UNL     1      43.906   7.588  11.196  0.00  0.00    +0.000 OA
ENDROOT
BRANCH   2   4
ATOM      4  C   UNL     1      44.590   5.376  11.513  0.00  0.00    +0.000 A 
ATOM      5  C   UNL     1      44.060   4.686  12.588  0.00  0.00    +0.000 A 
ATOM      6  S   UNL     1      43.684   3.051  12.296  0.00  0.00    +0.000 S 
ATOM      7  C   UNL     1      44.246   3.173  10.709  0.00  0.00    +0.000 A 
ATOM      8  N   UNL     1      44.196   2.100   9.879  0.00  0.00    +0.000 NA
ATOM      9  C   UNL     1      44.635   2.334   8.693  0.00  0.00    +0.000 A 
ATOM     10  N   UNL     1      45.148   3.525   8.264  0.00  0.00    +0.000 N 
ATOM     11  C   UNL     1      45.333   4.609   9.102  0.00  0.00    +0.000 A 
ATOM     12  O   UNL     1      46.016   5.562   8.749  0.00  0.00    +0.000 OA
ATOM     13  C   UNL     1      44.742   4.436  10.418  0.00  0.00    +0.000 A 
ATOM     14  H   UNL     1      45.557   3.610   7.344  0.00  0.00    +0.000 HD
ENDBRANCH   2   4
BRANCH   1  15
ATOM     15  C   UNL     1      46.255   8.842  11.446  0.00  0.00    +0.000 C 
BRANCH  15  16
ATOM     16  C   UNL     1      45.800   9.858  12.524  0.00  0.00    +0.000 C 
BRANCH  16  17
ATOM     17  N   UNL     1      44.380  10.230  12.497  0.00  0.00    +0.000 NA
ATOM     18  H   UNL     1      44.288  11.203  12.792  0.00  0.00    +0.000 HD
ATOM     19  H   UNL     1      43.858   9.672  13.171  0.00  0.00    +0.000 HD
ENDBRANCH  16  17
ENDBRANCH  15  16
ENDBRANCH   1  15
BRANCH   1  20
ATOM     20  C   UNL     1      47.364   6.593  11.724  0.00  0.00    +0.000 C 
BRANCH  20  21
ATOM     21  C   UNL     1      48.121   6.681  13.038  0.00  0.00    +0.000 A 
ATOM     22  C   UNL     1      49.361   7.323  13.161  0.00  0.00    +0.000 A 
ATOM     23  C   UNL     1      49.995   7.450  14.397  0.00  0.00    +0.000 A 
ATOM     24  C   UNL     1      49.455   6.849  15.536  0.00  0.00    +0.000 A 
ATOM     25  C   UNL     1      48.228   6.182  15.419  0.00  0.00    +0.000 A 
ATOM     26  C   UNL     1      47.556   6.131  14.196  0.00  0.00    +0.000 A 
BRANCH  24  27
ATOM     27  C   UNL     1      50.247   6.769  16.818  0.00  0.00    +0.000 C 
BRANCH  27  28
ATOM     28  N   UNL     1      49.764   5.722  17.720  0.00  0.00    +0.000 NA
ATOM     29  H   UNL     1      48.753   5.637  17.614  0.00  0.00    +0.000 HD
BRANCH  28  30
ATOM     30  C   UNL     1      50.418   4.448  17.432  0.00  0.00    +0.000 C 
BRANCH  30  31
ATOM     31  C   UNL     1      49.586   3.262  17.948  0.00  0.00    +0.000 C 
ATOM     32  C   UNL     1      48.959   2.422  16.840  0.00  0.00    +0.000 C 
ATOM     33  C   UNL     1      47.640   3.117  16.584  0.00  0.00    +0.000 C 
ATOM     34  N   UNL     1      47.171   3.513  17.916  0.00  0.00    +0.000 NA
ATOM     35  C   UNL     1      48.370   3.767  18.732  0.00  0.00    +0.000 C 
ATOM     36  H   UNL     1      46.666   2.726  18.325  0.00  0.00    +0.000 HD
ENDBRANCH  30  31
ENDBRANCH  28  30
ENDBRANCH  27  28
ENDBRANCH  24  27
ENDBRANCH  20  21
ENDBRANCH   1  20
TORSDOF 10
ENDMDL
MODEL 4
REMARK VINA RESULT:    -6.409      3.689      8.304
REMARK INTER + INTRA:         -11.569
REMARK INTER:                  -9.998
REMARK INTRA:                  -1.572
REMARK UNBOUND:                -1.602
REMARK  Name = 
REMARK  10 active torsions:
REMARK  status: ('A' for Active; 'I' for Inactive)
REMARK    1  A    between atoms: N_1  and  C_2
REMARK    2  A    between atoms: C_2  and  C_3
REMARK    3  A    between atoms: C_3  and  N_4
REMARK    4  A    between atoms: N_4  and  C_5
REMARK    5  A    between atoms: C_5  and  C_6
REMARK    6  A    between atoms: C_9  and  C_10
REMARK    7  A    between atoms: C_10  and  N_11
REMARK    8  A    between atoms: N_11  and  C_12
REMARK    9  A    between atoms: C_12  and  C_13
REMARK   10  A    between atoms: C_20  and  C_22
REMARK                            x       y       z     vdW  Elec       q    Type
REMARK                         _______ _______ _______ _____ _____    ______ ____
ROOT
ATOM      1  N   UNL     1      48.730   7.278  13.679  0.00  0.00    +0.000 N 
ATOM      2  C   UNL     1      49.690   7.517  14.695  0.00  0.00    +0.000 C 
ATOM      3  O   UNL     1      50.891   7.443  14.426  0.00  0.00    +0.000 OA
ENDROOT
BRANCH   2   4
ATOM      4  C   UNL     1      49.298   7.807  16.097  0.00  0.00    +0.000 A 
ATOM      5  C   UNL     1      49.437   9.012  16.761  0.00  0.00    +0.000 A 
ATOM      6  S   UNL     1      48.704   9.093  18.295  0.00  0.00    +0.000 S 
ATOM      7  C   UNL     1      48.182   7.493  18.165  0.00  0.00    +0.000 A 
ATOM      8  N   UNL     1      47.461   6.923  19.163  0.00  0.00    +0.000 NA
ATOM      9  C   UNL     1      47.110   5.708  18.928  0.00  0.00    +0.000 A 
ATOM     10  N   UNL     1      47.434   4.997  17.808  0.00  0.00    +0.000 N 
ATOM     11  C   UNL     1      48.267   5.490  16.821  0.00  0.00    +0.000 A 
ATOM     12  O   UNL     1      48.732   4.746  15.966  0.00  0.00    +0.000 OA
ATOM     13  C   UNL     1      48.591   6.897  16.980  0.00  0.00    +0.000 A 
ATOM     14  H   UNL     1      47.199   4.017  17.731  0.00  0.00    +0.000 HD
ENDBRANCH   2   4
BRANCH   1  15
ATOM     15  C   UNL     1      49.284   7.134  12.311  0.00  0.00    +0.000 C 
BRANCH  15  16
ATOM     16  C   UNL     1      49.563   8.386  11.440  0.00  0.00    +0.000 C 
BRANCH  16  17
ATOM     17  N   UNL     1      50.903   8.970  11.566  0.00  0.00    +0.000 NA
ATOM     18  H   UNL     1      51.513   8.301  12.037  0.00  0.00    +0.000 HD
ATOM     19  H   UNL     1      50.872   9.799  12.158  0.00  0.00    +0.000 HD
ENDBRANCH  16  17
ENDBRANCH  15  16
ENDBRANCH   1  15
BRANCH   1  20
ATOM     20  C   UNL     1      47.310   7.593  13.812  0.00  0.00    +0.000 C 
BRANCH  20  21
ATOM     21  C   UNL     1      46.395   6.700  12.992  0.00  0.00    +0.000 A 
ATOM     22  C   UNL     1      46.315   5.313  13.181  0.00  0.00    +0.000 A 
ATOM     23  C   UNL     1      45.411   4.531  12.462  0.00  0.00    +0.000 A 
ATOM     24  C   UNL     1      44.627   5.100  11.456  0.00  0.00    +0.000 A 
ATOM     25  C   UNL     1      44.718   6.481  11.240  0.00  0.00    +0.000 A 
ATOM     26  C   UNL     1      45.563   7.273  12.022  0.00  0.00    +0.000 A 
BRANCH  24  27
ATOM     27  C   UNL     1      43.832   4.232  10.511  0.00  0.00    +0.000 C 
BRANCH  27  28
ATOM     28  N   UNL     1      44.227   4.406   9.112  0.00  0.00    +0.000 NA
ATOM     29  H   UNL     1      45.025   5.038   9.071  0.00  0.00    +0.000 HD
BRANCH  28  30
ATOM     30  C   UNL     1      44.559   3.119   8.504  0.00  0.00    +0.000 C 
BRANCH  30  31
ATOM     31  C   UNL     1      46.081   2.923   8.411  0.00  0.00    +0.000 C 
ATOM     32  C   UNL     1      46.749   3.780   7.339  0.00  0.00    +0.000 C 
ATOM     33  C   UNL     1      46.654   2.918   6.099  0.00  0.00    +0.000 C 
ATOM     34  N   UNL     1      46.907   1.556   6.581  0.00  0.00    +0.000 NA
ATOM     35  C   UNL     1      46.407   1.493   7.964  0.00  0.00    +0.000 C 
ATOM     36  H   UNL     1      47.916   1.404   6.599  0.00  0.00    +0.000 HD
ENDBRANCH  30  31
ENDBRANCH  28  30
ENDBRANCH  27  28
ENDBRANCH  24  27
ENDBRANCH  20  21
ENDBRANCH   1  20
TORSDOF 10
ENDMDL
MODEL 5
REMARK VINA RESULT:    -6.228      3.240      8.013
REMARK INTER + INTRA:         -11.289
REMARK INTER:                 -11.112
REMARK INTRA:                  -0.177
REMARK UNBOUND:                -1.602
REMARK  Name = 
REMARK  10 active torsions:
REMARK  status: ('A' for Active; 'I' for Inactive)
REMARK    1  A    between atoms: N_1  and  C_2
REMARK    2  A    between atoms: C_2  and  C_3
REMARK    3  A    between atoms: C_3  and  N_4
REMARK    4  A    between atoms: N_4  and  C_5
REMARK    5  A    between atoms: C_5  and  C_6
REMARK    6  A    between atoms: C_9  and  C_10
REMARK    7  A    between atoms: C_10  and  N_11
REMARK    8  A    between atoms: N_11  and  C_12
REMARK    9  A    between atoms: C_12  and  C_13
REMARK   10  A    between atoms: C_20  and  C_22
REMARK                            x       y       z     vdW  Elec       q    Type
REMARK                         _______ _______ _______ _____ _____    ______ ____
ROOT
ATOM      1  N   UNL     1      46.328   5.677  13.839  0.00  0.00    +0.000 N 
ATOM      2  C   UNL     1      47.314   6.645  13.522  0.00  0.00    +0.000 C 
ATOM      3  O   UNL     1      48.486   6.448  13.850  0.00  0.00    +0.000 OA
ENDROOT
BRANCH   2   4
ATOM      4  C   UNL     1      46.976   7.923  12.848  0.00  0.00    +0.000 A 
ATOM      5  C   UNL     1      45.756   8.575  12.878  0.00  0.00    +0.000 A 
ATOM      6  S   UNL     1      45.738  10.127  12.179  0.00  0.00    +0.000 S 
ATOM      7  C   UNL     1      47.369   9.996  11.767  0.00  0.00    +0.000 A 
ATOM      8  N   UNL     1      48.002  11.018  11.136  0.00  0.00    +0.000 NA
ATOM      9  C   UNL     1      49.246  10.797  10.900  0.00  0.00    +0.000 A 
ATOM     10  N   UNL     1      49.914   9.644  11.202  0.00  0.00    +0.000 N 
ATOM     11  C   UNL     1      49.288   8.531  11.732  0.00  0.00    +0.000 A 
ATOM     12  O   UNL     1      49.856   7.447  11.758  0.00  0.00    +0.000 OA
ATOM     13  C   UNL     1      47.911   8.771  12.130  0.00  0.00    +0.000 A 
ATOM     14  H   UNL     1      50.870   9.507  10.906  0.00  0.00    +0.000 HD
ENDBRANCH   2   4
BRANCH   1  15
ATOM     15  C   UNL     1      46.849   4.403  14.391  0.00  0.00    +0.000 C 
BRANCH  15  16
ATOM     16  C   UNL     1      47.108   4.253  15.912  0.00  0.00    +0.000 C 
BRANCH  16  17
ATOM     17  N   UNL     1      47.821   5.364  16.555  0.00  0.00    +0.000 NA
ATOM     18  H   UNL     1      47.368   6.241  16.295  0.00  0.00    +0.000 HD
ATOM     19  H   UNL     1      48.777   5.417  16.206  0.00  0.00    +0.000 HD
ENDBRANCH  16  17
ENDBRANCH  15  16
ENDBRANCH   1  15
BRANCH   1  20
ATOM     20  C   UNL     1      44.979   5.677  13.277  0.00  0.00    +0.000 C 
BRANCH  20  21
ATOM     21  C   UNL     1      44.789   4.717  12.115  0.00  0.00    +0.000 A 
ATOM     22  C   UNL     1      44.080   3.512  12.230  0.00  0.00    +0.000 A 
ATOM     23  C   UNL     1      43.861   2.689  11.126  0.00  0.00    +0.000 A 
ATOM     24  C   UNL     1      44.434   2.995   9.889  0.00  0.00    +0.000 A 
ATOM     25  C   UNL     1      45.166   4.183   9.769  0.00  0.00    +0.000 A 
ATOM     26  C   UNL     1      45.310   5.047  10.858  0.00  0.00    +0.000 A 
BRANCH  24  27
ATOM     27  C   UNL     1      44.411   1.995   8.759  0.00  0.00    +0.000 C 
BRANCH  27  28
ATOM     28  N   UNL     1      45.522   1.043   8.820  0.00  0.00    +0.000 NA
ATOM     29  H   UNL     1      45.151   0.118   9.035  0.00  0.00    +0.000 HD
BRANCH  28  30
ATOM     30  C   UNL     1      46.255   1.022   7.557  0.00  0.00    +0.000 C 
BRANCH  30  31
ATOM     31  C   UNL     1      47.097   2.296   7.378  0.00  0.00    +0.000 C 
ATOM     32  C   UNL     1      46.450   3.339   6.472  0.00  0.00    +0.000 C 
ATOM     33  C   UNL     1      46.926   2.941   5.092  0.00  0.00    +0.000 C 
ATOM     34  N   UNL     1      48.318   2.527   5.292  0.00  0.00    +0.000 NA
ATOM     35  C   UNL     1      48.407   1.971   6.652  0.00  0.00    +0.000 C 
ATOM     36  H   UNL     1      48.910   3.358   5.247  0.00  0.00    +0.000 HD
ENDBRANCH  30  31
ENDBRANCH  28  30
ENDBRANCH  27  28
ENDBRANCH  24  27
ENDBRANCH  20  21
ENDBRANCH   1  20
TORSDOF 10
ENDMDL
MODEL 6
REMARK VINA RESULT:    -6.183      3.062      8.189
REMARK INTER + INTRA:         -11.218
REMARK INTER:                  -9.882
REMARK INTRA:                  -1.336
REMARK UNBOUND:                -1.602
REMARK  Name = 
REMARK  10 active torsions:
REMARK  status: ('A' for Active; 'I' for Inactive)
REMARK    1  A    between atoms: N_1  and  C_2
REMARK    2  A    between atoms: C_2  and  C_3
REMARK    3  A    between atoms: C_3  and  N_4
REMARK    4  A    between atoms: N_4  and  C_5
REMARK    5  A    between atoms: C_5  and  C_6
REMARK    6  A    between atoms: C_9  and  C_10
REMARK    7  A    between atoms: C_10  and  N_11
REMARK    8  A    between atoms: N_11  and  C_12
REMARK    9  A    between atoms: C_12  and  C_13
REMARK   10  A    between atoms: C_20  and  C_22
REMARK                            x       y       z     vdW  Elec       q    Type
REMARK                         _______ _______ _______ _____ _____    ______ ____
ROOT
ATOM      1  N   UNL     1      48.103   7.710  13.906  0.00  0.00    +0.000 N 
ATOM      2  C   UNL     1      48.653   7.945  15.192  0.00  0.00    +0.000 C 
ATOM      3  O   UNL     1      48.177   8.831  15.904  0.00  0.00    +0.000 OA
ENDROOT
BRANCH   2   4
ATOM      4  C   UNL     1      49.826   7.188  15.698  0.00  0.00    +0.000 A 
ATOM      5  C   UNL     1      51.154   7.561  15.598  0.00  0.00    +0.000 A 
ATOM      6  S   UNL     1      52.254   6.587  16.457  0.00  0.00    +0.000 S 
ATOM      7  C   UNL     1      51.004   5.587  16.989  0.00  0.00    +0.000 A 
ATOM      8  N   UNL     1      51.267   4.531  17.801  0.00  0.00    +0.000 NA
ATOM      9  C   UNL     1      50.223   3.865  18.148  0.00  0.00    +0.000 A 
ATOM     10  N   UNL     1      48.947   4.130  17.740  0.00  0.00    +0.000 N 
ATOM     11  C   UNL     1      48.642   5.115  16.820  0.00  0.00    +0.000 A 
ATOM     12  O   UNL     1      47.537   5.161  16.295  0.00  0.00    +0.000 OA
ATOM     13  C   UNL     1      49.767   5.973  16.490  0.00  0.00    +0.000 A 
ATOM     14  H   UNL     1      48.188   3.509  17.983  0.00  0.00    +0.000 HD
ENDBRANCH   2   4
BRANCH   1  15
ATOM     15  C   UNL     1      46.857   8.457  13.608  0.00  0.00    +0.000 C 
BRANCH  15  16
ATOM     16  C   UNL     1      46.899   9.744  12.745  0.00  0.00    +0.000 C 
BRANCH  16  17
ATOM     17  N   UNL     1      48.017   9.847  11.799  0.00  0.00    +0.000 NA
ATOM     18  H   UNL     1      48.291   8.907  11.509  0.00  0.00    +0.000 HD
ATOM     19  H   UNL     1      48.829  10.257  12.257  0.00  0.00    +0.000 HD
ENDBRANCH  16  17
ENDBRANCH  15  16
ENDBRANCH   1  15
BRANCH   1  20
ATOM     20  C   UNL     1      48.405   6.533  13.095  0.00  0.00    +0.000 C 
BRANCH  20  21
ATOM     21  C   UNL     1      47.189   5.902  12.439  0.00  0.00    +0.000 A 
ATOM     22  C   UNL     1      46.455   4.864  13.031  0.00  0.00    +0.000 A 
ATOM     23  C   UNL     1      45.300   4.358  12.435  0.00  0.00    +0.000 A 
ATOM     24  C   UNL     1      44.898   4.806  11.175  0.00  0.00    +0.000 A 
ATOM     25  C   UNL     1      45.639   5.825  10.562  0.00  0.00    +0.000 A 
ATOM     26  C   UNL     1      46.746   6.388  11.202  0.00  0.00    +0.000 A 
BRANCH  24  27
ATOM     27  C   UNL     1      43.802   4.099  10.417  0.00  0.00    +0.000 C 
BRANCH  27  28
ATOM     28  N   UNL     1      44.227   2.805   9.879  0.00  0.00    +0.000 NA
ATOM     29  H   UNL     1      43.454   2.145   9.958  0.00  0.00    +0.000 HD
BRANCH  28  30
ATOM     30  C   UNL     1      44.647   2.937   8.486  0.00  0.00    +0.000 C 
BRANCH  30  31
ATOM     31  C   UNL     1      46.172   2.802   8.347  0.00  0.00    +0.000 C 
ATOM     32  C   UNL     1      46.768   3.664   7.238  0.00  0.00    +0.000 C 
ATOM     33  C   UNL     1      46.671   2.772   6.019  0.00  0.00    +0.000 C 
ATOM     34  N   UNL     1      46.997   1.433   6.520  0.00  0.00    +0.000 NA
ATOM     35  C   UNL     1      46.544   1.378   7.919  0.00  0.00    +0.000 C 
ATOM     36  H   UNL     1      48.012   1.324   6.507  0.00  0.00    +0.000 HD
ENDBRANCH  30  31
ENDBRANCH  28  30
ENDBRANCH  27  28
ENDBRANCH  24  27
ENDBRANCH  20  21
ENDBRANCH   1  20
TORSDOF 10
ENDMDL
MODEL 7
REMARK VINA RESULT:    -6.114      3.397      8.389
REMARK INTER + INTRA:         -11.111
REMARK INTER:                  -9.755
REMARK INTRA:                  -1.356
REMARK UNBOUND:                -1.602
REMARK  Name = 
REMARK  10 active torsions:
REMARK  status: ('A' for Active; 'I' for Inactive)
REMARK    1  A    between atoms: N_1  and  C_2
REMARK    2  A    between atoms: C_2  and  C_3
REMARK    3  A    between atoms: C_3  and  N_4
REMARK    4  A    between atoms: N_4  and  C_5
REMARK    5  A    between atoms: C_5  and  C_6
REMARK    6  A    between atoms: C_9  and  C_10
REMARK    7  A    between atoms: C_10  and  N_11
REMARK    8  A    between atoms: N_11  and  C_12
REMARK    9  A    between atoms: C_12  and  C_13
REMARK   10  A    between atoms: C_20  and  C_22
REMARK                            x       y       z     vdW  Elec       q    Type
REMARK                         _______ _______ _______ _____ _____    ______ ____
ROOT
ATOM      1  N   UNL     1      48.460   7.564  13.681  0.00  0.00    +0.000 N 
ATOM      2  C   UNL     1      49.212   6.999  14.743  0.00  0.00    +0.000 C 
ATOM      3  O   UNL     1      50.443   7.038  14.703  0.00  0.00    +0.000 OA
ENDROOT
BRANCH   2   4
ATOM      4  C   UNL     1      48.565   6.310  15.887  0.00  0.00    +0.000 A 
ATOM      5  C   UNL     1      47.953   5.070  15.865  0.00  0.00    +0.000 A 
ATOM      6  S   UNL     1      47.487   4.456  17.383  0.00  0.00    +0.000 S 
ATOM      7  C   UNL     1      48.055   5.845  18.155  0.00  0.00    +0.000 A 
ATOM      8  N   UNL     1      47.970   5.963  19.504  0.00  0.00    +0.000 NA
ATOM      9  C   UNL     1      48.458   7.060  19.965  0.00  0.00    +0.000 A 
ATOM     10  N   UNL     1      48.994   8.064  19.210  0.00  0.00    +0.000 N 
ATOM     11  C   UNL     1      48.993   8.045  17.827  0.00  0.00    +0.000 A 
ATOM     12  O   UNL     1      49.251   9.057  17.188  0.00  0.00    +0.000 OA
ATOM     13  C   UNL     1      48.564   6.777  17.262  0.00  0.00    +0.000 A 
ATOM     14  H   UNL     1      49.277   8.936  19.634  0.00  0.00    +0.000 HD
ENDBRANCH   2   4
BRANCH   1  15
ATOM     15  C   UNL     1      49.251   8.328  12.686  0.00  0.00    +0.000 C 
BRANCH  15  16
ATOM     16  C   UNL     1      48.580   9.429  11.826  0.00  0.00    +0.000 C 
BRANCH  16  17
ATOM     17  N   UNL     1      49.491  10.355  11.143  0.00  0.00    +0.000 NA
ATOM     18  H   UNL     1      49.972  10.921  11.843  0.00  0.00    +0.000 HD
ATOM     19  H   UNL     1      48.963  11.002  10.560  0.00  0.00    +0.000 HD
ENDBRANCH  16  17
ENDBRANCH  15  16
ENDBRANCH   1  15
BRANCH   1  20
ATOM     20  C   UNL     1      47.021   7.810  13.745  0.00  0.00    +0.000 C 
BRANCH  20  21
ATOM     21  C   UNL     1      46.202   6.952  12.797  0.00  0.00    +0.000 A 
ATOM     22  C   UNL     1      45.104   7.447  12.078  0.00  0.00    +0.000 A 
ATOM     23  C   UNL     1      44.418   6.652  11.159  0.00  0.00    +0.000 A 
ATOM     24  C   UNL     1      44.747   5.304  11.005  0.00  0.00    +0.000 A 
ATOM     25  C   UNL     1      45.825   4.792  11.738  0.00  0.00    +0.000 A 
ATOM     26  C   UNL     1      46.563   5.615  12.593  0.00  0.00    +0.000 A 
BRANCH  24  27
ATOM     27  C   UNL     1      43.862   4.379  10.204  0.00  0.00    +0.000 C 
BRANCH  27  28
ATOM     28  N   UNL     1      44.179   4.388   8.775  0.00  0.00    +0.000 NA
ATOM     29  H   UNL     1      44.931   5.055   8.608  0.00  0.00    +0.000 HD
BRANCH  28  30
ATOM     30  C   UNL     1      44.569   3.054   8.324  0.00  0.00    +0.000 C 
BRANCH  30  31
ATOM     31  C   UNL     1      46.098   2.899   8.294  0.00  0.00    +0.000 C 
ATOM     32  C   UNL     1      46.778   3.705   7.192  0.00  0.00    +0.000 C 
ATOM     33  C   UNL     1      46.752   2.762   6.009  0.00  0.00    +0.000 C 
ATOM     34  N   UNL     1      47.027   1.443   6.587  0.00  0.00    +0.000 NA
ATOM     35  C   UNL     1      46.481   1.454   7.954  0.00  0.00    +0.000 C 
ATOM     36  H   UNL     1      48.039   1.324   6.648  0.00  0.00    +0.000 HD
ENDBRANCH  30  31
ENDBRANCH  28  30
ENDBRANCH  27  28
ENDBRANCH  24  27
ENDBRANCH  20  21
ENDBRANCH   1  20
TORSDOF 10
ENDMDL
MODEL 8
REMARK VINA RESULT:    -6.081      3.146      8.011
REMARK INTER + INTRA:         -11.060
REMARK INTER:                  -9.738
REMARK INTRA:                  -1.322
REMARK UNBOUND:                -1.602
REMARK  Name = 
REMARK  10 active torsions:
REMARK  status: ('A' for Active; 'I' for Inactive)
REMARK    1  A    between atoms: N_1  and  C_2
REMARK    2  A    between atoms: C_2  and  C_3
REMARK    3  A    between atoms: C_3  and  N_4
REMARK    4  A    between atoms: N_4  and  C_5
REMARK    5  A    between atoms: C_5  and  C_6
REMARK    6  A    between atoms: C_9  and  C_10
REMARK    7  A    between atoms: C_10  and  N_11
REMARK    8  A    between atoms: N_11  and  C_12
REMARK    9  A    between atoms: C_12  and  C_13
REMARK   10  A    between atoms: C_20  and  C_22
REMARK                            x       y       z     vdW  Elec       q    Type
REMARK                         _______ _______ _______ _____ _____    ______ ____
ROOT
ATOM      1  N   UNL     1      48.891   7.472  15.878  0.00  0.00    +0.000 N 
ATOM      2  C   UNL     1      48.569   6.891  17.130  0.00  0.00    +0.000 C 
ATOM      3  O   UNL     1      48.323   7.620  18.093  0.00  0.00    +0.000 OA
ENDROOT
BRANCH   2   4
ATOM      4  C   UNL     1      48.568   5.422  17.340  0.00  0.00    +0.000 A 
ATOM      5  C   UNL     1      47.464   4.588  17.335  0.00  0.00    +0.000 A 
ATOM      6  S   UNL     1      47.804   2.922  17.397  0.00  0.00    +0.000 S 
ATOM      7  C   UNL     1      49.462   3.230  17.467  0.00  0.00    +0.000 A 
ATOM      8  N   UNL     1      50.349   2.204  17.523  0.00  0.00    +0.000 NA
ATOM      9  C   UNL     1      51.580   2.578  17.551  0.00  0.00    +0.000 A 
ATOM     10  N   UNL     1      52.010   3.874  17.560  0.00  0.00    +0.000 N 
ATOM     11  C   UNL     1      51.147   4.951  17.626  0.00  0.00    +0.000 A 
ATOM     12  O   UNL     1      51.566   6.074  17.881  0.00  0.00    +0.000 OA
ATOM     13  C   UNL     1      49.748   4.588  17.475  0.00  0.00    +0.000 A 
ATOM     14  H   UNL     1      52.990   4.092  17.673  0.00  0.00    +0.000 HD
ENDBRANCH   2   4
BRANCH   1  15
ATOM     15  C   UNL     1      48.718   8.943  15.803  0.00  0.00    +0.000 C 
BRANCH  15  16
ATOM     16  C   UNL     1      49.418   9.761  14.687  0.00  0.00    +0.000 C 
BRANCH  16  17
ATOM     17  N   UNL     1      48.665  10.907  14.163  0.00  0.00    +0.000 NA
ATOM     18  H   UNL     1      47.676  10.777  14.376  0.00  0.00    +0.000 HD
ATOM     19  H   UNL     1      48.741  10.943  13.147  0.00  0.00    +0.000 HD
ENDBRANCH  16  17
ENDBRANCH  15  16
ENDBRANCH   1  15
BRANCH   1  20
ATOM     20  C   UNL     1      48.940   6.724  14.623  0.00  0.00    +0.000 C 
BRANCH  20  21
ATOM     21  C   UNL     1      47.582   6.501  13.980  0.00  0.00    +0.000 A 
ATOM     22  C   UNL     1      46.893   7.506  13.286  0.00  0.00    +0.000 A 
ATOM     23  C   UNL     1      45.682   7.247  12.644  0.00  0.00    +0.000 A 
ATOM     24  C   UNL     1      45.071   5.997  12.761  0.00  0.00    +0.000 A 
ATOM     25  C   UNL     1      45.739   4.993  13.473  0.00  0.00    +0.000 A 
ATOM     26  C   UNL     1      46.992   5.232  14.043  0.00  0.00    +0.000 A 
BRANCH  24  27
ATOM     27  C   UNL     1      43.656   5.780  12.282  0.00  0.00    +0.000 C 
BRANCH  27  28
ATOM     28  N   UNL     1      43.532   5.854  10.825  0.00  0.00    +0.000 NA
ATOM     29  H   UNL     1      44.293   6.424  10.459  0.00  0.00    +0.000 HD
BRANCH  28  30
ATOM     30  C   UNL     1      43.562   4.518  10.235  0.00  0.00    +0.000 C 
BRANCH  30  31
ATOM     31  C   UNL     1      45.005   4.041  10.004  0.00  0.00    +0.000 C 
ATOM     32  C   UNL     1      45.631   4.573   8.718  0.00  0.00    +0.000 C 
ATOM     33  C   UNL     1      45.223   3.545   7.685  0.00  0.00    +0.000 C 
ATOM     34  N   UNL     1      45.333   2.261   8.386  0.00  0.00    +0.000 NA
ATOM     35  C   UNL     1      45.038   2.522   9.804  0.00  0.00    +0.000 C 
ATOM     36  H   UNL     1      46.298   1.937   8.314  0.00  0.00    +0.000 HD
ENDBRANCH  30  31
ENDBRANCH  28  30
ENDBRANCH  27  28
ENDBRANCH  24  27
ENDBRANCH  20  21
ENDBRANCH   1  20
TORSDOF 10
ENDMDL
MODEL 9
REMARK VINA RESULT:    -6.018      3.274      7.946
REMARK INTER + INTRA:         -10.962
REMARK INTER:                  -9.315
REMARK INTRA:                  -1.648
REMARK UNBOUND:                -1.602
REMARK  Name = 
REMARK  10 active torsions:
REMARK  status: ('A' for Active; 'I' for Inactive)
REMARK    1  A    between atoms: N_1  and  C_2
REMARK    2  A    between atoms: C_2  and  C_3
REMARK    3  A    between atoms: C_3  and  N_4
REMARK    4  A    between atoms: N_4  and  C_5
REMARK    5  A    between atoms: C_5  and  C_6
REMARK    6  A    between atoms: C_9  and  C_10
REMARK    7  A    between atoms: C_10  and  N_11
REMARK    8  A    between atoms: N_11  and  C_12
REMARK    9  A    between atoms: C_12  and  C_13
REMARK   10  A    between atoms: C_20  and  C_22
REMARK                            x       y       z     vdW  Elec       q    Type
REMARK                         _______ _______ _______ _____ _____    ______ ____
ROOT
ATOM      1  N   UNL     1      49.268   7.570  16.416  0.00  0.00    +0.000 N 
ATOM      2  C   UNL     1      48.662   6.833  17.465  0.00  0.00    +0.000 C 
ATOM      3  O   UNL     1      48.227   7.428  18.453  0.00  0.00    +0.000 OA
ENDROOT
BRANCH   2   4
ATOM      4  C   UNL     1      48.578   5.351  17.441  0.00  0.00    +0.000 A 
ATOM      5  C   UNL     1      47.442   4.593  17.218  0.00  0.00    +0.000 A 
ATOM      6  S   UNL     1      47.702   2.920  17.044  0.00  0.00    +0.000 S 
ATOM      7  C   UNL     1      49.360   3.118  17.291  0.00  0.00    +0.000 A 
ATOM      8  N   UNL     1      50.192   2.047  17.255  0.00  0.00    +0.000 NA
ATOM      9  C   UNL     1      51.431   2.341  17.437  0.00  0.00    +0.000 A 
ATOM     10  N   UNL     1      51.917   3.593  17.683  0.00  0.00    +0.000 N 
ATOM     11  C   UNL     1      51.099   4.696  17.850  0.00  0.00    +0.000 A 
ATOM     12  O   UNL     1      51.544   5.740  18.310  0.00  0.00    +0.000 OA
ATOM     13  C   UNL     1      49.704   4.441  17.535  0.00  0.00    +0.000 A 
ATOM     14  H   UNL     1      52.892   3.736  17.905  0.00  0.00    +0.000 HD
ENDBRANCH   2   4
BRANCH   1  15
ATOM     15  C   UNL     1      49.153   9.044  16.533  0.00  0.00    +0.000 C 
BRANCH  15  16
ATOM     16  C   UNL     1      50.294   9.873  17.176  0.00  0.00    +0.000 C 
BRANCH  16  17
ATOM     17  N   UNL     1      51.404   9.101  17.749  0.00  0.00    +0.000 NA
ATOM     18  H   UNL     1      51.126   8.755  18.668  0.00  0.00    +0.000 HD
ATOM     19  H   UNL     1      52.211   9.705  17.899  0.00  0.00    +0.000 HD
ENDBRANCH  16  17
ENDBRANCH  15  16
ENDBRANCH   1  15
BRANCH   1  20
ATOM     20  C   UNL     1      49.574   7.010  15.101  0.00  0.00    +0.000 C 
BRANCH  20  21
ATOM     21  C   UNL     1      48.441   7.127  14.097  0.00  0.00    +0.000 A 
ATOM     22  C   UNL     1      48.225   8.276  13.322  0.00  0.00    +0.000 A 
ATOM     23  C   UNL     1      47.221   8.324  12.356  0.00  0.00    +0.000 A 
ATOM     24  C   UNL     1      46.333   7.257  12.203  0.00  0.00    +0.000 A 
ATOM     25  C   UNL     1      46.523   6.114  12.990  0.00  0.00    +0.000 A 
ATOM     26  C   UNL     1      47.584   6.038  13.897  0.00  0.00    +0.000 A 
BRANCH  24  27
ATOM     27  C   UNL     1      45.101   7.393  11.341  0.00  0.00    +0.000 C 
BRANCH  27  28
ATOM     28  N   UNL     1      44.658   6.115  10.780  0.00  0.00    +0.000 NA
ATOM     29  H   UNL     1      45.356   5.403  10.989  0.00  0.00    +0.000 HD
BRANCH  28  30
ATOM     30  C   UNL     1      43.357   5.734  11.325  0.00  0.00    +0.000 C 
BRANCH  30  31
ATOM     31  C   UNL     1      43.145   4.213  11.254  0.00  0.00    +0.000 C 
ATOM     32  C   UNL     1      43.542   3.475  12.529  0.00  0.00    +0.000 C 
ATOM     33  C   UNL     1      45.012   3.187  12.316  0.00  0.00    +0.000 C 
ATOM     34  N   UNL     1      45.114   2.840  10.895  0.00  0.00    +0.000 NA
ATOM     35  C   UNL     1      44.064   3.596  10.194  0.00  0.00    +0.000 C 
ATOM     36  H   UNL     1      44.914   1.844  10.793  0.00  0.00    +0.000 HD
ENDBRANCH  30  31
ENDBRANCH  28  30
ENDBRANCH  27  28
ENDBRANCH  24  27
ENDBRANCH  20  21
ENDBRANCH   1  20
TORSDOF 10
ENDMDL
