MODEL 1
REMARK VINA RESULT:    -7.612      0.000      0.000
REMARK INTER + INTRA:         -10.596
REMARK INTER:                 -10.060
REMARK INTRA:                  -0.536
REMARK UNBOUND:                -0.536
REMARK  Name = 
REMARK  6 active torsions:
REMARK  status: ('A' for Active; 'I' for Inactive)
REMARK    1  A    between atoms: N_1  and  C_2
REMARK    2  A    between atoms: C_2  and  C_3
REMARK    3  A    between atoms: C_3  and  C_4
REMARK    4  A    between atoms: C_7  and  C_8
REMARK    5  A    between atoms: C_8  and  O_9
REMARK    6  A    between atoms: O_9  and  C_10
REMARK                            x       y       z     vdW  Elec       q    Type
REMARK                         _______ _______ _______ _____ _____    ______ ____
ROOT
ATOM      1  C   UNL     1      46.145   2.266   7.926  0.00  0.00    +0.000 A 
ATOM      2  C   UNL     1      46.199   3.654   7.734  0.00  0.00    +0.000 A 
ATOM      3  C   UNL     1      45.424   4.514   8.520  0.00  0.00    +0.000 A 
ATOM      4  C   UNL     1      44.564   4.001   9.500  0.00  0.00    +0.000 A 
ATOM      5  C   UNL     1      44.519   2.618   9.686  0.00  0.00    +0.000 A 
ATOM      6  F   UNL     1      43.706   2.094  10.616  0.00  0.00    +0.000 F 
ATOM      7  C   UNL     1      45.292   1.756   8.910  0.00  0.00    +0.000 A 
ENDROOT
BRANCH   1   8
ATOM      8  C   UNL     1      46.983   1.342   7.076  0.00  0.00    +0.000 C 
BRANCH   8   9
ATOM      9  C   UNL     1      48.291   1.998   6.625  0.00  0.00    +0.000 C 
BRANCH   9  10
ATOM     10  N   UNL     1      48.360   2.084   5.166  0.00  0.00    +0.000 NA
ATOM     11  H   UNL     1      47.928   2.955   4.859  0.00  0.00    +0.000 HD
ATOM     12  H   UNL     1      47.811   1.332   4.751  0.00  0.00    +0.000 HD
ENDBRANCH   9  10
ENDBRANCH   8   9
ENDBRANCH   1   8
BRANCH   4  13
ATOM     13  C   UNL     1      43.710   4.914  10.337  0.00  0.00    +0.000 C 
BRANCH  13  14
ATOM     14  O   UNL     1      44.520   5.960  10.873  0.00  0.00    +0.000 OA
BRANCH  14  15
ATOM     15  C   UNL     1      45.306   5.635  11.942  0.00  0.00    +0.000 A 
ATOM     16  C   UNL     1      46.607   6.074  12.179  0.00  0.00    +0.000 A 
ATOM     17  C   UNL     1      47.283   5.645  13.323  0.00  0.00    +0.000 A 
ATOM     18  C   UNL     1      46.627   4.786  14.188  0.00  0.00    +0.000 A 
ATOM     19 CL   UNL     1      47.393   4.219  15.612  0.00  0.00    +0.000 Cl
ATOM     20  N   UNL     1      45.375   4.331  14.001  0.00  0.00    +0.000 NA
ATOM     21  C   UNL     1      44.747   4.768  12.881  0.00  0.00    +0.000 A 
ENDBRANCH  14  15
ENDBRANCH  13  14
ENDBRANCH   4  13
TORSDOF 6
ENDMDL
MODEL 2
REMARK VINA RESULT:    -7.404      1.223      1.373
REMARK INTER + INTRA:         -10.320
REMARK INTER:                  -9.715
REMARK INTRA:                  -0.606
REMARK UNBOUND:                -0.536
REMARK  Name = 
REMARK  6 active torsions:
REMARK  status: ('A' for Active; 'I' for Inactive)
REMARK    1  A    between atoms: N_1  and  C_2
REMARK    2  A    between atoms: C_2  and  C_3
REMARK    3  A    between atoms: C_3  and  C_4
REMARK    4  A    between atoms: C_7  and  C_8
REMARK    5  A    between atoms: C_8  and  O_9
REMARK    6  A    between atoms: O_9  and  C_10
REMARK                            x       y       z     vdW  Elec       q    Type
REMARK                         _______ _______ _______ _____ _____    ______ ____
ROOT
ATOM      1  C   UNL     1      46.156   2.317   7.974  0.00  0.00    +0.000 A 
ATOM      2  C   UNL     1      46.245   3.707   7.810  0.00  0.00    +0.000 A 
ATOM      3  C   UNL     1      45.477   4.570   8.600  0.00  0.00    +0.000 A 
ATOM      4  C   UNL     1      44.589   4.058   9.555  0.00  0.00    +0.000 A 
ATOM      5  C   UNL     1      44.509   2.674   9.713  0.00  0.00    +0.000 A 
ATOM      6  F   UNL     1      43.667   2.152  10.619  0.00  0.00    +0.000 F 
ATOM      7  C   UNL     1      45.274   1.808   8.934  0.00  0.00    +0.000 A 
ENDROOT
BRANCH   1   8
ATOM      8  C   UNL     1      46.986   1.389   7.120  0.00  0.00    +0.000 C 
BRANCH   8   9
ATOM      9  C   UNL     1      48.286   2.047   6.647  0.00  0.00    +0.000 C 
BRANCH   9  10
ATOM     10  N   UNL     1      48.398   2.002   5.189  0.00  0.00    +0.000 NA
ATOM     11  H   UNL     1      48.447   1.029   4.885  0.00  0.00    +0.000 HD
ATOM     12  H   UNL     1      49.273   2.435   4.897  0.00  0.00    +0.000 HD
ENDBRANCH   9  10
ENDBRANCH   8   9
ENDBRANCH   1   8
BRANCH   4  13
ATOM     13  C   UNL     1      43.742   4.975  10.396  0.00  0.00    +0.000 C 
BRANCH  13  14
ATOM     14  O   UNL     1      44.143   4.868  11.762  0.00  0.00    +0.000 OA
BRANCH  14  15
ATOM     15  C   UNL     1      45.308   5.493  12.107  0.00  0.00    +0.000 A 
ATOM     16  C   UNL     1      45.739   6.743  11.667  0.00  0.00    +0.000 A 
ATOM     17  C   UNL     1      46.965   7.246  12.109  0.00  0.00    +0.000 A 
ATOM     18  C   UNL     1      47.715   6.471  12.977  0.00  0.00    +0.000 A 
ATOM     19 CL   UNL     1      49.228   7.023  13.562  0.00  0.00    +0.000 Cl
ATOM     20  N   UNL     1      47.344   5.259  13.425  0.00  0.00    +0.000 NA
ATOM     21  C   UNL     1      46.149   4.801  12.978  0.00  0.00    +0.000 A 
ENDBRANCH  14  15
ENDBRANCH  13  14
ENDBRANCH   4  13
TORSDOF 6
ENDMDL
MODEL 3
REMARK VINA RESULT:    -7.360      1.663      2.141
REMARK INTER + INTRA:         -10.262
REMARK INTER:                  -9.741
REMARK INTRA:                  -0.522
REMARK UNBOUND:                -0.536
REMARK  Name = 
REMARK  6 active torsions:
REMARK  status: ('A' for Active; 'I' for Inactive)
REMARK    1  A    between atoms: N_1  and  C_2
REMARK    2  A    between atoms: C_2  and  C_3
REMARK    3  A    between atoms: C_3  and  C_4
REMARK    4  A    between atoms: C_7  and  C_8
REMARK    5  A    between atoms: C_8  and  O_9
REMARK    6  A    between atoms: O_9  and  C_10
REMARK                            x       y       z     vdW  Elec       q    Type
REMARK                         _______ _______ _______ _____ _____    ______ ____
ROOT
ATOM      1  C   UNL     1      45.826   3.110   7.865  0.00  0.00    +0.000 A 
ATOM      2  C   UNL     1      45.525   1.925   8.552  0.00  0.00    +0.000 A 
ATOM      3  C   UNL     1      44.737   1.950   9.708  0.00  0.00    +0.000 A 
ATOM      4  C   UNL     1      44.252   3.164  10.212  0.00  0.00    +0.000 A 
ATOM      5  C   UNL     1      44.554   4.338   9.520  0.00  0.00    +0.000 A 
ATOM      6  F   UNL     1      44.105   5.517   9.976  0.00  0.00    +0.000 F 
ATOM      7  C   UNL     1      45.334   4.320   8.365  0.00  0.00    +0.000 A 
ENDROOT
BRANCH   1   8
ATOM      8  C   UNL     1      46.676   3.078   6.618  0.00  0.00    +0.000 C 
BRANCH   8   9
ATOM      9  C   UNL     1      47.901   2.171   6.776  0.00  0.00    +0.000 C 
BRANCH   9  10
ATOM     10  N   UNL     1      48.507   1.877   5.478  0.00  0.00    +0.000 NA
ATOM     11  H   UNL     1      47.924   1.205   4.978  0.00  0.00    +0.000 HD
ATOM     12  H   UNL     1      49.410   1.423   5.614  0.00  0.00    +0.000 HD
ENDBRANCH   9  10
ENDBRANCH   8   9
ENDBRANCH   1   8
BRANCH   4  13
ATOM     13  C   UNL     1      43.421   3.207  11.466  0.00  0.00    +0.000 C 
BRANCH  13  14
ATOM     14  O   UNL     1      44.256   2.949  12.595  0.00  0.00    +0.000 OA
BRANCH  14  15
ATOM     15  C   UNL     1      45.150   3.927  12.927  0.00  0.00    +0.000 A 
ATOM     16  C   UNL     1      44.901   5.297  12.977  0.00  0.00    +0.000 A 
ATOM     17  C   UNL     1      45.928   6.173  13.331  0.00  0.00    +0.000 A 
ATOM     18  C   UNL     1      47.173   5.641  13.621  0.00  0.00    +0.000 A 
ATOM     19 CL   UNL     1      48.480   6.655  14.065  0.00  0.00    +0.000 Cl
ATOM     20  N   UNL     1      47.463   4.328  13.582  0.00  0.00    +0.000 NA
ATOM     21  C   UNL     1      46.443   3.504  13.236  0.00  0.00    +0.000 A 
ENDBRANCH  14  15
ENDBRANCH  13  14
ENDBRANCH   4  13
TORSDOF 6
ENDMDL
MODEL 4
REMARK VINA RESULT:    -6.988      2.956      5.928
REMARK INTER + INTRA:          -9.771
REMARK INTER:                  -9.135
REMARK INTRA:                  -0.636
REMARK UNBOUND:                -0.536
REMARK  Name = 
REMARK  6 active torsions:
REMARK  status: ('A' for Active; 'I' for Inactive)
REMARK    1  A    between atoms: N_1  and  C_2
REMARK    2  A    between atoms: C_2  and  C_3
REMARK    3  A    between atoms: C_3  and  C_4
REMARK    4  A    between atoms: C_7  and  C_8
REMARK    5  A    between atoms: C_8  and  O_9
REMARK    6  A    between atoms: O_9  and  C_10
REMARK                            x       y       z     vdW  Elec       q    Type
REMARK                         _______ _______ _______ _____ _____    ______ ____
ROOT
ATOM      1  C   UNL     1      46.401   6.466  12.860  0.00  0.00    +0.000 A 
ATOM      2  C   UNL     1      45.247   6.824  12.149  0.00  0.00    +0.000 A 
ATOM      3  C   UNL     1      44.357   5.846  11.693  0.00  0.00    +0.000 A 
ATOM      4  C   UNL     1      44.614   4.488  11.922  0.00  0.00    +0.000 A 
ATOM      5  C   UNL     1      45.764   4.141  12.635  0.00  0.00    +0.000 A 
ATOM      6  F   UNL     1      46.039   2.849  12.871  0.00  0.00    +0.000 F 
ATOM      7  C   UNL     1      46.653   5.110  13.096  0.00  0.00    +0.000 A 
ENDROOT
BRANCH   1   8
ATOM      8  C   UNL     1      47.359   7.525  13.351  0.00  0.00    +0.000 C 
BRANCH   8   9
ATOM      9  C   UNL     1      48.776   7.320  12.806  0.00  0.00    +0.000 C 
BRANCH   9  10
ATOM     10  N   UNL     1      49.688   6.887  13.863  0.00  0.00    +0.000 NA
ATOM     11  H   UNL     1      49.215   6.951  14.764  0.00  0.00    +0.000 HD
ATOM     12  H   UNL     1      50.483   7.523  13.915  0.00  0.00    +0.000 HD
ENDBRANCH   9  10
ENDBRANCH   8   9
ENDBRANCH   1   8
BRANCH   4  13
ATOM     13  C   UNL     1      43.675   3.425  11.419  0.00  0.00    +0.000 C 
BRANCH  13  14
ATOM     14  O   UNL     1      43.469   3.601  10.018  0.00  0.00    +0.000 OA
BRANCH  14  15
ATOM     15  C   UNL     1      44.516   3.278   9.202  0.00  0.00    +0.000 A 
ATOM     16  C   UNL     1      45.185   4.136   8.332  0.00  0.00    +0.000 A 
ATOM     17  C   UNL     1      46.240   3.650   7.557  0.00  0.00    +0.000 A 
ATOM     18  C   UNL     1      46.584   2.315   7.683  0.00  0.00    +0.000 A 
ATOM     19 CL   UNL     1      47.868   1.649   6.766  0.00  0.00    +0.000 Cl
ATOM     20  N   UNL     1      45.966   1.447   8.505  0.00  0.00    +0.000 NA
ATOM     21  C   UNL     1      44.947   1.953   9.243  0.00  0.00    +0.000 A 
ENDBRANCH  14  15
ENDBRANCH  13  14
ENDBRANCH   4  13
TORSDOF 6
ENDMDL
MODEL 5
REMARK VINA RESULT:    -6.860      2.999      6.328
REMARK INTER + INTRA:          -9.602
REMARK INTER:                  -9.072
REMARK INTRA:                  -0.530
REMARK UNBOUND:                -0.536
REMARK  Name = 
REMARK  6 active torsions:
REMARK  status: ('A' for Active; 'I' for Inactive)
REMARK    1  A    between atoms: N_1  and  C_2
REMARK    2  A    between atoms: C_2  and  C_3
REMARK    3  A    between atoms: C_3  and  C_4
REMARK    4  A    between atoms: C_7  and  C_8
REMARK    5  A    between atoms: C_8  and  O_9
REMARK    6  A    between atoms: O_9  and  C_10
REMARK                            x       y       z     vdW  Elec       q    Type
REMARK                         _______ _______ _______ _____ _____    ______ ____
ROOT
ATOM      1  C   UNL     1      46.605   5.574  13.313  0.00  0.00    +0.000 A 
ATOM      2  C   UNL     1      46.763   4.180  13.330  0.00  0.00    +0.000 A 
ATOM      3  C   UNL     1      45.855   3.350  12.663  0.00  0.00    +0.000 A 
ATOM      4  C   UNL     1      44.758   3.897  11.984  0.00  0.00    +0.000 A 
ATOM      5  C   UNL     1      44.610   5.285  11.970  0.00  0.00    +0.000 A 
ATOM      6  F   UNL     1      43.570   5.840  11.330  0.00  0.00    +0.000 F 
ATOM      7  C   UNL     1      45.513   6.118  12.628  0.00  0.00    +0.000 A 
ENDROOT
BRANCH   1   8
ATOM      8  C   UNL     1      47.587   6.466  14.033  0.00  0.00    +0.000 C 
BRANCH   8   9
ATOM      9  C   UNL     1      47.623   7.879  13.445  0.00  0.00    +0.000 C 
BRANCH   9  10
ATOM     10  N   UNL     1      47.047   8.850  14.374  0.00  0.00    +0.000 NA
ATOM     11  H   UNL     1      46.963   9.754  13.909  0.00  0.00    +0.000 HD
ATOM     12  H   UNL     1      47.681   8.994  15.160  0.00  0.00    +0.000 HD
ENDBRANCH   9  10
ENDBRANCH   8   9
ENDBRANCH   1   8
BRANCH   4  13
ATOM     13  C   UNL     1      43.763   3.014  11.281  0.00  0.00    +0.000 C 
BRANCH  13  14
ATOM     14  O   UNL     1      43.650   3.421   9.917  0.00  0.00    +0.000 OA
BRANCH  14  15
ATOM     15  C   UNL     1      44.664   3.043   9.083  0.00  0.00    +0.000 A 
ATOM     16  C   UNL     1      45.209   1.766   8.964  0.00  0.00    +0.000 A 
ATOM     17  C   UNL     1      46.252   1.541   8.064  0.00  0.00    +0.000 A 
ATOM     18  C   UNL     1      46.713   2.610   7.315  0.00  0.00    +0.000 A 
ATOM     19 CL   UNL     1      47.988   2.409   6.189  0.00  0.00    +0.000 Cl
ATOM     20  N   UNL     1      46.223   3.860   7.397  0.00  0.00    +0.000 NA
ATOM     21  C   UNL     1      45.211   4.044   8.280  0.00  0.00    +0.000 A 
ENDBRANCH  14  15
ENDBRANCH  13  14
ENDBRANCH   4  13
TORSDOF 6
ENDMDL
MODEL 6
REMARK VINA RESULT:    -6.242      2.166      2.873
REMARK INTER + INTRA:          -8.785
REMARK INTER:                  -8.273
REMARK INTRA:                  -0.512
REMARK UNBOUND:                -0.536
REMARK  Name = 
REMARK  6 active torsions:
REMARK  status: ('A' for Active; 'I' for Inactive)
REMARK    1  A    between atoms: N_1  and  C_2
REMARK    2  A    between atoms: C_2  and  C_3
REMARK    3  A    between atoms: C_3  and  C_4
REMARK    4  A    between atoms: C_7  and  C_8
REMARK    5  A    between atoms: C_8  and  O_9
REMARK    6  A    between atoms: O_9  and  C_10
REMARK                            x       y       z     vdW  Elec       q    Type
REMARK                         _______ _______ _______ _____ _____    ______ ____
ROOT
ATOM      1  C   UNL     1      45.267   3.642   8.671  0.00  0.00    +0.000 A 
ATOM      2  C   UNL     1      44.806   2.695   9.596  0.00  0.00    +0.000 A 
ATOM      3  C   UNL     1      44.612   3.042  10.938  0.00  0.00    +0.000 A 
ATOM      4  C   UNL     1      44.895   4.339  11.385  0.00  0.00    +0.000 A 
ATOM      5  C   UNL     1      45.351   5.277  10.457  0.00  0.00    +0.000 A 
ATOM      6  F   UNL     1      45.632   6.527  10.853  0.00  0.00    +0.000 F 
ATOM      7  C   UNL     1      45.542   4.940   9.118  0.00  0.00    +0.000 A 
ENDROOT
BRANCH   1   8
ATOM      8  C   UNL     1      45.475   3.264   7.225  0.00  0.00    +0.000 C 
BRANCH   8   9
ATOM      9  C   UNL     1      46.890   3.591   6.739  0.00  0.00    +0.000 C 
BRANCH   9  10
ATOM     10  N   UNL     1      47.120   3.059   5.396  0.00  0.00    +0.000 NA
ATOM     11  H   UNL     1      47.755   3.679   4.892  0.00  0.00    +0.000 HD
ATOM     12  H   UNL     1      46.246   3.061   4.871  0.00  0.00    +0.000 HD
ENDBRANCH   9  10
ENDBRANCH   8   9
ENDBRANCH   1   8
BRANCH   4  13
ATOM     13  C   UNL     1      44.711   4.719  12.829  0.00  0.00    +0.000 C 
BRANCH  13  14
ATOM     14  O   UNL     1      45.692   4.051  13.623  0.00  0.00    +0.000 OA
BRANCH  14  15
ATOM     15  C   UNL     1      46.681   4.832  14.153  0.00  0.00    +0.000 A 
ATOM     16  C   UNL     1      47.214   5.989  13.591  0.00  0.00    +0.000 A 
ATOM     17  C   UNL     1      48.230   6.676  14.257  0.00  0.00    +0.000 A 
ATOM     18  C   UNL     1      48.676   6.173  15.467  0.00  0.00    +0.000 A 
ATOM     19 CL   UNL     1      49.919   6.963  16.343  0.00  0.00    +0.000 Cl
ATOM     20  N   UNL     1      48.196   5.058  16.048  0.00  0.00    +0.000 NA
ATOM     21  C   UNL     1      47.210   4.416  15.374  0.00  0.00    +0.000 A 
ENDBRANCH  14  15
ENDBRANCH  13  14
ENDBRANCH   4  13
TORSDOF 6
ENDMDL
MODEL 7
REMARK VINA RESULT:    -5.855      3.412      4.786
REMARK INTER + INTRA:          -8.274
REMARK INTER:                  -7.901
REMARK INTRA:                  -0.373
REMARK UNBOUND:                -0.536
REMARK  Name = 
REMARK  6 active torsions:
REMARK  status: ('A' for Active; 'I' for Inactive)
REMARK    1  A    between atoms: N_1  and  C_2
REMARK    2  A    between atoms: C_2  and  C_3
REMARK    3  A    between atoms: C_3  and  C_4
REMARK    4  A    between atoms: C_7  and  C_8
REMARK    5  A    between atoms: C_8  and  O_9
REMARK    6  A    between atoms: O_9  and  C_10
REMARK                            x       y       z     vdW  Elec       q    Type
REMARK                         _______ _______ _______ _____ _____    ______ ____
ROOT
ATOM      1  C   UNL     1      44.891   4.371  10.538  0.00  0.00    +0.000 A 
ATOM      2  C   UNL     1      45.025   3.304  11.437  0.00  0.00    +0.000 A 
ATOM      3  C   UNL     1      45.672   3.481  12.665  0.00  0.00    +0.000 A 
ATOM      4  C   UNL     1      46.217   4.725  13.009  0.00  0.00    +0.000 A 
ATOM      5  C   UNL     1      46.077   5.783  12.109  0.00  0.00    +0.000 A 
ATOM      6  F   UNL     1      46.588   6.987  12.407  0.00  0.00    +0.000 F 
ATOM      7  C   UNL     1      45.430   5.615  10.886  0.00  0.00    +0.000 A 
ENDROOT
BRANCH   1   8
ATOM      8  C   UNL     1      44.192   4.176   9.214  0.00  0.00    +0.000 C 
BRANCH   8   9
ATOM      9  C   UNL     1      45.060   3.414   8.209  0.00  0.00    +0.000 C 
BRANCH   9  10
ATOM     10  N   UNL     1      46.088   4.283   7.637  0.00  0.00    +0.000 NA
ATOM     11  H   UNL     1      46.058   4.216   6.619  0.00  0.00    +0.000 HD
ATOM     12  H   UNL     1      47.012   3.954   7.916  0.00  0.00    +0.000 HD
ENDBRANCH   9  10
ENDBRANCH   8   9
ENDBRANCH   1   8
BRANCH   4  13
ATOM     13  C   UNL     1      46.933   4.923  14.317  0.00  0.00    +0.000 C 
BRANCH  13  14
ATOM     14  O   UNL     1      47.101   3.659  14.960  0.00  0.00    +0.000 OA
BRANCH  14  15
ATOM     15  C   UNL     1      47.628   3.682  16.221  0.00  0.00    +0.000 A 
ATOM     16  C   UNL     1      48.533   2.769  16.758  0.00  0.00    +0.000 A 
ATOM     17  C   UNL     1      48.977   2.928  18.072  0.00  0.00    +0.000 A 
ATOM     18  C   UNL     1      48.493   4.001  18.802  0.00  0.00    +0.000 A 
ATOM     19 CL   UNL     1      48.994   4.260  20.419  0.00  0.00    +0.000 Cl
ATOM     20  N   UNL     1      47.616   4.905  18.329  0.00  0.00    +0.000 NA
ATOM     21  C   UNL     1      47.206   4.721  17.049  0.00  0.00    +0.000 A 
ENDBRANCH  14  15
ENDBRANCH  13  14
ENDBRANCH   4  13
TORSDOF 6
ENDMDL
MODEL 8
REMARK VINA RESULT:    -5.195      3.969      7.801
REMARK INTER + INTRA:          -7.401
REMARK INTER:                  -6.992
REMARK INTRA:                  -0.409
REMARK UNBOUND:                -0.536
REMARK  Name = 
REMARK  6 active torsions:
REMARK  status: ('A' for Active; 'I' for Inactive)
REMARK    1  A    between atoms: N_1  and  C_2
REMARK    2  A    between atoms: C_2  and  C_3
REMARK    3  A    between atoms: C_3  and  C_4
REMARK    4  A    between atoms: C_7  and  C_8
REMARK    5  A    between atoms: C_8  and  O_9
REMARK    6  A    between atoms: O_9  and  C_10
REMARK                            x       y       z     vdW  Elec       q    Type
REMARK                         _______ _______ _______ _____ _____    ______ ____
ROOT
ATOM      1  C   UNL     1      48.689   5.082  16.922  0.00  0.00    +0.000 A 
ATOM      2  C   UNL     1      47.689   4.346  16.271  0.00  0.00    +0.000 A 
ATOM      3  C   UNL     1      47.189   4.761  15.031  0.00  0.00    +0.000 A 
ATOM      4  C   UNL     1      47.664   5.934  14.430  0.00  0.00    +0.000 A 
ATOM      5  C   UNL     1      48.661   6.659  15.084  0.00  0.00    +0.000 A 
ATOM      6  F   UNL     1      49.137   7.787  14.535  0.00  0.00    +0.000 F 
ATOM      7  C   UNL     1      49.168   6.249  16.316  0.00  0.00    +0.000 A 
ENDROOT
BRANCH   1   8
ATOM      8  C   UNL     1      49.226   4.631  18.259  0.00  0.00    +0.000 C 
BRANCH   8   9
ATOM      9  C   UNL     1      48.399   3.490  18.859  0.00  0.00    +0.000 C 
BRANCH   9  10
ATOM     10  N   UNL     1      48.444   3.522  20.321  0.00  0.00    +0.000 NA
ATOM     11  H   UNL     1      49.094   4.248  20.623  0.00  0.00    +0.000 HD
ATOM     12  H   UNL     1      48.818   2.642  20.673  0.00  0.00    +0.000 HD
ENDBRANCH   9  10
ENDBRANCH   8   9
ENDBRANCH   1   8
BRANCH   4  13
ATOM     13  C   UNL     1      47.119   6.402  13.108  0.00  0.00    +0.000 C 
BRANCH  13  14
ATOM     14  O   UNL     1      45.772   5.950  12.964  0.00  0.00    +0.000 OA
BRANCH  14  15
ATOM     15  C   UNL     1      45.498   5.194  11.859  0.00  0.00    +0.000 A 
ATOM     16  C   UNL     1      45.600   5.600  10.531  0.00  0.00    +0.000 A 
ATOM     17  C   UNL     1      45.277   4.706   9.508  0.00  0.00    +0.000 A 
ATOM     18  C   UNL     1      44.860   3.434   9.859  0.00  0.00    +0.000 A 
ATOM     19 CL   UNL     1      44.449   2.283   8.659  0.00  0.00    +0.000 Cl
ATOM     20  N   UNL     1      44.741   2.997  11.126  0.00  0.00    +0.000 NA
ATOM     21  C   UNL     1      45.064   3.890  12.094  0.00  0.00    +0.000 A 
ENDBRANCH  14  15
ENDBRANCH  13  14
ENDBRANCH   4  13
TORSDOF 6
ENDMDL
MODEL 9
REMARK VINA RESULT:    -5.051      3.704      6.398
REMARK INTER + INTRA:          -7.211
REMARK INTER:                  -6.584
REMARK INTRA:                  -0.627
REMARK UNBOUND:                -0.536
REMARK  Name = 
REMARK  6 active torsions:
REMARK  status: ('A' for Active; 'I' for Inactive)
REMARK    1  A    between atoms: N_1  and  C_2
REMARK    2  A    between atoms: C_2  and  C_3
REMARK    3  A    between atoms: C_3  and  C_4
REMARK    4  A    between atoms: C_7  and  C_8
REMARK    5  A    between atoms: C_8  and  O_9
REMARK    6  A    between atoms: O_9  and  C_10
REMARK                            x       y       z     vdW  Elec       q    Type
REMARK                         _______ _______ _______ _____ _____    ______ ____
ROOT
ATOM      1  C   UNL     1      48.908   8.453  12.271  0.00  0.00    +0.000 A 
ATOM      2  C   UNL     1      47.712   9.175  12.150  0.00  0.00    +0.000 A 
ATOM      3  C   UNL     1      46.476   8.548  12.351  0.00  0.00    +0.000 A 
ATOM      4  C   UNL     1      46.414   7.182  12.657  0.00  0.00    +0.000 A 
ATOM      5  C   UNL     1      47.610   6.473  12.778  0.00  0.00    +0.000 A 
ATOM      6  F   UNL     1      47.584   5.164  13.070  0.00  0.00    +0.000 F 
ATOM      7  C   UNL     1      48.843   7.091  12.584  0.00  0.00    +0.000 A 
ENDROOT
BRANCH   1   8
ATOM      8  C   UNL     1      50.238   9.133  12.054  0.00  0.00    +0.000 C 
BRANCH   8   9
ATOM      9  C   UNL     1      51.355   8.499  12.889  0.00  0.00    +0.000 C 
BRANCH   9  10
ATOM     10  N   UNL     1      51.475   9.155  14.190  0.00  0.00    +0.000 NA
ATOM     11  H   UNL     1      52.367   8.901  14.615  0.00  0.00    +0.000 HD
ATOM     12  H   UNL     1      50.752   8.807  14.820  0.00  0.00    +0.000 HD
ENDBRANCH   9  10
ENDBRANCH   8   9
ENDBRANCH   1   8
BRANCH   4  13
ATOM     13  C   UNL     1      45.091   6.492  12.855  0.00  0.00    +0.000 C 
BRANCH  13  14
ATOM     14  O   UNL     1      44.385   6.458  11.614  0.00  0.00    +0.000 OA
BRANCH  14  15
ATOM     15  C   UNL     1      44.528   5.325  10.864  0.00  0.00    +0.000 A 
ATOM     16  C   UNL     1      45.398   5.144   9.791  0.00  0.00    +0.000 A 
ATOM     17  C   UNL     1      45.422   3.921   9.119  0.00  0.00    +0.000 A 
ATOM     18  C   UNL     1      44.567   2.921   9.548  0.00  0.00    +0.000 A 
ATOM     19 CL   UNL     1      44.542   1.393   8.773  0.00  0.00    +0.000 Cl
ATOM     20  N   UNL     1      43.707   3.048  10.575  0.00  0.00    +0.000 NA
ATOM     21  C   UNL     1      43.710   4.248  11.206  0.00  0.00    +0.000 A 
ENDBRANCH  14  15
ENDBRANCH  13  14
ENDBRANCH   4  13
TORSDOF 6
ENDMDL
