MODEL 1
REMARK VINA RESULT:    -9.083      0.000      0.000
REMARK INTER + INTRA:         -12.053
REMARK INTER:                 -11.472
REMARK INTRA:                  -0.581
REMARK UNBOUND:                -0.581
REMARK  Name = 
REMARK  5 active torsions:
REMARK  status: ('A' for Active; 'I' for Inactive)
REMARK    1  A    between atoms: C_2  and  C_4
REMARK    2  A    between atoms: N_8  and  C_9
REMARK    3  A    between atoms: C_9  and  C_10
REMARK    4  A    between atoms: C_10  and  O_11
REMARK    5  A    between atoms: C_10  and  C_12
REMARK                            x       y       z     vdW  Elec       q    Type
REMARK                         _______ _______ _______ _____ _____    ______ ____
ROOT
ATOM      1  C   UNL     1      46.271   2.131   7.924  0.00  0.00    +0.000 A 
ATOM      2  C   UNL     1      46.393   3.481   7.606  0.00  0.00    +0.000 A 
ATOM      3  C   UNL     1      45.544   4.403   8.223  0.00  0.00    +0.000 A 
ATOM      4  C   UNL     1      44.615   3.970   9.171  0.00  0.00    +0.000 A 
ATOM      5  N   UNL     1      43.728   4.885   9.745  0.00  0.00    +0.000 N 
ATOM      6  N   UNL     1      44.486   2.661   9.473  0.00  0.00    +0.000 NA
ATOM      7  C   UNL     1      45.293   1.770   8.835  0.00  0.00    +0.000 A 
ATOM      8  H   UNL     1      43.969   5.859   9.602  0.00  0.00    +0.000 HD
ENDROOT
BRANCH   1  10
ATOM      9  N   UNL     1      46.836  -0.220   7.706  0.00  0.00    +0.000 N 
ATOM     10  C   UNL     1      47.110   1.070   7.327  0.00  0.00    +0.000 C 
ATOM     11  O   UNL     1      47.980   1.319   6.511  0.00  0.00    +0.000 OA
ATOM     12  H   UNL     1      47.330  -0.948   7.200  0.00  0.00    +0.000 HD
ATOM     13  H   UNL     1      45.974  -0.474   8.166  0.00  0.00    +0.000 HD
ENDBRANCH   1  10
BRANCH   5  14
ATOM     14  C   UNL     1      43.298   4.545  11.109  0.00  0.00    +0.000 C 
BRANCH  14  15
ATOM     15  C   UNL     1      43.592   5.707  12.095  0.00  0.00    +0.000 C 
BRANCH  15  16
ATOM     16  C   UNL     1      45.038   5.765  12.544  0.00  0.00    +0.000 A 
ATOM     17  C   UNL     1      45.483   4.962  13.607  0.00  0.00    +0.000 A 
ATOM     18  C   UNL     1      46.816   5.008  14.020  0.00  0.00    +0.000 A 
ATOM     19 CL   UNL     1      47.334   4.025  15.334  0.00  0.00    +0.000 Cl
ATOM     20  C   UNL     1      47.730   5.845  13.386  0.00  0.00    +0.000 A 
ATOM     21  C   UNL     1      47.300   6.634  12.325  0.00  0.00    +0.000 A 
ATOM     22 CL   UNL     1      48.417   7.672  11.527  0.00  0.00    +0.000 Cl
ATOM     23  C   UNL     1      45.970   6.598  11.901  0.00  0.00    +0.000 A 
ENDBRANCH  15  16
BRANCH  15  24
ATOM     24  O   UNL     1      42.786   5.630  13.273  0.00  0.00    +0.000 OA
ATOM     25  H   UNL     1      43.334   5.236  13.974  0.00  0.00    +0.000 HD
ENDBRANCH  15  24
ENDBRANCH  14  15
ENDBRANCH   5  14
TORSDOF 5
ENDMDL
MODEL 2
REMARK VINA RESULT:    -9.052      0.035      1.965
REMARK INTER + INTRA:         -12.014
REMARK INTER:                 -11.434
REMARK INTRA:                  -0.579
REMARK UNBOUND:                -0.581
REMARK  Name = 
REMARK  5 active torsions:
REMARK  status: ('A' for Active; 'I' for Inactive)
REMARK    1  A    between atoms: C_2  and  C_4
REMARK    2  A    between atoms: N_8  and  C_9
REMARK    3  A    between atoms: C_9  and  C_10
REMARK    4  A    between atoms: C_10  and  O_11
REMARK    5  A    between atoms: C_10  and  C_12
REMARK                            x       y       z     vdW  Elec       q    Type
REMARK                         _______ _______ _______ _____ _____    ______ ____
ROOT
ATOM      1  C   UNL     1      46.283   2.132   7.912  0.00  0.00    +0.000 A 
ATOM      2  C   UNL     1      46.423   3.483   7.605  0.00  0.00    +0.000 A 
ATOM      3  C   UNL     1      45.578   4.410   8.222  0.00  0.00    +0.000 A 
ATOM      4  C   UNL     1      44.637   3.980   9.160  0.00  0.00    +0.000 A 
ATOM      5  N   UNL     1      43.755   4.900   9.733  0.00  0.00    +0.000 N 
ATOM      6  N   UNL     1      44.491   2.670   9.450  0.00  0.00    +0.000 NA
ATOM      7  C   UNL     1      45.293   1.776   8.812  0.00  0.00    +0.000 A 
ATOM      8  H   UNL     1      44.008   5.872   9.599  0.00  0.00    +0.000 HD
ENDROOT
BRANCH   1  10
ATOM      9  N   UNL     1      46.825  -0.223   7.682  0.00  0.00    +0.000 N 
ATOM     10  C   UNL     1      47.115   1.066   7.314  0.00  0.00    +0.000 C 
ATOM     11  O   UNL     1      47.994   1.312   6.506  0.00  0.00    +0.000 OA
ATOM     12  H   UNL     1      47.315  -0.953   7.174  0.00  0.00    +0.000 HD
ATOM     13  H   UNL     1      45.957  -0.472   8.134  0.00  0.00    +0.000 HD
ENDBRANCH   1  10
BRANCH   5  14
ATOM     14  C   UNL     1      43.310   4.554  11.091  0.00  0.00    +0.000 C 
BRANCH  14  15
ATOM     15  C   UNL     1      43.615   5.704  12.090  0.00  0.00    +0.000 C 
BRANCH  15  16
ATOM     16  C   UNL     1      45.058   5.734  12.551  0.00  0.00    +0.000 A 
ATOM     17  C   UNL     1      45.981   6.596  11.937  0.00  0.00    +0.000 A 
ATOM     18  C   UNL     1      47.310   6.631  12.364  0.00  0.00    +0.000 A 
ATOM     19 CL   UNL     1      48.426   7.686  11.586  0.00  0.00    +0.000 Cl
ATOM     20  C   UNL     1      47.745   5.819  13.407  0.00  0.00    +0.000 A 
ATOM     21  C   UNL     1      46.835   4.972  14.029  0.00  0.00    +0.000 A 
ATOM     22 CL   UNL     1      47.355   3.963  15.322  0.00  0.00    +0.000 Cl
ATOM     23  C   UNL     1      45.502   4.926  13.612  0.00  0.00    +0.000 A 
ENDBRANCH  15  16
BRANCH  15  24
ATOM     24  O   UNL     1      42.798   5.630  13.260  0.00  0.00    +0.000 OA
ATOM     25  H   UNL     1      42.127   6.331  13.189  0.00  0.00    +0.000 HD
ENDBRANCH  15  24
ENDBRANCH  14  15
ENDBRANCH   5  14
TORSDOF 5
ENDMDL
MODEL 3
REMARK VINA RESULT:    -6.923      4.201      5.657
REMARK INTER + INTRA:          -9.325
REMARK INTER:                  -9.004
REMARK INTRA:                  -0.321
REMARK UNBOUND:                -0.581
REMARK  Name = 
REMARK  5 active torsions:
REMARK  status: ('A' for Active; 'I' for Inactive)
REMARK    1  A    between atoms: C_2  and  C_4
REMARK    2  A    between atoms: N_8  and  C_9
REMARK    3  A    between atoms: C_9  and  C_10
REMARK    4  A    between atoms: C_10  and  O_11
REMARK    5  A    between atoms: C_10  and  C_12
REMARK                            x       y       z     vdW  Elec       q    Type
REMARK                         _______ _______ _______ _____ _____    ______ ____
ROOT
ATOM      1  C   UNL     1      45.543   4.853  10.768  0.00  0.00    +0.000 A 
ATOM      2  C   UNL     1      46.075   6.027  11.294  0.00  0.00    +0.000 A 
ATOM      3  C   UNL     1      46.443   6.062  12.642  0.00  0.00    +0.000 A 
ATOM      4  C   UNL     1      46.310   4.918  13.431  0.00  0.00    +0.000 A 
ATOM      5  N   UNL     1      46.624   4.970  14.792  0.00  0.00    +0.000 N 
ATOM      6  N   UNL     1      45.783   3.782  12.928  0.00  0.00    +0.000 NA
ATOM      7  C   UNL     1      45.393   3.775  11.624  0.00  0.00    +0.000 A 
ATOM      8  H   UNL     1      47.152   5.787  15.075  0.00  0.00    +0.000 HD
ENDROOT
BRANCH   1  10
ATOM      9  N   UNL     1      43.784   4.444   9.146  0.00  0.00    +0.000 N 
ATOM     10  C   UNL     1      45.114   4.707   9.361  0.00  0.00    +0.000 C 
ATOM     11  O   UNL     1      45.890   4.846   8.432  0.00  0.00    +0.000 OA
ATOM     12  H   UNL     1      43.475   4.470   8.179  0.00  0.00    +0.000 HD
ATOM     13  H   UNL     1      43.086   4.580   9.863  0.00  0.00    +0.000 HD
ENDBRANCH   1  10
BRANCH   5  14
ATOM     14  C   UNL     1      47.094   3.698  15.359  0.00  0.00    +0.000 C 
BRANCH  14  15
ATOM     15  C   UNL     1      47.367   3.831  16.882  0.00  0.00    +0.000 C 
BRANCH  15  16
ATOM     16  C   UNL     1      48.839   3.777  17.237  0.00  0.00    +0.000 A 
ATOM     17  C   UNL     1      49.541   2.563  17.165  0.00  0.00    +0.000 A 
ATOM     18  C   UNL     1      50.899   2.510  17.486  0.00  0.00    +0.000 A 
ATOM     19 CL   UNL     1      51.735   1.008  17.403  0.00  0.00    +0.000 Cl
ATOM     20  C   UNL     1      51.584   3.656  17.878  0.00  0.00    +0.000 A 
ATOM     21  C   UNL     1      50.899   4.865  17.941  0.00  0.00    +0.000 A 
ATOM     22 CL   UNL     1      51.730   6.293  18.421  0.00  0.00    +0.000 Cl
ATOM     23  C   UNL     1      49.540   4.932  17.622  0.00  0.00    +0.000 A 
ENDBRANCH  15  16
BRANCH  15  24
ATOM     24  O   UNL     1      46.712   2.810  17.636  0.00  0.00    +0.000 OA
ATOM     25  H   UNL     1      47.397   2.333  18.137  0.00  0.00    +0.000 HD
ENDBRANCH  15  24
ENDBRANCH  14  15
ENDBRANCH   5  14
TORSDOF 5
ENDMDL
MODEL 4
REMARK VINA RESULT:    -6.917      4.212      5.871
REMARK INTER + INTRA:          -9.318
REMARK INTER:                  -8.992
REMARK INTRA:                  -0.326
REMARK UNBOUND:                -0.581
REMARK  Name = 
REMARK  5 active torsions:
REMARK  status: ('A' for Active; 'I' for Inactive)
REMARK    1  A    between atoms: C_2  and  C_4
REMARK    2  A    between atoms: N_8  and  C_9
REMARK    3  A    between atoms: C_9  and  C_10
REMARK    4  A    between atoms: C_10  and  O_11
REMARK    5  A    between atoms: C_10  and  C_12
REMARK                            x       y       z     vdW  Elec       q    Type
REMARK                         _______ _______ _______ _____ _____    ______ ____
ROOT
ATOM      1  C   UNL     1      45.588   4.959  10.824  0.00  0.00    +0.000 A 
ATOM      2  C   UNL     1      46.255   6.077  11.317  0.00  0.00    +0.000 A 
ATOM      3  C   UNL     1      46.632   6.105  12.663  0.00  0.00    +0.000 A 
ATOM      4  C   UNL     1      46.373   5.004  13.481  0.00  0.00    +0.000 A 
ATOM      5  N   UNL     1      46.700   5.054  14.840  0.00  0.00    +0.000 N 
ATOM      6  N   UNL     1      45.716   3.924  13.010  0.00  0.00    +0.000 NA
ATOM      7  C   UNL     1      45.320   3.928  11.708  0.00  0.00    +0.000 A 
ATOM      8  H   UNL     1      47.320   5.812  15.100  0.00  0.00    +0.000 HD
ENDROOT
BRANCH   1  10
ATOM      9  N   UNL     1      43.824   4.480   9.228  0.00  0.00    +0.000 N 
ATOM     10  C   UNL     1      45.137   4.828   9.422  0.00  0.00    +0.000 C 
ATOM     11  O   UNL     1      45.879   5.051   8.482  0.00  0.00    +0.000 OA
ATOM     12  H   UNL     1      43.491   4.514   8.269  0.00  0.00    +0.000 HD
ATOM     13  H   UNL     1      43.135   4.544   9.963  0.00  0.00    +0.000 HD
ENDBRANCH   1  10
BRANCH   5  14
ATOM     14  C   UNL     1      47.023   3.752  15.438  0.00  0.00    +0.000 C 
BRANCH  14  15
ATOM     15  C   UNL     1      47.320   3.891  16.956  0.00  0.00    +0.000 C 
BRANCH  15  16
ATOM     16  C   UNL     1      48.797   3.829  17.290  0.00  0.00    +0.000 A 
ATOM     17  C   UNL     1      49.485   4.990  17.677  0.00  0.00    +0.000 A 
ATOM     18  C   UNL     1      50.845   4.936  17.991  0.00  0.00    +0.000 A 
ATOM     19 CL   UNL     1      51.670   6.375  18.450  0.00  0.00    +0.000 Cl
ATOM     20  C   UNL     1      51.543   3.734  17.932  0.00  0.00    +0.000 A 
ATOM     21  C   UNL     1      50.865   2.577  17.561  0.00  0.00    +0.000 A 
ATOM     22 CL   UNL     1      51.712   1.080  17.485  0.00  0.00    +0.000 Cl
ATOM     23  C   UNL     1      49.506   2.616  17.245  0.00  0.00    +0.000 A 
ENDBRANCH  15  16
BRANCH  15  24
ATOM     24  O   UNL     1      46.669   2.879  17.727  0.00  0.00    +0.000 OA
ATOM     25  H   UNL     1      45.746   2.833  17.424  0.00  0.00    +0.000 HD
ENDBRANCH  15  24
ENDBRANCH  14  15
ENDBRANCH   5  14
TORSDOF 5
ENDMDL
MODEL 5
REMARK VINA RESULT:    -6.801      4.287      5.749
REMARK INTER + INTRA:          -9.172
REMARK INTER:                  -8.864
REMARK INTRA:                  -0.308
REMARK UNBOUND:                -0.581
REMARK  Name = 
REMARK  5 active torsions:
REMARK  status: ('A' for Active; 'I' for Inactive)
REMARK    1  A    between atoms: C_2  and  C_4
REMARK    2  A    between atoms: N_8  and  C_9
REMARK    3  A    between atoms: C_9  and  C_10
REMARK    4  A    between atoms: C_10  and  O_11
REMARK    5  A    between atoms: C_10  and  C_12
REMARK                            x       y       z     vdW  Elec       q    Type
REMARK                         _______ _______ _______ _____ _____    ______ ____
ROOT
ATOM      1  C   UNL     1      44.918   4.006  11.024  0.00  0.00    +0.000 A 
ATOM      2  C   UNL     1      45.382   5.308  11.195  0.00  0.00    +0.000 A 
ATOM      3  C   UNL     1      45.958   5.668  12.417  0.00  0.00    +0.000 A 
ATOM      4  C   UNL     1      46.096   4.716  13.429  0.00  0.00    +0.000 A 
ATOM      5  N   UNL     1      46.620   5.092  14.670  0.00  0.00    +0.000 N 
ATOM      6  N   UNL     1      45.637   3.458  13.271  0.00  0.00    +0.000 NA
ATOM      7  C   UNL     1      45.042   3.133  12.091  0.00  0.00    +0.000 A 
ATOM      8  H   UNL     1      47.084   5.993  14.681  0.00  0.00    +0.000 HD
ENDROOT
BRANCH   1  10
ATOM      9  N   UNL     1      44.118   4.438   8.773  0.00  0.00    +0.000 N 
ATOM     10  C   UNL     1      44.285   3.520   9.779  0.00  0.00    +0.000 C 
ATOM     11  O   UNL     1      43.958   2.355   9.634  0.00  0.00    +0.000 OA
ATOM     12  H   UNL     1      43.800   4.070   7.882  0.00  0.00    +0.000 HD
ATOM     13  H   UNL     1      44.604   5.323   8.765  0.00  0.00    +0.000 HD
ENDBRANCH   1  10
BRANCH   5  14
ATOM     14  C   UNL     1      47.327   4.019  15.383  0.00  0.00    +0.000 C 
BRANCH  14  15
ATOM     15  C   UNL     1      47.226   4.207  16.921  0.00  0.00    +0.000 C 
BRANCH  15  16
ATOM     16  C   UNL     1      48.574   4.292  17.608  0.00  0.00    +0.000 A 
ATOM     17  C   UNL     1      49.563   3.329  17.350  0.00  0.00    +0.000 A 
ATOM     18  C   UNL     1      50.809   3.407  17.976  0.00  0.00    +0.000 A 
ATOM     19 CL   UNL     1      52.000   2.207  17.654  0.00  0.00    +0.000 Cl
ATOM     20  C   UNL     1      51.097   4.440  18.863  0.00  0.00    +0.000 A 
ATOM     21  C   UNL     1      50.127   5.405  19.115  0.00  0.00    +0.000 A 
ATOM     22 CL   UNL     1      50.467   6.691  20.206  0.00  0.00    +0.000 Cl
ATOM     23  C   UNL     1      48.877   5.339  18.495  0.00  0.00    +0.000 A 
ENDBRANCH  15  16
BRANCH  15  24
ATOM     24  O   UNL     1      46.499   3.148  17.546  0.00  0.00    +0.000 OA
ATOM     25  H   UNL     1      45.737   2.944  16.976  0.00  0.00    +0.000 HD
ENDBRANCH  15  24
ENDBRANCH  14  15
ENDBRANCH   5  14
TORSDOF 5
ENDMDL
MODEL 6
REMARK VINA RESULT:    -6.165      4.626      6.826
REMARK INTER + INTRA:          -8.368
REMARK INTER:                  -8.060
REMARK INTRA:                  -0.309
REMARK UNBOUND:                -0.581
REMARK  Name = 
REMARK  5 active torsions:
REMARK  status: ('A' for Active; 'I' for Inactive)
REMARK    1  A    between atoms: C_2  and  C_4
REMARK    2  A    between atoms: N_8  and  C_9
REMARK    3  A    between atoms: C_9  and  C_10
REMARK    4  A    between atoms: C_10  and  O_11
REMARK    5  A    between atoms: C_10  and  C_12
REMARK                            x       y       z     vdW  Elec       q    Type
REMARK                         _______ _______ _______ _____ _____    ______ ____
ROOT
ATOM      1  C   UNL     1      44.545   5.230  12.104  0.00  0.00    +0.000 A 
ATOM      2  C   UNL     1      44.765   3.874  11.883  0.00  0.00    +0.000 A 
ATOM      3  C   UNL     1      45.710   3.203  12.664  0.00  0.00    +0.000 A 
ATOM      4  C   UNL     1      46.389   3.885  13.675  0.00  0.00    +0.000 A 
ATOM      5  N   UNL     1      47.374   3.228  14.419  0.00  0.00    +0.000 N 
ATOM      6  N   UNL     1      46.187   5.202  13.885  0.00  0.00    +0.000 NA
ATOM      7  C   UNL     1      45.293   5.851  13.090  0.00  0.00    +0.000 A 
ATOM      8  H   UNL     1      47.373   2.219  14.326  0.00  0.00    +0.000 HD
ENDROOT
BRANCH   1  10
ATOM      9  N   UNL     1      43.723   7.402  11.396  0.00  0.00    +0.000 N 
ATOM     10  C   UNL     1      43.577   6.039  11.332  0.00  0.00    +0.000 C 
ATOM     11  O   UNL     1      42.712   5.526  10.643  0.00  0.00    +0.000 OA
ATOM     12  H   UNL     1      43.137   7.943  10.767  0.00  0.00    +0.000 HD
ATOM     13  H   UNL     1      44.568   7.837  11.737  0.00  0.00    +0.000 HD
ENDBRANCH   1  10
BRANCH   5  14
ATOM     14  C   UNL     1      47.538   3.727  15.791  0.00  0.00    +0.000 C 
BRANCH  14  15
ATOM     15  C   UNL     1      48.337   2.720  16.662  0.00  0.00    +0.000 C 
BRANCH  15  16
ATOM     16  C   UNL     1      49.368   3.380  17.554  0.00  0.00    +0.000 A 
ATOM     17  C   UNL     1      50.726   3.037  17.443  0.00  0.00    +0.000 A 
ATOM     18  C   UNL     1      51.680   3.648  18.260  0.00  0.00    +0.000 A 
ATOM     19 CL   UNL     1      53.335   3.200  18.115  0.00  0.00    +0.000 Cl
ATOM     20  C   UNL     1      51.308   4.610  19.193  0.00  0.00    +0.000 A 
ATOM     21  C   UNL     1      49.967   4.965  19.301  0.00  0.00    +0.000 A 
ATOM     22 CL   UNL     1      49.490   6.155  20.448  0.00  0.00    +0.000 Cl
ATOM     23  C   UNL     1      49.002   4.362  18.491  0.00  0.00    +0.000 A 
ENDBRANCH  15  16
BRANCH  15  24
ATOM     24  O   UNL     1      49.023   1.750  15.868  0.00  0.00    +0.000 OA
ATOM     25  H   UNL     1      48.681   0.874  16.121  0.00  0.00    +0.000 HD
ENDBRANCH  15  24
ENDBRANCH  14  15
ENDBRANCH   5  14
TORSDOF 5
ENDMDL
MODEL 7
REMARK VINA RESULT:    -6.143      5.911      8.082
REMARK INTER + INTRA:          -8.340
REMARK INTER:                  -7.972
REMARK INTRA:                  -0.368
REMARK UNBOUND:                -0.581
REMARK  Name = 
REMARK  5 active torsions:
REMARK  status: ('A' for Active; 'I' for Inactive)
REMARK    1  A    between atoms: C_2  and  C_4
REMARK    2  A    between atoms: N_8  and  C_9
REMARK    3  A    between atoms: C_9  and  C_10
REMARK    4  A    between atoms: C_10  and  O_11
REMARK    5  A    between atoms: C_10  and  C_12
REMARK                            x       y       z     vdW  Elec       q    Type
REMARK                         _______ _______ _______ _____ _____    ______ ____
ROOT
ATOM      1  C   UNL     1      51.497   3.098  17.666  0.00  0.00    +0.000 A 
ATOM      2  C   UNL     1      50.899   1.910  17.255  0.00  0.00    +0.000 A 
ATOM      3  C   UNL     1      49.573   1.934  16.815  0.00  0.00    +0.000 A 
ATOM      4  C   UNL     1      48.880   3.144  16.756  0.00  0.00    +0.000 A 
ATOM      5  N   UNL     1      47.536   3.159  16.369  0.00  0.00    +0.000 N 
ATOM      6  N   UNL     1      49.452   4.296  17.164  0.00  0.00    +0.000 NA
ATOM      7  C   UNL     1      50.731   4.251  17.628  0.00  0.00    +0.000 A 
ATOM      8  H   UNL     1      47.211   2.305  15.932  0.00  0.00    +0.000 HD
ENDROOT
BRANCH   1  10
ATOM      9  N   UNL     1      53.218   2.391  19.225  0.00  0.00    +0.000 N 
ATOM     10  C   UNL     1      52.889   3.188  18.157  0.00  0.00    +0.000 C 
ATOM     11  O   UNL     1      53.717   3.905  17.623  0.00  0.00    +0.000 OA
ATOM     12  H   UNL     1      54.202   2.365  19.475  0.00  0.00    +0.000 HD
ATOM     13  H   UNL     1      52.643   1.613  19.514  0.00  0.00    +0.000 HD
ENDBRANCH   1  10
BRANCH   5  14
ATOM     14  C   UNL     1      47.105   4.400  15.710  0.00  0.00    +0.000 C 
BRANCH  14  15
ATOM     15  C   UNL     1      47.147   4.256  14.164  0.00  0.00    +0.000 C 
BRANCH  15  16
ATOM     16  C   UNL     1      46.224   5.217  13.444  0.00  0.00    +0.000 A 
ATOM     17  C   UNL     1      46.649   6.522  13.150  0.00  0.00    +0.000 A 
ATOM     18  C   UNL     1      45.803   7.409  12.481  0.00  0.00    +0.000 A 
ATOM     19 CL   UNL     1      46.341   9.009  12.144  0.00  0.00    +0.000 Cl
ATOM     20  C   UNL     1      44.527   7.017  12.088  0.00  0.00    +0.000 A 
ATOM     21  C   UNL     1      44.102   5.722  12.364  0.00  0.00    +0.000 A 
ATOM     22 CL   UNL     1      42.529   5.219  11.883  0.00  0.00    +0.000 Cl
ATOM     23  C   UNL     1      44.938   4.824  13.032  0.00  0.00    +0.000 A 
ENDBRANCH  15  16
BRANCH  15  24
ATOM     24  O   UNL     1      46.801   2.936  13.738  0.00  0.00    +0.000 OA
ATOM     25  H   UNL     1      47.178   2.811  12.849  0.00  0.00    +0.000 HD
ENDBRANCH  15  24
ENDBRANCH  14  15
ENDBRANCH   5  14
TORSDOF 5
ENDMDL
