MODEL 1
REMARK VINA RESULT:    -7.681      0.000      0.000
REMARK INTER + INTRA:          -9.556
REMARK INTER:                  -9.477
REMARK INTRA:                  -0.078
REMARK UNBOUND:                -0.078
REMARK  Name = 
REMARK  6 active torsions:
REMARK  status: ('A' for Active; 'I' for Inactive)
REMARK    1  A    between atoms: C_1  and  N_2
REMARK    2  A    between atoms: C_3  and  C_5
REMARK    3  A    between atoms: C_8  and  N_9
REMARK    4  A    between atoms: N_9  and  C_10
REMARK    5  A    between atoms: C_10  and  C_11
REMARK    6  A    between atoms: C_10  and  C_12
REMARK                            x       y       z     vdW  Elec       q    Type
REMARK                         _______ _______ _______ _____ _____    ______ ____
ROOT
ATOM      1  C   UNL     1      47.145   5.974  13.282  0.00  0.00    +0.000 A 
ATOM      2  C   UNL     1      47.225   6.555  12.012  0.00  0.00    +0.000 A 
ATOM      3  C   UNL     1      46.230   6.299  11.060  0.00  0.00    +0.000 A 
ATOM      4  C   UNL     1      45.161   5.431  11.329  0.00  0.00    +0.000 A 
ATOM      5  C   UNL     1      45.101   4.852  12.600  0.00  0.00    +0.000 A 
ATOM      6  C   UNL     1      46.078   5.122  13.569  0.00  0.00    +0.000 A 
ENDROOT
BRANCH   1   9
ATOM      7  C   UNL     1      48.791   5.934  16.693  0.00  0.00    +0.000 C 
ATOM      8  N   UNL     1      47.863   5.778  15.605  0.00  0.00    +0.000 N 
ATOM      9  C   UNL     1      48.176   6.211  14.329  0.00  0.00    +0.000 C 
ATOM     10  O   UNL     1      49.245   6.739  14.044  0.00  0.00    +0.000 OA
ATOM     11  H   UNL     1      47.048   5.196  15.748  0.00  0.00    +0.000 HD
ENDBRANCH   1   9
BRANCH   4  12
ATOM     12  N   UNL     1      44.254   5.165  10.315  0.00  0.00    +0.000 N 
ATOM     13  H   UNL     1      43.514   5.851  10.216  0.00  0.00    +0.000 HD
BRANCH  12  14
ATOM     14  C   UNL     1      43.954   3.819   9.829  0.00  0.00    +0.000 C 
ATOM     15  C   UNL     1      43.728   2.916  11.046  0.00  0.00    +0.000 C 
BRANCH  14  16
ATOM     16  C   UNL     1      45.053   3.305   8.913  0.00  0.00    +0.000 A 
ATOM     17  C   UNL     1      45.388   1.940   8.932  0.00  0.00    +0.000 A 
ATOM     18  C   UNL     1      46.350   1.419   8.061  0.00  0.00    +0.000 A 
ATOM     19  C   UNL     1      47.008   2.259   7.168  0.00  0.00    +0.000 A 
ATOM     20  C   UNL     1      46.723   3.623   7.164  0.00  0.00    +0.000 A 
ATOM     21  C   UNL     1      45.754   4.143   8.030  0.00  0.00    +0.000 A 
ENDBRANCH  14  16
ENDBRANCH  12  14
ENDBRANCH   4  12
TORSDOF 4
ENDMDL
MODEL 2
REMARK VINA RESULT:    -7.319      2.891      6.475
REMARK INTER + INTRA:          -9.108
REMARK INTER:                  -8.306
REMARK INTRA:                  -0.802
REMARK UNBOUND:                -0.078
REMARK  Name = 
REMARK  6 active torsions:
REMARK  status: ('A' for Active; 'I' for Inactive)
REMARK    1  A    between atoms: C_1  and  N_2
REMARK    2  A    between atoms: C_3  and  C_5
REMARK    3  A    between atoms: C_8  and  N_9
REMARK    4  A    between atoms: N_9  and  C_10
REMARK    5  A    between atoms: C_10  and  C_11
REMARK    6  A    between atoms: C_10  and  C_12
REMARK                            x       y       z     vdW  Elec       q    Type
REMARK                         _______ _______ _______ _____ _____    ______ ____
ROOT
ATOM      1  C   UNL     1      46.082   2.647   7.988  0.00  0.00    +0.000 A 
ATOM      2  C   UNL     1      45.313   1.887   8.875  0.00  0.00    +0.000 A 
ATOM      3  C   UNL     1      44.487   2.525   9.810  0.00  0.00    +0.000 A 
ATOM      4  C   UNL     1      44.440   3.923   9.916  0.00  0.00    +0.000 A 
ATOM      5  C   UNL     1      45.222   4.667   9.029  0.00  0.00    +0.000 A 
ATOM      6  C   UNL     1      46.032   4.039   8.071  0.00  0.00    +0.000 A 
ENDROOT
BRANCH   1   9
ATOM      7  C   UNL     1      48.141   2.290   4.828  0.00  0.00    +0.000 C 
ATOM      8  N   UNL     1      47.270   2.784   5.862  0.00  0.00    +0.000 N 
ATOM      9  C   UNL     1      46.977   2.020   6.977  0.00  0.00    +0.000 C 
ATOM     10  O   UNL     1      47.436   0.898   7.160  0.00  0.00    +0.000 OA
ATOM     11  H   UNL     1      47.009   3.762   5.845  0.00  0.00    +0.000 HD
ENDBRANCH   1   9
BRANCH   4  12
ATOM     12  N   UNL     1      43.658   4.484  10.914  0.00  0.00    +0.000 N 
ATOM     13  H   UNL     1      42.969   5.153  10.589  0.00  0.00    +0.000 HD
BRANCH  12  14
ATOM     14  C   UNL     1      44.101   4.639  12.299  0.00  0.00    +0.000 C 
ATOM     15  C   UNL     1      42.876   4.986  13.151  0.00  0.00    +0.000 C 
BRANCH  14  16
ATOM     16  C   UNL     1      45.208   5.676  12.413  0.00  0.00    +0.000 A 
ATOM     17  C   UNL     1      46.446   5.308  12.969  0.00  0.00    +0.000 A 
ATOM     18  C   UNL     1      47.507   6.216  13.033  0.00  0.00    +0.000 A 
ATOM     19  C   UNL     1      47.343   7.514  12.559  0.00  0.00    +0.000 A 
ATOM     20  C   UNL     1      46.110   7.911  12.045  0.00  0.00    +0.000 A 
ATOM     21  C   UNL     1      45.050   7.001  11.973  0.00  0.00    +0.000 A 
ENDBRANCH  14  16
ENDBRANCH  12  14
ENDBRANCH   4  12
TORSDOF 4
ENDMDL
MODEL 3
REMARK VINA RESULT:    -7.270      1.442      1.745
REMARK INTER + INTRA:          -9.049
REMARK INTER:                  -8.616
REMARK INTRA:                  -0.432
REMARK UNBOUND:                -0.078
REMARK  Name = 
REMARK  6 active torsions:
REMARK  status: ('A' for Active; 'I' for Inactive)
REMARK    1  A    between atoms: C_1  and  N_2
REMARK    2  A    between atoms: C_3  and  C_5
REMARK    3  A    between atoms: C_8  and  N_9
REMARK    4  A    between atoms: N_9  and  C_10
REMARK    5  A    between atoms: C_10  and  C_11
REMARK    6  A    between atoms: C_10  and  C_12
REMARK                            x       y       z     vdW  Elec       q    Type
REMARK                         _______ _______ _______ _____ _____    ______ ____
ROOT
ATOM      1  C   UNL     1      46.169   6.998  12.562  0.00  0.00    +0.000 A 
ATOM      2  C   UNL     1      44.835   6.631  12.765  0.00  0.00    +0.000 A 
ATOM      3  C   UNL     1      44.172   5.845  11.814  0.00  0.00    +0.000 A 
ATOM      4  C   UNL     1      44.800   5.444  10.625  0.00  0.00    +0.000 A 
ATOM      5  C   UNL     1      46.130   5.827  10.434  0.00  0.00    +0.000 A 
ATOM      6  C   UNL     1      46.812   6.592  11.392  0.00  0.00    +0.000 A 
ENDROOT
BRANCH   1   9
ATOM      7  C   UNL     1      48.615   7.874  15.319  0.00  0.00    +0.000 C 
ATOM      8  N   UNL     1      47.818   7.166  14.352  0.00  0.00    +0.000 N 
ATOM      9  C   UNL     1      46.919   7.834  13.540  0.00  0.00    +0.000 C 
ATOM     10  O   UNL     1      46.749   9.047  13.583  0.00  0.00    +0.000 OA
ATOM     11  H   UNL     1      48.046   6.200  14.155  0.00  0.00    +0.000 HD
ENDBRANCH   1   9
BRANCH   4  12
ATOM     12  N   UNL     1      44.060   4.731   9.694  0.00  0.00    +0.000 N 
ATOM     13  H   UNL     1      43.175   5.155   9.440  0.00  0.00    +0.000 HD
BRANCH  12  14
ATOM     14  C   UNL     1      44.150   3.281   9.525  0.00  0.00    +0.000 C 
ATOM     15  C   UNL     1      44.348   2.655  10.909  0.00  0.00    +0.000 C 
BRANCH  14  16
ATOM     16  C   UNL     1      45.255   2.907   8.549  0.00  0.00    +0.000 A 
ATOM     17  C   UNL     1      45.782   1.605   8.566  0.00  0.00    +0.000 A 
ATOM     18  C   UNL     1      46.754   1.205   7.644  0.00  0.00    +0.000 A 
ATOM     19  C   UNL     1      47.229   2.109   6.699  0.00  0.00    +0.000 A 
ATOM     20  C   UNL     1      46.752   3.418   6.693  0.00  0.00    +0.000 A 
ATOM     21  C   UNL     1      45.774   3.816   7.611  0.00  0.00    +0.000 A 
ENDBRANCH  14  16
ENDBRANCH  12  14
ENDBRANCH   4  12
TORSDOF 4
ENDMDL
MODEL 4
REMARK VINA RESULT:    -6.764      2.045      2.613
REMARK INTER + INTRA:          -8.424
REMARK INTER:                  -7.812
REMARK INTRA:                  -0.612
REMARK UNBOUND:                -0.078
REMARK  Name = 
REMARK  6 active torsions:
REMARK  status: ('A' for Active; 'I' for Inactive)
REMARK    1  A    between atoms: C_1  and  N_2
REMARK    2  A    between atoms: C_3  and  C_5
REMARK    3  A    between atoms: C_8  and  N_9
REMARK    4  A    between atoms: N_9  and  C_10
REMARK    5  A    between atoms: C_10  and  C_11
REMARK    6  A    between atoms: C_10  and  C_12
REMARK                            x       y       z     vdW  Elec       q    Type
REMARK                         _______ _______ _______ _____ _____    ______ ____
ROOT
ATOM      1  C   UNL     1      48.567   7.225  12.962  0.00  0.00    +0.000 A 
ATOM      2  C   UNL     1      47.804   7.386  11.801  0.00  0.00    +0.000 A 
ATOM      3  C   UNL     1      46.674   6.584  11.589  0.00  0.00    +0.000 A 
ATOM      4  C   UNL     1      46.304   5.580  12.496  0.00  0.00    +0.000 A 
ATOM      5  C   UNL     1      47.083   5.426  13.646  0.00  0.00    +0.000 A 
ATOM      6  C   UNL     1      48.200   6.241  13.882  0.00  0.00    +0.000 A 
ENDROOT
BRANCH   1   9
ATOM      7  C   UNL     1      52.111   8.521  12.626  0.00  0.00    +0.000 C 
ATOM      8  N   UNL     1      50.891   7.775  12.464  0.00  0.00    +0.000 N 
ATOM      9  C   UNL     1      49.777   8.048  13.237  0.00  0.00    +0.000 C 
ATOM     10  O   UNL     1      49.751   8.931  14.087  0.00  0.00    +0.000 OA
ATOM     11  H   UNL     1      50.805   7.162  11.664  0.00  0.00    +0.000 HD
ENDBRANCH   1   9
BRANCH   4  12
ATOM     12  N   UNL     1      45.220   4.775  12.184  0.00  0.00    +0.000 N 
ATOM     13  H   UNL     1      45.251   3.845  12.586  0.00  0.00    +0.000 HD
BRANCH  12  14
ATOM     14  C   UNL     1      44.425   4.923  10.965  0.00  0.00    +0.000 C 
ATOM     15  C   UNL     1      42.966   4.611  11.312  0.00  0.00    +0.000 C 
BRANCH  14  16
ATOM     16  C   UNL     1      44.963   4.044   9.846  0.00  0.00    +0.000 A 
ATOM     17  C   UNL     1      45.618   4.639   8.754  0.00  0.00    +0.000 A 
ATOM     18  C   UNL     1      46.180   3.862   7.737  0.00  0.00    +0.000 A 
ATOM     19  C   UNL     1      46.080   2.474   7.786  0.00  0.00    +0.000 A 
ATOM     20  C   UNL     1      45.395   1.867   8.837  0.00  0.00    +0.000 A 
ATOM     21  C   UNL     1      44.840   2.644   9.859  0.00  0.00    +0.000 A 
ENDBRANCH  14  16
ENDBRANCH  12  14
ENDBRANCH   4  12
TORSDOF 4
ENDMDL
MODEL 5
REMARK VINA RESULT:    -6.356      1.529      2.150
REMARK INTER + INTRA:          -7.920
REMARK INTER:                  -7.266
REMARK INTRA:                  -0.654
REMARK UNBOUND:                -0.078
REMARK  Name = 
REMARK  6 active torsions:
REMARK  status: ('A' for Active; 'I' for Inactive)
REMARK    1  A    between atoms: C_1  and  N_2
REMARK    2  A    between atoms: C_3  and  C_5
REMARK    3  A    between atoms: C_8  and  N_9
REMARK    4  A    between atoms: N_9  and  C_10
REMARK    5  A    between atoms: C_10  and  C_11
REMARK    6  A    between atoms: C_10  and  C_12
REMARK                            x       y       z     vdW  Elec       q    Type
REMARK                         _______ _______ _______ _____ _____    ______ ____
ROOT
ATOM      1  C   UNL     1      48.121   6.639  14.321  0.00  0.00    +0.000 A 
ATOM      2  C   UNL     1      47.653   5.388  14.735  0.00  0.00    +0.000 A 
ATOM      3  C   UNL     1      46.585   4.781  14.062  0.00  0.00    +0.000 A 
ATOM      4  C   UNL     1      45.931   5.418  12.996  0.00  0.00    +0.000 A 
ATOM      5  C   UNL     1      46.405   6.672  12.601  0.00  0.00    +0.000 A 
ATOM      6  C   UNL     1      47.491   7.277  13.251  0.00  0.00    +0.000 A 
ENDROOT
BRANCH   1   9
ATOM      7  C   UNL     1      49.915   9.003  16.675  0.00  0.00    +0.000 C 
ATOM      8  N   UNL     1      48.907   8.287  15.939  0.00  0.00    +0.000 N 
ATOM      9  C   UNL     1      49.251   7.329  15.002  0.00  0.00    +0.000 C 
ATOM     10  O   UNL     1      50.411   7.027  14.747  0.00  0.00    +0.000 OA
ATOM     11  H   UNL     1      47.943   8.372  16.235  0.00  0.00    +0.000 HD
ENDBRANCH   1   9
BRANCH   4  12
ATOM     12  N   UNL     1      44.833   4.792  12.425  0.00  0.00    +0.000 N 
ATOM     13  H   UNL     1      44.692   3.831  12.718  0.00  0.00    +0.000 HD
BRANCH  12  14
ATOM     14  C   UNL     1      44.279   5.156  11.122  0.00  0.00    +0.000 C 
ATOM     15  C   UNL     1      42.753   5.081  11.219  0.00  0.00    +0.000 C 
BRANCH  14  16
ATOM     16  C   UNL     1      44.841   4.274  10.018  0.00  0.00    +0.000 A 
ATOM     17  C   UNL     1      44.592   2.890  10.044  0.00  0.00    +0.000 A 
ATOM     18  C   UNL     1      45.039   2.056   9.015  0.00  0.00    +0.000 A 
ATOM     19  C   UNL     1      45.760   2.588   7.951  0.00  0.00    +0.000 A 
ATOM     20  C   UNL     1      46.057   3.950   7.929  0.00  0.00    +0.000 A 
ATOM     21  C   UNL     1      45.603   4.787   8.954  0.00  0.00    +0.000 A 
ENDBRANCH  14  16
ENDBRANCH  12  14
ENDBRANCH   4  12
TORSDOF 4
ENDMDL
MODEL 6
REMARK VINA RESULT:    -6.024      2.036      2.672
REMARK INTER + INTRA:          -7.511
REMARK INTER:                  -7.201
REMARK INTRA:                  -0.310
REMARK UNBOUND:                -0.078
REMARK  Name = 
REMARK  6 active torsions:
REMARK  status: ('A' for Active; 'I' for Inactive)
REMARK    1  A    between atoms: C_1  and  N_2
REMARK    2  A    between atoms: C_3  and  C_5
REMARK    3  A    between atoms: C_8  and  N_9
REMARK    4  A    between atoms: N_9  and  C_10
REMARK    5  A    between atoms: C_10  and  C_11
REMARK    6  A    between atoms: C_10  and  C_12
REMARK                            x       y       z     vdW  Elec       q    Type
REMARK                         _______ _______ _______ _____ _____    ______ ____
ROOT
ATOM      1  C   UNL     1      47.511   7.585  12.787  0.00  0.00    +0.000 A 
ATOM      2  C   UNL     1      47.306   6.592  11.823  0.00  0.00    +0.000 A 
ATOM      3  C   UNL     1      46.035   6.410  11.264  0.00  0.00    +0.000 A 
ATOM      4  C   UNL     1      44.934   7.175  11.677  0.00  0.00    +0.000 A 
ATOM      5  C   UNL     1      45.153   8.156  12.648  0.00  0.00    +0.000 A 
ATOM      6  C   UNL     1      46.428   8.364  13.196  0.00  0.00    +0.000 A 
ENDROOT
BRANCH   1   9
ATOM      7  C   UNL     1      50.574   9.469  13.980  0.00  0.00    +0.000 C 
ATOM      8  N   UNL     1      49.310   9.120  13.385  0.00  0.00    +0.000 N 
ATOM      9  C   UNL     1      48.841   7.819  13.414  0.00  0.00    +0.000 C 
ATOM     10  O   UNL     1      49.451   6.898  13.944  0.00  0.00    +0.000 OA
ATOM     11  H   UNL     1      48.693   9.867  13.094  0.00  0.00    +0.000 HD
ENDBRANCH   1   9
BRANCH   4  12
ATOM     12  N   UNL     1      43.690   6.889  11.135  0.00  0.00    +0.000 N 
ATOM     13  H   UNL     1      43.098   7.697  10.980  0.00  0.00    +0.000 HD
BRANCH  12  14
ATOM     14  C   UNL     1      43.001   5.612  11.316  0.00  0.00    +0.000 C 
ATOM     15  C   UNL     1      42.985   5.292  12.814  0.00  0.00    +0.000 C 
BRANCH  14  16
ATOM     16  C   UNL     1      43.649   4.513  10.488  0.00  0.00    +0.000 A 
ATOM     17  C   UNL     1      43.795   3.227  11.037  0.00  0.00    +0.000 A 
ATOM     18  C   UNL     1      44.329   2.176  10.286  0.00  0.00    +0.000 A 
ATOM     19  C   UNL     1      44.745   2.398   8.977  0.00  0.00    +0.000 A 
ATOM     20  C   UNL     1      44.651   3.676   8.429  0.00  0.00    +0.000 A 
ATOM     21  C   UNL     1      44.109   4.726   9.178  0.00  0.00    +0.000 A 
ENDBRANCH  14  16
ENDBRANCH  12  14
ENDBRANCH   4  12
TORSDOF 4
ENDMDL
MODEL 7
REMARK VINA RESULT:    -6.020      2.979      6.751
REMARK INTER + INTRA:          -7.506
REMARK INTER:                  -6.835
REMARK INTRA:                  -0.672
REMARK UNBOUND:                -0.078
REMARK  Name = 
REMARK  6 active torsions:
REMARK  status: ('A' for Active; 'I' for Inactive)
REMARK    1  A    between atoms: C_1  and  N_2
REMARK    2  A    between atoms: C_3  and  C_5
REMARK    3  A    between atoms: C_8  and  N_9
REMARK    4  A    between atoms: N_9  and  C_10
REMARK    5  A    between atoms: C_10  and  C_11
REMARK    6  A    between atoms: C_10  and  C_12
REMARK                            x       y       z     vdW  Elec       q    Type
REMARK                         _______ _______ _______ _____ _____    ______ ____
ROOT
ATOM      1  C   UNL     1      45.113   4.167  11.676  0.00  0.00    +0.000 A 
ATOM      2  C   UNL     1      45.727   3.800  12.878  0.00  0.00    +0.000 A 
ATOM      3  C   UNL     1      46.407   4.759  13.639  0.00  0.00    +0.000 A 
ATOM      4  C   UNL     1      46.531   6.088  13.206  0.00  0.00    +0.000 A 
ATOM      5  C   UNL     1      45.920   6.436  11.998  0.00  0.00    +0.000 A 
ATOM      6  C   UNL     1      45.214   5.489  11.241  0.00  0.00    +0.000 A 
ENDROOT
BRANCH   1   9
ATOM      7  C   UNL     1      44.522   1.571   8.981  0.00  0.00    +0.000 C 
ATOM      8  N   UNL     1      45.120   2.553   9.847  0.00  0.00    +0.000 N 
ATOM      9  C   UNL     1      44.379   3.187  10.829  0.00  0.00    +0.000 C 
ATOM     10  O   UNL     1      43.193   2.954  11.029  0.00  0.00    +0.000 OA
ATOM     11  H   UNL     1      46.126   2.651   9.839  0.00  0.00    +0.000 HD
ENDBRANCH   1   9
BRANCH   4  12
ATOM     12  N   UNL     1      47.282   6.965  13.972  0.00  0.00    +0.000 N 
ATOM     13  H   UNL     1      46.783   7.789  14.288  0.00  0.00    +0.000 HD
BRANCH  12  14
ATOM     14  C   UNL     1      48.735   7.095  13.866  0.00  0.00    +0.000 C 
ATOM     15  C   UNL     1      49.298   7.282  15.278  0.00  0.00    +0.000 C 
BRANCH  14  16
ATOM     16  C   UNL     1      49.119   8.227  12.926  0.00  0.00    +0.000 A 
ATOM     17  C   UNL     1      50.356   8.183  12.259  0.00  0.00    +0.000 A 
ATOM     18  C   UNL     1      50.719   9.172  11.341  0.00  0.00    +0.000 A 
ATOM     19  C   UNL     1      49.857  10.236  11.087  0.00  0.00    +0.000 A 
ATOM     20  C   UNL     1      48.646  10.322  11.771  0.00  0.00    +0.000 A 
ATOM     21  C   UNL     1      48.280   9.328  12.684  0.00  0.00    +0.000 A 
ENDBRANCH  14  16
ENDBRANCH  12  14
ENDBRANCH   4  12
TORSDOF 4
ENDMDL
MODEL 8
REMARK VINA RESULT:    -5.905      1.969      3.370
REMARK INTER + INTRA:          -7.364
REMARK INTER:                  -7.079
REMARK INTRA:                  -0.285
REMARK UNBOUND:                -0.078
REMARK  Name = 
REMARK  6 active torsions:
REMARK  status: ('A' for Active; 'I' for Inactive)
REMARK    1  A    between atoms: C_1  and  N_2
REMARK    2  A    between atoms: C_3  and  C_5
REMARK    3  A    between atoms: C_8  and  N_9
REMARK    4  A    between atoms: N_9  and  C_10
REMARK    5  A    between atoms: C_10  and  C_11
REMARK    6  A    between atoms: C_10  and  C_12
REMARK                            x       y       z     vdW  Elec       q    Type
REMARK                         _______ _______ _______ _____ _____    ______ ____
ROOT
ATOM      1  C   UNL     1      47.884   5.123  15.841  0.00  0.00    +0.000 A 
ATOM      2  C   UNL     1      47.140   4.297  14.993  0.00  0.00    +0.000 A 
ATOM      3  C   UNL     1      46.911   4.681  13.665  0.00  0.00    +0.000 A 
ATOM      4  C   UNL     1      47.373   5.907  13.165  0.00  0.00    +0.000 A 
ATOM      5  C   UNL     1      48.106   6.725  14.028  0.00  0.00    +0.000 A 
ATOM      6  C   UNL     1      48.365   6.338  15.352  0.00  0.00    +0.000 A 
ENDROOT
BRANCH   1   9
ATOM      7  C   UNL     1      49.639   5.062  19.199  0.00  0.00    +0.000 C 
ATOM      8  N   UNL     1      49.287   5.321  17.827  0.00  0.00    +0.000 N 
ATOM      9  C   UNL     1      48.156   4.763  17.261  0.00  0.00    +0.000 C 
ATOM     10  O   UNL     1      47.388   4.033  17.877  0.00  0.00    +0.000 OA
ATOM     11  H   UNL     1      49.785   6.051  17.333  0.00  0.00    +0.000 HD
ENDBRANCH   1   9
BRANCH   4  12
ATOM     12  N   UNL     1      47.044   6.256  11.864  0.00  0.00    +0.000 N 
ATOM     13  H   UNL     1      47.738   6.820  11.386  0.00  0.00    +0.000 HD
BRANCH  12  14
ATOM     14  C   UNL     1      45.669   6.383  11.382  0.00  0.00    +0.000 C 
ATOM     15  C   UNL     1      44.758   6.570  12.598  0.00  0.00    +0.000 C 
BRANCH  14  16
ATOM     16  C   UNL     1      45.272   5.189  10.528  0.00  0.00    +0.000 A 
ATOM     17  C   UNL     1      45.709   5.117   9.194  0.00  0.00    +0.000 A 
ATOM     18  C   UNL     1      45.416   4.007   8.396  0.00  0.00    +0.000 A 
ATOM     19  C   UNL     1      44.664   2.957   8.914  0.00  0.00    +0.000 A 
ATOM     20  C   UNL     1      44.183   3.029  10.220  0.00  0.00    +0.000 A 
ATOM     21  C   UNL     1      44.483   4.136  11.021  0.00  0.00    +0.000 A 
ENDBRANCH  14  16
ENDBRANCH  12  14
ENDBRANCH   4  12
TORSDOF 4
ENDMDL
MODEL 9
REMARK VINA RESULT:    -5.838      2.449      7.205
REMARK INTER + INTRA:          -7.281
REMARK INTER:                  -6.970
REMARK INTRA:                  -0.311
REMARK UNBOUND:                -0.078
REMARK  Name = 
REMARK  6 active torsions:
REMARK  status: ('A' for Active; 'I' for Inactive)
REMARK    1  A    between atoms: C_1  and  N_2
REMARK    2  A    between atoms: C_3  and  C_5
REMARK    3  A    between atoms: C_8  and  N_9
REMARK    4  A    between atoms: N_9  and  C_10
REMARK    5  A    between atoms: C_10  and  C_11
REMARK    6  A    between atoms: C_10  and  C_12
REMARK                            x       y       z     vdW  Elec       q    Type
REMARK                         _______ _______ _______ _____ _____    ______ ____
ROOT
ATOM      1  C   UNL     1      45.132   4.307  11.627  0.00  0.00    +0.000 A 
ATOM      2  C   UNL     1      45.706   3.995  12.864  0.00  0.00    +0.000 A 
ATOM      3  C   UNL     1      46.308   5.002  13.631  0.00  0.00    +0.000 A 
ATOM      4  C   UNL     1      46.393   6.324  13.170  0.00  0.00    +0.000 A 
ATOM      5  C   UNL     1      45.824   6.617  11.928  0.00  0.00    +0.000 A 
ATOM      6  C   UNL     1      45.195   5.622  11.164  0.00  0.00    +0.000 A 
ENDROOT
BRANCH   1   9
ATOM      7  C   UNL     1      44.732   1.750   8.860  0.00  0.00    +0.000 C 
ATOM      8  N   UNL     1      45.248   2.767   9.738  0.00  0.00    +0.000 N 
ATOM      9  C   UNL     1      44.482   3.276  10.772  0.00  0.00    +0.000 C 
ATOM     10  O   UNL     1      43.341   2.898  11.010  0.00  0.00    +0.000 OA
ATOM     11  H   UNL     1      46.235   2.984   9.696  0.00  0.00    +0.000 HD
ENDBRANCH   1   9
BRANCH   4  12
ATOM     12  N   UNL     1      47.069   7.252  13.948  0.00  0.00    +0.000 N 
ATOM     13  H   UNL     1      46.490   7.993  14.327  0.00  0.00    +0.000 HD
BRANCH  12  14
ATOM     14  C   UNL     1      48.489   7.565  13.785  0.00  0.00    +0.000 C 
ATOM     15  C   UNL     1      48.954   6.973  12.452  0.00  0.00    +0.000 C 
BRANCH  14  16
ATOM     16  C   UNL     1      49.303   7.062  14.967  0.00  0.00    +0.000 A 
ATOM     17  C   UNL     1      48.692   6.237  15.928  0.00  0.00    +0.000 A 
ATOM     18  C   UNL     1      49.422   5.705  16.994  0.00  0.00    +0.000 A 
ATOM     19  C   UNL     1      50.775   6.003  17.129  0.00  0.00    +0.000 A 
ATOM     20  C   UNL     1      51.389   6.855  16.213  0.00  0.00    +0.000 A 
ATOM     21  C   UNL     1      50.660   7.382  15.141  0.00  0.00    +0.000 A 
ENDBRANCH  14  16
ENDBRANCH  12  14
ENDBRANCH   4  12
TORSDOF 4
ENDMDL
