MODEL 1
REMARK VINA RESULT:    -7.780      0.000      0.000
REMARK INTER + INTRA:         -10.501
REMARK INTER:                  -9.827
REMARK INTRA:                  -0.674
REMARK UNBOUND:                -0.674
REMARK  Name = 
REMARK  5 active torsions:
REMARK  status: ('A' for Active; 'I' for Inactive)
REMARK    1  A    between atoms: N_1  and  C_2
REMARK    2  A    between atoms: C_2  and  C_3
REMARK    3  A    between atoms: C_3  and  C_4
REMARK    4  A    between atoms: C_7  and  C_8
REMARK    5  A    between atoms: C_8  and  C_9
REMARK                            x       y       z     vdW  Elec       q    Type
REMARK                         _______ _______ _______ _____ _____    ______ ____
ROOT
ATOM      1  C   UNL     1      46.140   2.342   7.848  0.00  0.00    +0.000 A 
ATOM      2  C   UNL     1      45.280   1.726   8.764  0.00  0.00    +0.000 A 
ATOM      3  C   UNL     1      44.515   2.493   9.649  0.00  0.00    +0.000 A 
ATOM      4  C   UNL     1      44.586   3.893   9.633  0.00  0.00    +0.000 A 
ATOM      5  C   UNL     1      45.430   4.507   8.694  0.00  0.00    +0.000 A 
ATOM      6  C   UNL     1      46.195   3.740   7.811  0.00  0.00    +0.000 A 
ENDROOT
BRANCH   1   7
ATOM      7  C   UNL     1      46.997   1.516   6.918  0.00  0.00    +0.000 C 
BRANCH   7   8
ATOM      8  C   UNL     1      48.273   2.245   6.487  0.00  0.00    +0.000 C 
BRANCH   8   9
ATOM      9  N   UNL     1      48.270   2.496   5.045  0.00  0.00    +0.000 NA
ATOM     10  H   UNL     1      49.229   2.624   4.722  0.00  0.00    +0.000 HD
ATOM     11  H   UNL     1      47.786   3.372   4.849  0.00  0.00    +0.000 HD
ENDBRANCH   8   9
ENDBRANCH   7   8
ENDBRANCH   1   7
BRANCH   4  12
ATOM     12  C   UNL     1      43.753   4.723  10.578  0.00  0.00    +0.000 C 
BRANCH  12  13
ATOM     13  C   UNL     1      44.693   5.571  11.390  0.00  0.00    +0.000 A 
ATOM     14  C   UNL     1      44.720   6.954  11.337  0.00  0.00    +0.000 A 
ATOM     15  S   UNL     1      45.828   7.647  12.425  0.00  0.00    +0.000 S 
ATOM     16  C   UNL     1      46.307   6.113  13.029  0.00  0.00    +0.000 A 
ATOM     17  C   UNL     1      47.241   5.861  14.040  0.00  0.00    +0.000 A 
ATOM     18  N   UNL     1      47.520   4.591  14.410  0.00  0.00    +0.000 NA
ATOM     19  C   UNL     1      46.885   3.584  13.789  0.00  0.00    +0.000 A 
ATOM     20  C   UNL     1      45.945   3.756  12.784  0.00  0.00    +0.000 A 
ATOM     21  C   UNL     1      45.635   5.072  12.380  0.00  0.00    +0.000 A 
ENDBRANCH  12  13
ENDBRANCH   4  12
TORSDOF 5
ENDMDL
MODEL 2
REMARK VINA RESULT:    -7.341      1.576      2.476
REMARK INTER + INTRA:          -9.946
REMARK INTER:                  -9.361
REMARK INTRA:                  -0.585
REMARK UNBOUND:                -0.674
REMARK  Name = 
REMARK  5 active torsions:
REMARK  status: ('A' for Active; 'I' for Inactive)
REMARK    1  A    between atoms: N_1  and  C_2
REMARK    2  A    between atoms: C_2  and  C_3
REMARK    3  A    between atoms: C_3  and  C_4
REMARK    4  A    between atoms: C_7  and  C_8
REMARK    5  A    between atoms: C_8  and  C_9
REMARK                            x       y       z     vdW  Elec       q    Type
REMARK                         _______ _______ _______ _____ _____    ______ ____
ROOT
ATOM      1  C   UNL     1      46.118   2.337   7.855  0.00  0.00    +0.000 A 
ATOM      2  C   UNL     1      45.274   1.722   8.788  0.00  0.00    +0.000 A 
ATOM      3  C   UNL     1      44.512   2.492   9.673  0.00  0.00    +0.000 A 
ATOM      4  C   UNL     1      44.569   3.892   9.641  0.00  0.00    +0.000 A 
ATOM      5  C   UNL     1      45.397   4.504   8.687  0.00  0.00    +0.000 A 
ATOM      6  C   UNL     1      46.160   3.735   7.803  0.00  0.00    +0.000 A 
ENDROOT
BRANCH   1   7
ATOM      7  C   UNL     1      46.973   1.509   6.926  0.00  0.00    +0.000 C 
BRANCH   7   8
ATOM      8  C   UNL     1      48.262   2.227   6.511  0.00  0.00    +0.000 C 
BRANCH   8   9
ATOM      9  N   UNL     1      48.275   2.489   5.072  0.00  0.00    +0.000 NA
ATOM     10  H   UNL     1      48.128   3.485   4.908  0.00  0.00    +0.000 HD
ATOM     11  H   UNL     1      47.492   2.010   4.628  0.00  0.00    +0.000 HD
ENDBRANCH   8   9
ENDBRANCH   7   8
ENDBRANCH   1   7
BRANCH   4  12
ATOM     12  C   UNL     1      43.738   4.724  10.586  0.00  0.00    +0.000 C 
BRANCH  12  13
ATOM     13  C   UNL     1      44.666   5.307  11.617  0.00  0.00    +0.000 A 
ATOM     14  C   UNL     1      45.461   4.545  12.454  0.00  0.00    +0.000 A 
ATOM     15  S   UNL     1      46.468   5.476  13.459  0.00  0.00    +0.000 S 
ATOM     16  C   UNL     1      45.889   6.951  12.796  0.00  0.00    +0.000 A 
ATOM     17  C   UNL     1      46.300   8.245  13.133  0.00  0.00    +0.000 A 
ATOM     18  N   UNL     1      45.749   9.317  12.524  0.00  0.00    +0.000 NA
ATOM     19  C   UNL     1      44.801   9.114  11.593  0.00  0.00    +0.000 A 
ATOM     20  C   UNL     1      44.348   7.864  11.202  0.00  0.00    +0.000 A 
ATOM     21  C   UNL     1      44.909   6.727  11.822  0.00  0.00    +0.000 A 
ENDBRANCH  12  13
ENDBRANCH   4  12
TORSDOF 5
ENDMDL
MODEL 3
REMARK VINA RESULT:    -6.114      1.430      2.074
REMARK INTER + INTRA:          -8.397
REMARK INTER:                  -8.107
REMARK INTRA:                  -0.289
REMARK UNBOUND:                -0.674
REMARK  Name = 
REMARK  5 active torsions:
REMARK  status: ('A' for Active; 'I' for Inactive)
REMARK    1  A    between atoms: N_1  and  C_2
REMARK    2  A    between atoms: C_2  and  C_3
REMARK    3  A    between atoms: C_3  and  C_4
REMARK    4  A    between atoms: C_7  and  C_8
REMARK    5  A    between atoms: C_8  and  C_9
REMARK                            x       y       z     vdW  Elec       q    Type
REMARK                         _______ _______ _______ _____ _____    ______ ____
ROOT
ATOM      1  C   UNL     1      45.621   3.466   8.214  0.00  0.00    +0.000 A 
ATOM      2  C   UNL     1      46.000   4.761   8.586  0.00  0.00    +0.000 A 
ATOM      3  C   UNL     1      45.497   5.341   9.754  0.00  0.00    +0.000 A 
ATOM      4  C   UNL     1      44.610   4.639  10.582  0.00  0.00    +0.000 A 
ATOM      5  C   UNL     1      44.253   3.331  10.219  0.00  0.00    +0.000 A 
ATOM      6  C   UNL     1      44.754   2.751   9.050  0.00  0.00    +0.000 A 
ENDROOT
BRANCH   1   7
ATOM      7  C   UNL     1      46.130   2.850   6.933  0.00  0.00    +0.000 C 
BRANCH   7   8
ATOM      8  C   UNL     1      47.652   2.676   6.924  0.00  0.00    +0.000 C 
BRANCH   8   9
ATOM      9  N   UNL     1      48.016   1.263   6.819  0.00  0.00    +0.000 NA
ATOM     10  H   UNL     1      48.825   1.077   7.413  0.00  0.00    +0.000 HD
ATOM     11  H   UNL     1      48.311   1.053   5.866  0.00  0.00    +0.000 HD
ENDBRANCH   8   9
ENDBRANCH   7   8
ENDBRANCH   1   7
BRANCH   4  12
ATOM     12  C   UNL     1      44.076   5.259  11.849  0.00  0.00    +0.000 C 
BRANCH  12  13
ATOM     13  C   UNL     1      44.821   6.547  12.076  0.00  0.00    +0.000 A 
ATOM     14  C   UNL     1      44.391   7.775  11.607  0.00  0.00    +0.000 A 
ATOM     15  S   UNL     1      45.391   9.066  12.084  0.00  0.00    +0.000 S 
ATOM     16  C   UNL     1      46.439   8.025  12.961  0.00  0.00    +0.000 A 
ATOM     17  C   UNL     1      47.567   8.395  13.700  0.00  0.00    +0.000 A 
ATOM     18  N   UNL     1      48.302   7.459  14.339  0.00  0.00    +0.000 NA
ATOM     19  C   UNL     1      47.926   6.172  14.249  0.00  0.00    +0.000 A 
ATOM     20  C   UNL     1      46.818   5.731  13.543  0.00  0.00    +0.000 A 
ATOM     21  C   UNL     1      46.033   6.690  12.867  0.00  0.00    +0.000 A 
ENDBRANCH  12  13
ENDBRANCH   4  12
TORSDOF 5
ENDMDL
MODEL 4
REMARK VINA RESULT:    -5.720      2.351      6.591
REMARK INTER + INTRA:          -7.899
REMARK INTER:                  -7.484
REMARK INTRA:                  -0.415
REMARK UNBOUND:                -0.674
REMARK  Name = 
REMARK  5 active torsions:
REMARK  status: ('A' for Active; 'I' for Inactive)
REMARK    1  A    between atoms: N_1  and  C_2
REMARK    2  A    between atoms: C_2  and  C_3
REMARK    3  A    between atoms: C_3  and  C_4
REMARK    4  A    between atoms: C_7  and  C_8
REMARK    5  A    between atoms: C_8  and  C_9
REMARK                            x       y       z     vdW  Elec       q    Type
REMARK                         _______ _______ _______ _____ _____    ______ ____
ROOT
ATOM      1  C   UNL     1      48.150   7.576  13.726  0.00  0.00    +0.000 A 
ATOM      2  C   UNL     1      47.115   8.518  13.722  0.00  0.00    +0.000 A 
ATOM      3  C   UNL     1      45.960   8.302  12.964  0.00  0.00    +0.000 A 
ATOM      4  C   UNL     1      45.809   7.138  12.198  0.00  0.00    +0.000 A 
ATOM      5  C   UNL     1      46.838   6.184  12.226  0.00  0.00    +0.000 A 
ATOM      6  C   UNL     1      47.994   6.400  12.983  0.00  0.00    +0.000 A 
ENDROOT
BRANCH   1   7
ATOM      7  C   UNL     1      49.416   7.823  14.511  0.00  0.00    +0.000 C 
BRANCH   7   8
ATOM      8  C   UNL     1      49.588   6.847  15.679  0.00  0.00    +0.000 C 
BRANCH   8   9
ATOM      9  N   UNL     1      48.451   6.923  16.597  0.00  0.00    +0.000 NA
ATOM     10  H   UNL     1      48.315   6.016  17.044  0.00  0.00    +0.000 HD
ATOM     11  H   UNL     1      47.597   7.111  16.072  0.00  0.00    +0.000 HD
ENDBRANCH   8   9
ENDBRANCH   7   8
ENDBRANCH   1   7
BRANCH   4  12
ATOM     12  C   UNL     1      44.558   6.897  11.390  0.00  0.00    +0.000 C 
BRANCH  12  13
ATOM     13  C   UNL     1      44.352   5.410  11.301  0.00  0.00    +0.000 A 
ATOM     14  C   UNL     1      43.657   4.673  12.245  0.00  0.00    +0.000 A 
ATOM     15  S   UNL     1      43.513   3.027  11.842  0.00  0.00    +0.000 S 
ATOM     16  C   UNL     1      44.366   3.240  10.366  0.00  0.00    +0.000 A 
ATOM     17  C   UNL     1      44.644   2.260   9.407  0.00  0.00    +0.000 A 
ATOM     18  N   UNL     1      45.332   2.576   8.288  0.00  0.00    +0.000 NA
ATOM     19  C   UNL     1      45.740   3.845   8.118  0.00  0.00    +0.000 A 
ATOM     20  C   UNL     1      45.496   4.869   9.020  0.00  0.00    +0.000 A 
ATOM     21  C   UNL     1      44.778   4.565  10.196  0.00  0.00    +0.000 A 
ENDBRANCH  12  13
ENDBRANCH   4  12
TORSDOF 5
ENDMDL
MODEL 5
REMARK VINA RESULT:    -5.687      2.487      3.547
REMARK INTER + INTRA:          -7.857
REMARK INTER:                  -7.359
REMARK INTRA:                  -0.498
REMARK UNBOUND:                -0.674
REMARK  Name = 
REMARK  5 active torsions:
REMARK  status: ('A' for Active; 'I' for Inactive)
REMARK    1  A    between atoms: N_1  and  C_2
REMARK    2  A    between atoms: C_2  and  C_3
REMARK    3  A    between atoms: C_3  and  C_4
REMARK    4  A    between atoms: C_7  and  C_8
REMARK    5  A    between atoms: C_8  and  C_9
REMARK                            x       y       z     vdW  Elec       q    Type
REMARK                         _______ _______ _______ _____ _____    ______ ____
ROOT
ATOM      1  C   UNL     1      44.803   3.227   9.456  0.00  0.00    +0.000 A 
ATOM      2  C   UNL     1      44.215   2.802  10.653  0.00  0.00    +0.000 A 
ATOM      3  C   UNL     1      44.133   3.664  11.751  0.00  0.00    +0.000 A 
ATOM      4  C   UNL     1      44.630   4.973  11.676  0.00  0.00    +0.000 A 
ATOM      5  C   UNL     1      45.194   5.404  10.465  0.00  0.00    +0.000 A 
ATOM      6  C   UNL     1      45.278   4.542   9.368  0.00  0.00    +0.000 A 
ENDROOT
BRANCH   1   7
ATOM      7  C   UNL     1      44.930   2.287   8.282  0.00  0.00    +0.000 C 
BRANCH   7   8
ATOM      8  C   UNL     1      46.386   1.929   7.965  0.00  0.00    +0.000 C 
BRANCH   8   9
ATOM      9  N   UNL     1      46.573   0.478   7.935  0.00  0.00    +0.000 NA
ATOM     10  H   UNL     1      47.133   0.226   7.120  0.00  0.00    +0.000 HD
ATOM     11  H   UNL     1      45.672   0.017   7.814  0.00  0.00    +0.000 HD
ENDBRANCH   8   9
ENDBRANCH   7   8
ENDBRANCH   1   7
BRANCH   4  12
ATOM     12  C   UNL     1      44.531   5.909  12.855  0.00  0.00    +0.000 C 
BRANCH  12  13
ATOM     13  C   UNL     1      45.860   6.598  13.003  0.00  0.00    +0.000 A 
ATOM     14  C   UNL     1      47.016   5.958  13.413  0.00  0.00    +0.000 A 
ATOM     15  S   UNL     1      48.384   6.968  13.409  0.00  0.00    +0.000 S 
ATOM     16  C   UNL     1      47.480   8.311  12.836  0.00  0.00    +0.000 A 
ATOM     17  C   UNL     1      47.966   9.590  12.545  0.00  0.00    +0.000 A 
ATOM     18  N   UNL     1      47.130  10.554  12.101  0.00  0.00    +0.000 NA
ATOM     19  C   UNL     1      45.828  10.257  11.946  0.00  0.00    +0.000 A 
ATOM     20  C   UNL     1      45.276   9.013  12.206  0.00  0.00    +0.000 A 
ATOM     21  C   UNL     1      46.129   7.989  12.670  0.00  0.00    +0.000 A 
ENDBRANCH  12  13
ENDBRANCH   4  12
TORSDOF 5
ENDMDL
MODEL 6
REMARK VINA RESULT:    -5.513      2.791      5.960
REMARK INTER + INTRA:          -7.637
REMARK INTER:                  -7.192
REMARK INTRA:                  -0.445
REMARK UNBOUND:                -0.674
REMARK  Name = 
REMARK  5 active torsions:
REMARK  status: ('A' for Active; 'I' for Inactive)
REMARK    1  A    between atoms: N_1  and  C_2
REMARK    2  A    between atoms: C_2  and  C_3
REMARK    3  A    between atoms: C_3  and  C_4
REMARK    4  A    between atoms: C_7  and  C_8
REMARK    5  A    between atoms: C_8  and  C_9
REMARK                            x       y       z     vdW  Elec       q    Type
REMARK                         _______ _______ _______ _____ _____    ______ ____
ROOT
ATOM      1  C   UNL     1      48.690   7.618  12.849  0.00  0.00    +0.000 A 
ATOM      2  C   UNL     1      47.902   8.654  12.332  0.00  0.00    +0.000 A 
ATOM      3  C   UNL     1      46.577   8.419  11.953  0.00  0.00    +0.000 A 
ATOM      4  C   UNL     1      46.006   7.146  12.089  0.00  0.00    +0.000 A 
ATOM      5  C   UNL     1      46.790   6.117  12.633  0.00  0.00    +0.000 A 
ATOM      6  C   UNL     1      48.116   6.352  13.011  0.00  0.00    +0.000 A 
ENDROOT
BRANCH   1   7
ATOM      7  C   UNL     1      50.133   7.858  13.222  0.00  0.00    +0.000 C 
BRANCH   7   8
ATOM      8  C   UNL     1      50.980   8.326  12.035  0.00  0.00    +0.000 C 
BRANCH   8   9
ATOM      9  N   UNL     1      51.147   7.252  11.056  0.00  0.00    +0.000 NA
ATOM     10  H   UNL     1      50.406   6.562  11.181  0.00  0.00    +0.000 HD
ATOM     11  H   UNL     1      52.024   6.761  11.229  0.00  0.00    +0.000 HD
ENDBRANCH   8   9
ENDBRANCH   7   8
ENDBRANCH   1   7
BRANCH   4  12
ATOM     12  C   UNL     1      44.572   6.893  11.693  0.00  0.00    +0.000 C 
BRANCH  12  13
ATOM     13  C   UNL     1      44.398   5.407  11.533  0.00  0.00    +0.000 A 
ATOM     14  C   UNL     1      43.749   4.606  12.455  0.00  0.00    +0.000 A 
ATOM     15  S   UNL     1      43.633   2.980  11.972  0.00  0.00    +0.000 S 
ATOM     16  C   UNL     1      44.438   3.288  10.486  0.00  0.00    +0.000 A 
ATOM     17  C   UNL     1      44.713   2.366   9.471  0.00  0.00    +0.000 A 
ATOM     18  N   UNL     1      45.361   2.757   8.351  0.00  0.00    +0.000 NA
ATOM     19  C   UNL     1      45.734   4.043   8.237  0.00  0.00    +0.000 A 
ATOM     20  C   UNL     1      45.490   5.013   9.197  0.00  0.00    +0.000 A 
ATOM     21  C   UNL     1      44.814   4.631  10.375  0.00  0.00    +0.000 A 
ENDBRANCH  12  13
ENDBRANCH   4  12
TORSDOF 5
ENDMDL
MODEL 7
REMARK VINA RESULT:    -5.011      4.049      5.868
REMARK INTER + INTRA:          -7.003
REMARK INTER:                  -6.387
REMARK INTRA:                  -0.615
REMARK UNBOUND:                -0.674
REMARK  Name = 
REMARK  5 active torsions:
REMARK  status: ('A' for Active; 'I' for Inactive)
REMARK    1  A    between atoms: N_1  and  C_2
REMARK    2  A    between atoms: C_2  and  C_3
REMARK    3  A    between atoms: C_3  and  C_4
REMARK    4  A    between atoms: C_7  and  C_8
REMARK    5  A    between atoms: C_8  and  C_9
REMARK                            x       y       z     vdW  Elec       q    Type
REMARK                         _______ _______ _______ _____ _____    ______ ____
ROOT
ATOM      1  C   UNL     1      44.748   5.148  12.896  0.00  0.00    +0.000 A 
ATOM      2  C   UNL     1      45.001   6.493  12.601  0.00  0.00    +0.000 A 
ATOM      3  C   UNL     1      46.269   7.042  12.816  0.00  0.00    +0.000 A 
ATOM      4  C   UNL     1      47.314   6.259  13.324  0.00  0.00    +0.000 A 
ATOM      5  C   UNL     1      47.064   4.905  13.594  0.00  0.00    +0.000 A 
ATOM      6  C   UNL     1      45.796   4.356  13.380  0.00  0.00    +0.000 A 
ENDROOT
BRANCH   1   7
ATOM      7  C   UNL     1      43.370   4.562  12.703  0.00  0.00    +0.000 C 
BRANCH   7   8
ATOM      8  C   UNL     1      43.273   3.678  11.456  0.00  0.00    +0.000 C 
BRANCH   8   9
ATOM      9  N   UNL     1      43.054   2.278  11.821  0.00  0.00    +0.000 NA
ATOM     10  H   UNL     1      43.903   1.902  12.245  0.00  0.00    +0.000 HD
ATOM     11  H   UNL     1      42.888   1.724  10.981  0.00  0.00    +0.000 HD
ENDBRANCH   8   9
ENDBRANCH   7   8
ENDBRANCH   1   7
BRANCH   4  12
ATOM     12  C   UNL     1      48.687   6.847  13.545  0.00  0.00    +0.000 C 
BRANCH  12  13
ATOM     13  C   UNL     1      48.680   7.529  14.886  0.00  0.00    +0.000 A 
ATOM     14  C   UNL     1      48.463   8.885  15.056  0.00  0.00    +0.000 A 
ATOM     15  S   UNL     1      48.430   9.362  16.689  0.00  0.00    +0.000 S 
ATOM     16  C   UNL     1      48.687   7.755  17.239  0.00  0.00    +0.000 A 
ATOM     17  C   UNL     1      48.761   7.322  18.567  0.00  0.00    +0.000 A 
ATOM     18  N   UNL     1      48.972   6.018  18.849  0.00  0.00    +0.000 NA
ATOM     19  C   UNL     1      49.109   5.152  17.831  0.00  0.00    +0.000 A 
ATOM     20  C   UNL     1      49.042   5.505  16.492  0.00  0.00    +0.000 A 
ATOM     21  C   UNL     1      48.821   6.862  16.171  0.00  0.00    +0.000 A 
ENDBRANCH  12  13
ENDBRANCH   4  12
TORSDOF 5
ENDMDL
MODEL 8
REMARK VINA RESULT:    -5.007      3.690      7.365
REMARK INTER + INTRA:          -6.998
REMARK INTER:                  -6.469
REMARK INTRA:                  -0.528
REMARK UNBOUND:                -0.674
REMARK  Name = 
REMARK  5 active torsions:
REMARK  status: ('A' for Active; 'I' for Inactive)
REMARK    1  A    between atoms: N_1  and  C_2
REMARK    2  A    between atoms: C_2  and  C_3
REMARK    3  A    between atoms: C_3  and  C_4
REMARK    4  A    between atoms: C_7  and  C_8
REMARK    5  A    between atoms: C_8  and  C_9
REMARK                            x       y       z     vdW  Elec       q    Type
REMARK                         _______ _______ _______ _____ _____    ______ ____
ROOT
ATOM      1  C   UNL     1      47.917   5.314  17.164  0.00  0.00    +0.000 A 
ATOM      2  C   UNL     1      47.241   4.376  16.374  0.00  0.00    +0.000 A 
ATOM      3  C   UNL     1      47.200   4.516  14.983  0.00  0.00    +0.000 A 
ATOM      4  C   UNL     1      47.838   5.591  14.349  0.00  0.00    +0.000 A 
ATOM      5  C   UNL     1      48.538   6.514  15.143  0.00  0.00    +0.000 A 
ATOM      6  C   UNL     1      48.578   6.375  16.533  0.00  0.00    +0.000 A 
ENDROOT
BRANCH   1   7
ATOM      7  C   UNL     1      47.931   5.188  18.668  0.00  0.00    +0.000 C 
BRANCH   7   8
ATOM      8  C   UNL     1      48.966   4.176  19.168  0.00  0.00    +0.000 C 
BRANCH   8   9
ATOM      9  N   UNL     1      48.313   3.029  19.800  0.00  0.00    +0.000 NA
ATOM     10  H   UNL     1      49.009   2.308  19.993  0.00  0.00    +0.000 HD
ATOM     11  H   UNL     1      47.646   2.612  19.151  0.00  0.00    +0.000 HD
ENDBRANCH   8   9
ENDBRANCH   7   8
ENDBRANCH   1   7
BRANCH   4  12
ATOM     12  C   UNL     1      47.806   5.737  12.848  0.00  0.00    +0.000 C 
BRANCH  12  13
ATOM     13  C   UNL     1      46.409   6.139  12.459  0.00  0.00    +0.000 A 
ATOM     14  C   UNL     1      46.000   7.453  12.318  0.00  0.00    +0.000 A 
ATOM     15  S   UNL     1      44.390   7.605  11.791  0.00  0.00    +0.000 S 
ATOM     16  C   UNL     1      44.179   5.902  11.712  0.00  0.00    +0.000 A 
ATOM     17  C   UNL     1      43.031   5.214  11.307  0.00  0.00    +0.000 A 
ATOM     18  N   UNL     1      43.011   3.863  11.299  0.00  0.00    +0.000 NA
ATOM     19  C   UNL     1      44.113   3.200  11.688  0.00  0.00    +0.000 A 
ATOM     20  C   UNL     1      45.288   3.812  12.096  0.00  0.00    +0.000 A 
ATOM     21  C   UNL     1      45.335   5.222  12.112  0.00  0.00    +0.000 A 
ENDBRANCH  12  13
ENDBRANCH   4  12
TORSDOF 5
ENDMDL
MODEL 9
REMARK VINA RESULT:    -4.811      3.597      5.051
REMARK INTER + INTRA:          -6.750
REMARK INTER:                  -6.471
REMARK INTRA:                  -0.280
REMARK UNBOUND:                -0.674
REMARK  Name = 
REMARK  5 active torsions:
REMARK  status: ('A' for Active; 'I' for Inactive)
REMARK    1  A    between atoms: N_1  and  C_2
REMARK    2  A    between atoms: C_2  and  C_3
REMARK    3  A    between atoms: C_3  and  C_4
REMARK    4  A    between atoms: C_7  and  C_8
REMARK    5  A    between atoms: C_8  and  C_9
REMARK                            x       y       z     vdW  Elec       q    Type
REMARK                         _______ _______ _______ _____ _____    ______ ____
ROOT
ATOM      1  C   UNL     1      44.820   4.493  11.303  0.00  0.00    +0.000 A 
ATOM      2  C   UNL     1      45.054   4.249  12.662  0.00  0.00    +0.000 A 
ATOM      3  C   UNL     1      45.997   5.002  13.367  0.00  0.00    +0.000 A 
ATOM      4  C   UNL     1      46.724   6.020  12.734  0.00  0.00    +0.000 A 
ATOM      5  C   UNL     1      46.467   6.279  11.379  0.00  0.00    +0.000 A 
ATOM      6  C   UNL     1      45.524   5.525  10.673  0.00  0.00    +0.000 A 
ENDROOT
BRANCH   1   7
ATOM      7  C   UNL     1      43.831   3.655  10.528  0.00  0.00    +0.000 C 
BRANCH   7   8
ATOM      8  C   UNL     1      44.502   2.777   9.468  0.00  0.00    +0.000 C 
BRANCH   8   9
ATOM      9  N   UNL     1      44.338   3.351   8.132  0.00  0.00    +0.000 NA
ATOM     10  H   UNL     1      44.563   2.645   7.431  0.00  0.00    +0.000 HD
ATOM     11  H   UNL     1      45.009   4.108   7.998  0.00  0.00    +0.000 HD
ENDBRANCH   8   9
ENDBRANCH   7   8
ENDBRANCH   1   7
BRANCH   4  12
ATOM     12  C   UNL     1      47.733   6.842  13.497  0.00  0.00    +0.000 C 
BRANCH  12  13
ATOM     13  C   UNL     1      47.833   8.183  12.821  0.00  0.00    +0.000 A 
ATOM     14  C   UNL     1      46.833   9.137  12.857  0.00  0.00    +0.000 A 
ATOM     15  S   UNL     1      47.256  10.587  12.075  0.00  0.00    +0.000 S 
ATOM     16  C   UNL     1      48.817   9.997  11.669  0.00  0.00    +0.000 A 
ATOM     17  C   UNL     1      49.826  10.686  10.988  0.00  0.00    +0.000 A 
ATOM     18  N   UNL     1      51.011  10.087  10.736  0.00  0.00    +0.000 NA
ATOM     19  C   UNL     1      51.196   8.823  11.151  0.00  0.00    +0.000 A 
ATOM     20  C   UNL     1      50.247   8.080  11.836  0.00  0.00    +0.000 A 
ATOM     21  C   UNL     1      49.002   8.683  12.113  0.00  0.00    +0.000 A 
ENDBRANCH  12  13
ENDBRANCH   4  12
TORSDOF 5
ENDMDL
