MODEL 1
REMARK VINA RESULT:    -8.390      0.000      0.000
REMARK INTER + INTRA:         -12.037
REMARK INTER:                 -11.333
REMARK INTRA:                  -0.704
REMARK UNBOUND:                -0.704
REMARK  Name = 
REMARK  7 active torsions:
REMARK  status: ('A' for Active; 'I' for Inactive)
REMARK    1  A    between atoms: C_1  and  O_2
REMARK    2  A    between atoms: O_2  and  C_3
REMARK    3  A    between atoms: C_8  and  C_9
REMARK    4  A    between atoms: C_13  and  C_14
REMARK    5  A    between atoms: C_14  and  O_15
REMARK    6  A    between atoms: O_15  and  C_16
REMARK    7  A    between atoms: C_19  and  C_20
REMARK                            x       y       z     vdW  Elec       q    Type
REMARK                         _______ _______ _______ _____ _____    ______ ____
ROOT
ATOM      1  C   UNL     1      46.199   5.913  12.657  0.00  0.00    +0.000 A 
ATOM      2  C   UNL     1      46.994   5.105  13.467  0.00  0.00    +0.000 A 
ATOM      3  N   UNL     1      46.778   3.774  13.648  0.00  0.00    +0.000 NA
ATOM      4  C   UNL     1      45.721   3.261  12.978  0.00  0.00    +0.000 A 
ATOM      5  C   UNL     1      44.896   4.039  12.181  0.00  0.00    +0.000 A 
ATOM      6  N   UNL     1      45.131   5.369  12.014  0.00  0.00    +0.000 NA
ENDROOT
BRANCH   1  12
ATOM      7  C   UNL     1      45.577   9.481  12.290  0.00  0.00    +0.000 A 
ATOM      8  N   UNL     1      46.771  10.061  12.101  0.00  0.00    +0.000 NA
ATOM      9  C   UNL     1      47.827   9.227  12.089  0.00  0.00    +0.000 A 
ATOM     10  C   UNL     1      47.729   7.868  12.255  0.00  0.00    +0.000 A 
ATOM     11  F   UNL     1      48.841   7.121  12.227  0.00  0.00    +0.000 F 
ATOM     12  C   UNL     1      46.458   7.351  12.445  0.00  0.00    +0.000 A 
ATOM     13  N   UNL     1      45.365   8.165  12.459  0.00  0.00    +0.000 NA
BRANCH   7  15
ATOM     14  C   UNL     1      44.398  11.220  11.276  0.00  0.00    +0.000 C 
ATOM     15  O   UNL     1      44.439  10.256  12.322  0.00  0.00    +0.000 OA
ENDBRANCH   7  15
ENDBRANCH   1  12
BRANCH   5  16
ATOM     16  C   UNL     1      43.707   3.449  11.471  0.00  0.00    +0.000 C 
BRANCH  16  17
ATOM     17  O   UNL     1      43.672   3.917  10.120  0.00  0.00    +0.000 OA
BRANCH  17  18
ATOM     18  C   UNL     1      44.622   3.406   9.283  0.00  0.00    +0.000 A 
ATOM     19  C   UNL     1      45.016   2.071   9.201  0.00  0.00    +0.000 A 
ATOM     20  C   UNL     1      46.006   1.698   8.292  0.00  0.00    +0.000 A 
ATOM     21  C   UNL     1      46.569   2.678   7.486  0.00  0.00    +0.000 A 
ATOM     22  N   UNL     1      46.202   3.988   7.521  0.00  0.00    +0.000 NA
ATOM     23  C   UNL     1      45.231   4.309   8.412  0.00  0.00    +0.000 A 
BRANCH  21  24
ATOM     24  C   UNL     1      47.643   2.306   6.513  0.00  0.00    +0.000 C 
ATOM     25  N   UNL     1      47.740   3.110   5.411  0.00  0.00    +0.000 N 
ATOM     26  O   UNL     1      48.392   1.350   6.685  0.00  0.00    +0.000 OA
ATOM     27  H   UNL     1      47.100   3.888   5.302  0.00  0.00    +0.000 HD
ATOM     28  H   UNL     1      48.439   2.917   4.708  0.00  0.00    +0.000 HD
ENDBRANCH  21  24
ENDBRANCH  17  18
ENDBRANCH  16  17
ENDBRANCH   5  16
TORSDOF 6
ENDMDL
MODEL 2
REMARK VINA RESULT:    -8.224      1.987      2.544
REMARK INTER + INTRA:         -11.812
REMARK INTER:                 -11.019
REMARK INTRA:                  -0.793
REMARK UNBOUND:                -0.704
REMARK  Name = 
REMARK  7 active torsions:
REMARK  status: ('A' for Active; 'I' for Inactive)
REMARK    1  A    between atoms: C_1  and  O_2
REMARK    2  A    between atoms: O_2  and  C_3
REMARK    3  A    between atoms: C_8  and  C_9
REMARK    4  A    between atoms: C_13  and  C_14
REMARK    5  A    between atoms: C_14  and  O_15
REMARK    6  A    between atoms: O_15  and  C_16
REMARK    7  A    between atoms: C_19  and  C_20
REMARK                            x       y       z     vdW  Elec       q    Type
REMARK                         _______ _______ _______ _____ _____    ______ ____
ROOT
ATOM      1  C   UNL     1      46.293   6.182  12.605  0.00  0.00    +0.000 A 
ATOM      2  C   UNL     1      46.500   5.236  13.607  0.00  0.00    +0.000 A 
ATOM      3  N   UNL     1      45.765   4.097  13.731  0.00  0.00    +0.000 NA
ATOM      4  C   UNL     1      44.798   3.925  12.802  0.00  0.00    +0.000 A 
ATOM      5  C   UNL     1      44.550   4.855  11.805  0.00  0.00    +0.000 A 
ATOM      6  N   UNL     1      45.297   5.988  11.699  0.00  0.00    +0.000 NA
ENDROOT
BRANCH   1  12
ATOM      7  C   UNL     1      49.139   8.318  11.838  0.00  0.00    +0.000 A 
ATOM      8  N   UNL     1      48.757   9.575  12.104  0.00  0.00    +0.000 NA
ATOM      9  C   UNL     1      47.501   9.716  12.565  0.00  0.00    +0.000 A 
ATOM     10  C   UNL     1      46.637   8.667  12.762  0.00  0.00    +0.000 A 
ATOM     11  F   UNL     1      45.405   8.911  13.226  0.00  0.00    +0.000 F 
ATOM     12  C   UNL     1      47.113   7.401  12.462  0.00  0.00    +0.000 A 
ATOM     13  N   UNL     1      48.381   7.220  11.998  0.00  0.00    +0.000 NA
BRANCH   7  15
ATOM     14  C   UNL     1      51.154   9.270  11.147  0.00  0.00    +0.000 C 
ATOM     15  O   UNL     1      50.408   8.077  11.358  0.00  0.00    +0.000 OA
ENDBRANCH   7  15
ENDBRANCH   1  12
BRANCH   5  16
ATOM     16  C   UNL     1      43.446   4.655  10.801  0.00  0.00    +0.000 C 
BRANCH  16  17
ATOM     17  O   UNL     1      43.559   3.356  10.214  0.00  0.00    +0.000 OA
BRANCH  17  18
ATOM     18  C   UNL     1      44.527   3.208   9.263  0.00  0.00    +0.000 A 
ATOM     19  C   UNL     1      44.993   4.202   8.403  0.00  0.00    +0.000 A 
ATOM     20  C   UNL     1      45.992   3.900   7.477  0.00  0.00    +0.000 A 
ATOM     21  C   UNL     1      46.497   2.607   7.445  0.00  0.00    +0.000 A 
ATOM     22  N   UNL     1      46.083   1.613   8.278  0.00  0.00    +0.000 NA
ATOM     23  C   UNL     1      45.118   1.949   9.169  0.00  0.00    +0.000 A 
BRANCH  21  24
ATOM     24  C   UNL     1      47.559   2.253   6.451  0.00  0.00    +0.000 C 
ATOM     25  N   UNL     1      47.523   2.958   5.279  0.00  0.00    +0.000 N 
ATOM     26  O   UNL     1      48.408   1.395   6.665  0.00  0.00    +0.000 OA
ATOM     27  H   UNL     1      46.802   3.656   5.138  0.00  0.00    +0.000 HD
ATOM     28  H   UNL     1      48.206   2.769   4.560  0.00  0.00    +0.000 HD
ENDBRANCH  21  24
ENDBRANCH  17  18
ENDBRANCH  16  17
ENDBRANCH   5  16
TORSDOF 6
ENDMDL
MODEL 3
REMARK VINA RESULT:    -8.163      2.470      3.207
REMARK INTER + INTRA:         -11.730
REMARK INTER:                 -11.317
REMARK INTRA:                  -0.414
REMARK UNBOUND:                -0.704
REMARK  Name = 
REMARK  7 active torsions:
REMARK  status: ('A' for Active; 'I' for Inactive)
REMARK    1  A    between atoms: C_1  and  O_2
REMARK    2  A    between atoms: O_2  and  C_3
REMARK    3  A    between atoms: C_8  and  C_9
REMARK    4  A    between atoms: C_13  and  C_14
REMARK    5  A    between atoms: C_14  and  O_15
REMARK    6  A    between atoms: O_15  and  C_16
REMARK    7  A    between atoms: C_19  and  C_20
REMARK                            x       y       z     vdW  Elec       q    Type
REMARK                         _______ _______ _______ _____ _____    ______ ____
ROOT
ATOM      1  C   UNL     1      47.181   5.662  13.094  0.00  0.00    +0.000 A 
ATOM      2  C   UNL     1      47.003   4.497  13.835  0.00  0.00    +0.000 A 
ATOM      3  N   UNL     1      45.955   3.646  13.664  0.00  0.00    +0.000 NA
ATOM      4  C   UNL     1      45.071   4.001  12.704  0.00  0.00    +0.000 A 
ATOM      5  C   UNL     1      45.205   5.164  11.961  0.00  0.00    +0.000 A 
ATOM      6  N   UNL     1      46.261   6.001  12.151  0.00  0.00    +0.000 NA
ENDROOT
BRANCH   1  12
ATOM      7  C   UNL     1      49.954   7.395  14.694  0.00  0.00    +0.000 A 
ATOM      8  N   UNL     1      50.516   8.169  13.753  0.00  0.00    +0.000 NA
ATOM      9  C   UNL     1      49.942   8.116  12.537  0.00  0.00    +0.000 A 
ATOM     10  C   UNL     1      48.854   7.334  12.239  0.00  0.00    +0.000 A 
ATOM     11  F   UNL     1      48.354   7.350  10.997  0.00  0.00    +0.000 F 
ATOM     12  C   UNL     1      48.336   6.565  13.269  0.00  0.00    +0.000 A 
ATOM     13  N   UNL     1      48.888   6.597  14.515  0.00  0.00    +0.000 NA
BRANCH   7  15
ATOM     14  C   UNL     1      50.066   6.246  16.721  0.00  0.00    +0.000 C 
ATOM     15  O   UNL     1      50.476   7.381  15.968  0.00  0.00    +0.000 OA
ENDBRANCH   7  15
ENDBRANCH   1  12
BRANCH   5  16
ATOM     16  C   UNL     1      44.188   5.552  10.921  0.00  0.00    +0.000 C 
BRANCH  16  17
ATOM     17  O   UNL     1      43.769   4.389  10.201  0.00  0.00    +0.000 OA
BRANCH  17  18
ATOM     18  C   UNL     1      44.686   3.848   9.347  0.00  0.00    +0.000 A 
ATOM     19  C   UNL     1      45.499   4.551   8.459  0.00  0.00    +0.000 A 
ATOM     20  C   UNL     1      46.394   3.856   7.644  0.00  0.00    +0.000 A 
ATOM     21  C   UNL     1      46.448   2.473   7.749  0.00  0.00    +0.000 A 
ATOM     22  N   UNL     1      45.687   1.750   8.615  0.00  0.00    +0.000 NA
ATOM     23  C   UNL     1      44.837   2.463   9.395  0.00  0.00    +0.000 A 
BRANCH  21  24
ATOM     24  C   UNL     1      47.389   1.703   6.876  0.00  0.00    +0.000 C 
ATOM     25  N   UNL     1      48.495   2.390   6.457  0.00  0.00    +0.000 N 
ATOM     26  O   UNL     1      47.191   0.536   6.556  0.00  0.00    +0.000 OA
ATOM     27  H   UNL     1      48.621   3.355   6.739  0.00  0.00    +0.000 HD
ATOM     28  H   UNL     1      49.171   1.936   5.861  0.00  0.00    +0.000 HD
ENDBRANCH  21  24
ENDBRANCH  17  18
ENDBRANCH  16  17
ENDBRANCH   5  16
TORSDOF 6
ENDMDL
MODEL 4
REMARK VINA RESULT:    -8.111      2.180      3.226
REMARK INTER + INTRA:         -11.660
REMARK INTER:                 -10.984
REMARK INTRA:                  -0.675
REMARK UNBOUND:                -0.704
REMARK  Name = 
REMARK  7 active torsions:
REMARK  status: ('A' for Active; 'I' for Inactive)
REMARK    1  A    between atoms: C_1  and  O_2
REMARK    2  A    between atoms: O_2  and  C_3
REMARK    3  A    between atoms: C_8  and  C_9
REMARK    4  A    between atoms: C_13  and  C_14
REMARK    5  A    between atoms: C_14  and  O_15
REMARK    6  A    between atoms: O_15  and  C_16
REMARK    7  A    between atoms: C_19  and  C_20
REMARK                            x       y       z     vdW  Elec       q    Type
REMARK                         _______ _______ _______ _____ _____    ______ ____
ROOT
ATOM      1  C   UNL     1      46.137   6.509  12.491  0.00  0.00    +0.000 A 
ATOM      2  C   UNL     1      45.341   7.555  12.032  0.00  0.00    +0.000 A 
ATOM      3  N   UNL     1      44.135   7.376  11.426  0.00  0.00    +0.000 NA
ATOM      4  C   UNL     1      43.738   6.091  11.294  0.00  0.00    +0.000 A 
ATOM      5  C   UNL     1      44.513   5.024  11.720  0.00  0.00    +0.000 A 
ATOM      6  N   UNL     1      45.716   5.226  12.322  0.00  0.00    +0.000 NA
ENDROOT
BRANCH   1  12
ATOM      7  C   UNL     1      48.785   6.195  14.969  0.00  0.00    +0.000 A 
ATOM      8  N   UNL     1      49.800   6.960  14.544  0.00  0.00    +0.000 NA
ATOM      9  C   UNL     1      49.591   7.614  13.387  0.00  0.00    +0.000 A 
ATOM     10  C   UNL     1      48.429   7.528  12.660  0.00  0.00    +0.000 A 
ATOM     11  F   UNL     1      48.317   8.219  11.518  0.00  0.00    +0.000 F 
ATOM     12  C   UNL     1      47.431   6.715  13.171  0.00  0.00    +0.000 A 
ATOM     13  N   UNL     1      47.606   6.041  14.343  0.00  0.00    +0.000 NA
BRANCH   7  15
ATOM     14  C   UNL     1      47.801   4.628  16.391  0.00  0.00    +0.000 C 
ATOM     15  O   UNL     1      48.910   5.485  16.143  0.00  0.00    +0.000 OA
ENDBRANCH   7  15
ENDBRANCH   1  12
BRANCH   5  16
ATOM     16  C   UNL     1      44.061   3.600  11.531  0.00  0.00    +0.000 C 
BRANCH  16  17
ATOM     17  O   UNL     1      43.625   3.409  10.183  0.00  0.00    +0.000 OA
BRANCH  17  18
ATOM     18  C   UNL     1      44.588   3.050   9.284  0.00  0.00    +0.000 A 
ATOM     19  C   UNL     1      45.128   1.775   9.123  0.00  0.00    +0.000 A 
ATOM     20  C   UNL     1      46.112   1.558   8.157  0.00  0.00    +0.000 A 
ATOM     21  C   UNL     1      46.521   2.631   7.377  0.00  0.00    +0.000 A 
ATOM     22  N   UNL     1      46.007   3.887   7.489  0.00  0.00    +0.000 NA
ATOM     23  C   UNL     1      45.048   4.053   8.433  0.00  0.00    +0.000 A 
BRANCH  21  24
ATOM     24  C   UNL     1      47.585   2.429   6.344  0.00  0.00    +0.000 C 
ATOM     25  N   UNL     1      47.465   3.200   5.220  0.00  0.00    +0.000 N 
ATOM     26  O   UNL     1      48.506   1.633   6.488  0.00  0.00    +0.000 OA
ATOM     27  H   UNL     1      46.687   3.844   5.137  0.00  0.00    +0.000 HD
ATOM     28  H   UNL     1      48.144   3.114   4.479  0.00  0.00    +0.000 HD
ENDBRANCH  21  24
ENDBRANCH  17  18
ENDBRANCH  16  17
ENDBRANCH   5  16
TORSDOF 6
ENDMDL
MODEL 5
REMARK VINA RESULT:    -7.301      3.038      7.408
REMARK INTER + INTRA:         -10.565
REMARK INTER:                 -10.140
REMARK INTRA:                  -0.425
REMARK UNBOUND:                -0.704
REMARK  Name = 
REMARK  7 active torsions:
REMARK  status: ('A' for Active; 'I' for Inactive)
REMARK    1  A    between atoms: C_1  and  O_2
REMARK    2  A    between atoms: O_2  and  C_3
REMARK    3  A    between atoms: C_8  and  C_9
REMARK    4  A    between atoms: C_13  and  C_14
REMARK    5  A    between atoms: C_14  and  O_15
REMARK    6  A    between atoms: O_15  and  C_16
REMARK    7  A    between atoms: C_19  and  C_20
REMARK                            x       y       z     vdW  Elec       q    Type
REMARK                         _______ _______ _______ _____ _____    ______ ____
ROOT
ATOM      1  C   UNL     1      44.691   5.016  10.348  0.00  0.00    +0.000 A 
ATOM      2  C   UNL     1      43.362   5.315  10.640  0.00  0.00    +0.000 A 
ATOM      3  N   UNL     1      42.982   6.305  11.492  0.00  0.00    +0.000 NA
ATOM      4  C   UNL     1      43.992   7.006  12.054  0.00  0.00    +0.000 A 
ATOM      5  C   UNL     1      45.325   6.723  11.804  0.00  0.00    +0.000 A 
ATOM      6  N   UNL     1      45.683   5.727  10.948  0.00  0.00    +0.000 NA
ENDROOT
BRANCH   1  12
ATOM      7  C   UNL     1      46.108   3.429   7.394  0.00  0.00    +0.000 A 
ATOM      8  N   UNL     1      45.938   2.108   7.550  0.00  0.00    +0.000 NA
ATOM      9  C   UNL     1      45.319   1.731   8.684  0.00  0.00    +0.000 A 
ATOM     10  C   UNL     1      44.877   2.610   9.641  0.00  0.00    +0.000 A 
ATOM     11  F   UNL     1      44.272   2.136  10.737  0.00  0.00    +0.000 F 
ATOM     12  C   UNL     1      45.094   3.957   9.401  0.00  0.00    +0.000 A 
ATOM     13  N   UNL     1      45.713   4.376   8.261  0.00  0.00    +0.000 NA
BRANCH   7  15
ATOM     14  C   UNL     1      47.098   2.876   5.354  0.00  0.00    +0.000 C 
ATOM     15  O   UNL     1      46.736   3.908   6.265  0.00  0.00    +0.000 OA
ENDBRANCH   7  15
ENDBRANCH   1  12
BRANCH   5  16
ATOM     16  C   UNL     1      46.431   7.499  12.468  0.00  0.00    +0.000 C 
BRANCH  16  17
ATOM     17  O   UNL     1      47.576   6.658  12.634  0.00  0.00    +0.000 OA
BRANCH  17  18
ATOM     18  C   UNL     1      47.633   5.941  13.795  0.00  0.00    +0.000 A 
ATOM     19  C   UNL     1      48.259   6.336  14.976  0.00  0.00    +0.000 A 
ATOM     20  C   UNL     1      48.233   5.492  16.087  0.00  0.00    +0.000 A 
ATOM     21  C   UNL     1      47.573   4.275  15.979  0.00  0.00    +0.000 A 
ATOM     22  N   UNL     1      46.933   3.860  14.852  0.00  0.00    +0.000 NA
ATOM     23  C   UNL     1      46.975   4.712  13.798  0.00  0.00    +0.000 A 
BRANCH  21  24
ATOM     24  C   UNL     1      47.544   3.346  17.151  0.00  0.00    +0.000 C 
ATOM     25  N   UNL     1      48.757   3.090  17.728  0.00  0.00    +0.000 N 
ATOM     26  O   UNL     1      46.507   2.846  17.575  0.00  0.00    +0.000 OA
ATOM     27  H   UNL     1      49.592   3.519  17.346  0.00  0.00    +0.000 HD
ATOM     28  H   UNL     1      48.815   2.467  18.521  0.00  0.00    +0.000 HD
ENDBRANCH  21  24
ENDBRANCH  17  18
ENDBRANCH  16  17
ENDBRANCH   5  16
TORSDOF 6
ENDMDL
MODEL 6
REMARK VINA RESULT:    -7.241      3.991      8.221
REMARK INTER + INTRA:         -10.485
REMARK INTER:                  -9.797
REMARK INTRA:                  -0.688
REMARK UNBOUND:                -0.704
REMARK  Name = 
REMARK  7 active torsions:
REMARK  status: ('A' for Active; 'I' for Inactive)
REMARK    1  A    between atoms: C_1  and  O_2
REMARK    2  A    between atoms: O_2  and  C_3
REMARK    3  A    between atoms: C_8  and  C_9
REMARK    4  A    between atoms: C_13  and  C_14
REMARK    5  A    between atoms: C_14  and  O_15
REMARK    6  A    between atoms: O_15  and  C_16
REMARK    7  A    between atoms: C_19  and  C_20
REMARK                            x       y       z     vdW  Elec       q    Type
REMARK                         _______ _______ _______ _____ _____    ______ ____
ROOT
ATOM      1  C   UNL     1      45.461   5.980  11.133  0.00  0.00    +0.000 A 
ATOM      2  C   UNL     1      44.689   7.139  11.142  0.00  0.00    +0.000 A 
ATOM      3  N   UNL     1      44.889   8.171  12.006  0.00  0.00    +0.000 NA
ATOM      4  C   UNL     1      45.909   8.009  12.879  0.00  0.00    +0.000 A 
ATOM      5  C   UNL     1      46.684   6.860  12.913  0.00  0.00    +0.000 A 
ATOM      6  N   UNL     1      46.466   5.840  12.040  0.00  0.00    +0.000 NA
ENDROOT
BRANCH   1  12
ATOM      7  C   UNL     1      45.714   4.008   8.083  0.00  0.00    +0.000 A 
ATOM      8  N   UNL     1      44.999   2.892   8.288  0.00  0.00    +0.000 NA
ATOM      9  C   UNL     1      44.401   2.797   9.490  0.00  0.00    +0.000 A 
ATOM     10  C   UNL     1      44.495   3.756  10.468  0.00  0.00    +0.000 A 
ATOM     11  F   UNL     1      43.863   3.568  11.634  0.00  0.00    +0.000 F 
ATOM     12  C   UNL     1      45.254   4.876  10.174  0.00  0.00    +0.000 A 
ATOM     13  N   UNL     1      45.870   5.009   8.966  0.00  0.00    +0.000 NA
BRANCH   7  15
ATOM     14  C   UNL     1      46.590   2.971   6.185  0.00  0.00    +0.000 C 
ATOM     15  O   UNL     1      46.365   4.191   6.883  0.00  0.00    +0.000 OA
ENDBRANCH   7  15
ENDBRANCH   1  12
BRANCH   5  16
ATOM     16  C   UNL     1      47.793   6.691  13.916  0.00  0.00    +0.000 C 
BRANCH  16  17
ATOM     17  O   UNL     1      47.867   5.323  14.326  0.00  0.00    +0.000 OA
BRANCH  17  18
ATOM     18  C   UNL     1      47.965   5.102  15.669  0.00  0.00    +0.000 A 
ATOM     19  C   UNL     1      47.386   4.047  16.374  0.00  0.00    +0.000 A 
ATOM     20  C   UNL     1      47.575   3.952  17.753  0.00  0.00    +0.000 A 
ATOM     21  C   UNL     1      48.346   4.919  18.384  0.00  0.00    +0.000 A 
ATOM     22  N   UNL     1      48.944   5.954  17.732  0.00  0.00    +0.000 NA
ATOM     23  C   UNL     1      48.743   6.005  16.392  0.00  0.00    +0.000 A 
BRANCH  21  24
ATOM     24  C   UNL     1      48.552   4.849  19.865  0.00  0.00    +0.000 C 
ATOM     25  N   UNL     1      48.526   3.590  20.401  0.00  0.00    +0.000 N 
ATOM     26  O   UNL     1      48.735   5.844  20.557  0.00  0.00    +0.000 OA
ATOM     27  H   UNL     1      48.367   2.793  19.796  0.00  0.00    +0.000 HD
ATOM     28  H   UNL     1      48.653   3.466  21.395  0.00  0.00    +0.000 HD
ENDBRANCH  21  24
ENDBRANCH  17  18
ENDBRANCH  16  17
ENDBRANCH   5  16
TORSDOF 6
ENDMDL
MODEL 7
REMARK VINA RESULT:    -7.152      2.530      3.287
REMARK INTER + INTRA:         -10.364
REMARK INTER:                  -9.691
REMARK INTRA:                  -0.673
REMARK UNBOUND:                -0.704
REMARK  Name = 
REMARK  7 active torsions:
REMARK  status: ('A' for Active; 'I' for Inactive)
REMARK    1  A    between atoms: C_1  and  O_2
REMARK    2  A    between atoms: O_2  and  C_3
REMARK    3  A    between atoms: C_8  and  C_9
REMARK    4  A    between atoms: C_13  and  C_14
REMARK    5  A    between atoms: C_14  and  O_15
REMARK    6  A    between atoms: O_15  and  C_16
REMARK    7  A    between atoms: C_19  and  C_20
REMARK                            x       y       z     vdW  Elec       q    Type
REMARK                         _______ _______ _______ _____ _____    ______ ____
ROOT
ATOM      1  C   UNL     1      46.992   6.917  12.903  0.00  0.00    +0.000 A 
ATOM      2  C   UNL     1      46.088   7.925  12.577  0.00  0.00    +0.000 A 
ATOM      3  N   UNL     1      44.851   7.691  12.059  0.00  0.00    +0.000 NA
ATOM      4  C   UNL     1      44.537   6.389  11.874  0.00  0.00    +0.000 A 
ATOM      5  C   UNL     1      45.419   5.361  12.167  0.00  0.00    +0.000 A 
ATOM      6  N   UNL     1      46.651   5.618  12.684  0.00  0.00    +0.000 NA
ENDROOT
BRANCH   1  12
ATOM      7  C   UNL     1      50.402   8.149  13.231  0.00  0.00    +0.000 A 
ATOM      8  N   UNL     1      50.825   7.784  14.450  0.00  0.00    +0.000 NA
ATOM      9  C   UNL     1      49.940   7.093  15.190  0.00  0.00    +0.000 A 
ATOM     10  C   UNL     1      48.677   6.764  14.763  0.00  0.00    +0.000 A 
ATOM     11  F   UNL     1      47.868   6.072  15.575  0.00  0.00    +0.000 F 
ATOM     12  C   UNL     1      48.321   7.180  13.490  0.00  0.00    +0.000 A 
ATOM     13  N   UNL     1      49.193   7.878  12.710  0.00  0.00    +0.000 NA
BRANCH   7  15
ATOM     14  C   UNL     1      51.298   8.331  11.084  0.00  0.00    +0.000 C 
ATOM     15  O   UNL     1      51.239   8.863  12.403  0.00  0.00    +0.000 OA
ENDBRANCH   7  15
ENDBRANCH   1  12
BRANCH   5  16
ATOM     16  C   UNL     1      45.056   3.920  11.922  0.00  0.00    +0.000 C 
BRANCH  16  17
ATOM     17  O   UNL     1      44.323   3.811  10.699  0.00  0.00    +0.000 OA
BRANCH  17  18
ATOM     18  C   UNL     1      45.040   3.432   9.600  0.00  0.00    +0.000 A 
ATOM     19  C   UNL     1      45.312   2.123   9.206  0.00  0.00    +0.000 A 
ATOM     20  C   UNL     1      46.063   1.891   8.053  0.00  0.00    +0.000 A 
ATOM     21  C   UNL     1      46.516   2.983   7.326  0.00  0.00    +0.000 A 
ATOM     22  N   UNL     1      46.257   4.276   7.665  0.00  0.00    +0.000 NA
ATOM     23  C   UNL     1      45.518   4.459   8.787  0.00  0.00    +0.000 A 
BRANCH  21  24
ATOM     24  C   UNL     1      47.335   2.762   6.094  0.00  0.00    +0.000 C 
ATOM     25  N   UNL     1      48.658   2.489   6.310  0.00  0.00    +0.000 N 
ATOM     26  O   UNL     1      46.861   2.816   4.964  0.00  0.00    +0.000 OA
ATOM     27  H   UNL     1      49.013   2.457   7.259  0.00  0.00    +0.000 HD
ATOM     28  H   UNL     1      49.273   2.333   5.525  0.00  0.00    +0.000 HD
ENDBRANCH  21  24
ENDBRANCH  17  18
ENDBRANCH  16  17
ENDBRANCH   5  16
TORSDOF 6
ENDMDL
MODEL 8
REMARK VINA RESULT:    -6.755      5.061      8.063
REMARK INTER + INTRA:          -9.829
REMARK INTER:                  -9.273
REMARK INTRA:                  -0.556
REMARK UNBOUND:                -0.704
REMARK  Name = 
REMARK  7 active torsions:
REMARK  status: ('A' for Active; 'I' for Inactive)
REMARK    1  A    between atoms: C_1  and  O_2
REMARK    2  A    between atoms: O_2  and  C_3
REMARK    3  A    between atoms: C_8  and  C_9
REMARK    4  A    between atoms: C_13  and  C_14
REMARK    5  A    between atoms: C_14  and  O_15
REMARK    6  A    between atoms: O_15  and  C_16
REMARK    7  A    between atoms: C_19  and  C_20
REMARK                            x       y       z     vdW  Elec       q    Type
REMARK                         _______ _______ _______ _____ _____    ______ ____
ROOT
ATOM      1  C   UNL     1      46.169   5.156  13.163  0.00  0.00    +0.000 A 
ATOM      2  C   UNL     1      46.842   6.376  13.183  0.00  0.00    +0.000 A 
ATOM      3  N   UNL     1      47.742   6.725  14.142  0.00  0.00    +0.000 NA
ATOM      4  C   UNL     1      47.957   5.798  15.102  0.00  0.00    +0.000 A 
ATOM      5  C   UNL     1      47.289   4.583  15.127  0.00  0.00    +0.000 A 
ATOM      6  N   UNL     1      46.393   4.254  14.157  0.00  0.00    +0.000 NA
ENDROOT
BRANCH   1  12
ATOM      7  C   UNL     1      44.821   4.533   9.840  0.00  0.00    +0.000 A 
ATOM      8  N   UNL     1      43.573   4.072  10.013  0.00  0.00    +0.000 NA
ATOM      9  C   UNL     1      43.162   3.972  11.291  0.00  0.00    +0.000 A 
ATOM     10  C   UNL     1      43.938   4.308  12.372  0.00  0.00    +0.000 A 
ATOM     11  F   UNL     1      43.438   4.173  13.606  0.00  0.00    +0.000 F 
ATOM     12  C   UNL     1      45.215   4.775  12.103  0.00  0.00    +0.000 A 
ATOM     13  N   UNL     1      45.663   4.894  10.822  0.00  0.00    +0.000 NA
BRANCH   7  15
ATOM     14  C   UNL     1      45.142   3.499   7.773  0.00  0.00    +0.000 C 
ATOM     15  O   UNL     1      45.329   4.665   8.567  0.00  0.00    +0.000 OA
ENDBRANCH   7  15
ENDBRANCH   1  12
BRANCH   5  16
ATOM     16  C   UNL     1      47.523   3.581  16.225  0.00  0.00    +0.000 C 
BRANCH  16  17
ATOM     17  O   UNL     1      48.387   4.145  17.215  0.00  0.00    +0.000 OA
BRANCH  17  18
ATOM     18  C   UNL     1      49.592   3.526  17.385  0.00  0.00    +0.000 A 
ATOM     19  C   UNL     1      50.749   4.107  17.902  0.00  0.00    +0.000 A 
ATOM     20  C   UNL     1      51.912   3.344  18.016  0.00  0.00    +0.000 A 
ATOM     21  C   UNL     1      51.876   2.017  17.611  0.00  0.00    +0.000 A 
ATOM     22  N   UNL     1      50.763   1.406  17.118  0.00  0.00    +0.000 NA
ATOM     23  C   UNL     1      49.652   2.179  17.032  0.00  0.00    +0.000 A 
BRANCH  21  24
ATOM     24  C   UNL     1      53.114   1.181  17.709  0.00  0.00    +0.000 C 
ATOM     25  N   UNL     1      53.859   1.367  18.841  0.00  0.00    +0.000 N 
ATOM     26  O   UNL     1      53.443   0.380  16.841  0.00  0.00    +0.000 OA
ATOM     27  H   UNL     1      53.555   2.042  19.534  0.00  0.00    +0.000 HD
ATOM     28  H   UNL     1      54.710   0.841  18.973  0.00  0.00    +0.000 HD
ENDBRANCH  21  24
ENDBRANCH  17  18
ENDBRANCH  16  17
ENDBRANCH   5  16
TORSDOF 6
ENDMDL
MODEL 9
REMARK VINA RESULT:    -6.316      4.147      6.742
REMARK INTER + INTRA:          -9.236
REMARK INTER:                  -8.440
REMARK INTRA:                  -0.795
REMARK UNBOUND:                -0.704
REMARK  Name = 
REMARK  7 active torsions:
REMARK  status: ('A' for Active; 'I' for Inactive)
REMARK    1  A    between atoms: C_1  and  O_2
REMARK    2  A    between atoms: O_2  and  C_3
REMARK    3  A    between atoms: C_8  and  C_9
REMARK    4  A    between atoms: C_13  and  C_14
REMARK    5  A    between atoms: C_14  and  O_15
REMARK    6  A    between atoms: O_15  and  C_16
REMARK    7  A    between atoms: C_19  and  C_20
REMARK                            x       y       z     vdW  Elec       q    Type
REMARK                         _______ _______ _______ _____ _____    ______ ____
ROOT
ATOM      1  C   UNL     1      49.536   6.601  15.853  0.00  0.00    +0.000 A 
ATOM      2  C   UNL     1      50.669   7.410  15.873  0.00  0.00    +0.000 A 
ATOM      3  N   UNL     1      50.964   8.320  14.905  0.00  0.00    +0.000 NA
ATOM      4  C   UNL     1      50.070   8.402  13.895  0.00  0.00    +0.000 A 
ATOM      5  C   UNL     1      48.943   7.599  13.830  0.00  0.00    +0.000 A 
ATOM      6  N   UNL     1      48.668   6.694  14.809  0.00  0.00    +0.000 NA
ENDROOT
BRANCH   1  12
ATOM      7  C   UNL     1      49.171   3.426  17.597  0.00  0.00    +0.000 A 
ATOM      8  N   UNL     1      48.691   3.712  18.816  0.00  0.00    +0.000 NA
ATOM      9  C   UNL     1      48.473   5.016  19.064  0.00  0.00    +0.000 A 
ATOM     10  C   UNL     1      48.714   6.018  18.156  0.00  0.00    +0.000 A 
ATOM     11  F   UNL     1      48.464   7.288  18.499  0.00  0.00    +0.000 F 
ATOM     12  C   UNL     1      49.210   5.635  16.921  0.00  0.00    +0.000 A 
ATOM     13  N   UNL     1      49.439   4.323  16.632  0.00  0.00    +0.000 NA
BRANCH   7  15
ATOM     14  C   UNL     1      50.812   1.791  17.324  0.00  0.00    +0.000 C 
ATOM     15  O   UNL     1      49.429   2.118  17.254  0.00  0.00    +0.000 OA
ENDBRANCH   7  15
ENDBRANCH   1  12
BRANCH   5  16
ATOM     16  C   UNL     1      47.980   7.688  12.676  0.00  0.00    +0.000 C 
BRANCH  16  17
ATOM     17  O   UNL     1      46.663   7.348  13.121  0.00  0.00    +0.000 OA
BRANCH  17  18
ATOM     18  C   UNL     1      46.053   6.319  12.464  0.00  0.00    +0.000 A 
ATOM     19  C   UNL     1      45.811   6.247  11.093  0.00  0.00    +0.000 A 
ATOM     20  C   UNL     1      45.174   5.124  10.562  0.00  0.00    +0.000 A 
ATOM     21  C   UNL     1      44.803   4.103  11.426  0.00  0.00    +0.000 A 
ATOM     22  N   UNL     1      45.037   4.125  12.767  0.00  0.00    +0.000 NA
ATOM     23  C   UNL     1      45.666   5.229  13.242  0.00  0.00    +0.000 A 
BRANCH  21  24
ATOM     24  C   UNL     1      44.105   2.895  10.885  0.00  0.00    +0.000 C 
ATOM     25  N   UNL     1      43.288   2.245  11.768  0.00  0.00    +0.000 N 
ATOM     26  O   UNL     1      44.247   2.510   9.729  0.00  0.00    +0.000 OA
ATOM     27  H   UNL     1      43.201   2.591  12.717  0.00  0.00    +0.000 HD
ATOM     28  H   UNL     1      42.789   1.418  11.474  0.00  0.00    +0.000 HD
ENDBRANCH  21  24
ENDBRANCH  17  18
ENDBRANCH  16  17
ENDBRANCH   5  16
TORSDOF 6
ENDMDL
