MODEL 1
REMARK VINA RESULT:    -7.771      0.000      0.000
REMARK INTER + INTRA:         -12.701
REMARK INTER:                 -11.633
REMARK INTRA:                  -1.068
REMARK UNBOUND:                -1.068
REMARK  Name = 
REMARK  9 active torsions:
REMARK  status: ('A' for Active; 'I' for Inactive)
REMARK    1  A    between atoms: C_2  and  C_22
REMARK    2  A    between atoms: N_3  and  C_4
REMARK    3  A    between atoms: C_4  and  C_5
REMARK    4  A    between atoms: C_8  and  C_9
REMARK    5  A    between atoms: C_9  and  N_10
REMARK    6  A    between atoms: N_10  and  C_11
REMARK    7  A    between atoms: C_11  and  C_12
REMARK    8  A    between atoms: C_15  and  C_16
REMARK    9  A    between atoms: C_16  and  O_17
REMARK                            x       y       z     vdW  Elec       q    Type
REMARK                         _______ _______ _______ _____ _____    ______ ____
ROOT
ATOM      1  C   UNL     1      46.516   6.287  12.865  0.00  0.00    +0.000 A 
ATOM      2  C   UNL     1      46.054   5.192  13.598  0.00  0.00    +0.000 A 
ATOM      3  C   UNL     1      45.010   4.412  13.097  0.00  0.00    +0.000 A 
ATOM      4  C   UNL     1      44.442   4.753  11.872  0.00  0.00    +0.000 A 
ATOM      5  N   UNL     1      44.856   5.830  11.153  0.00  0.00    +0.000 NA
ATOM      6  C   UNL     1      45.868   6.567  11.665  0.00  0.00    +0.000 A 
ENDROOT
BRANCH   1   7
ATOM      7  C   UNL     1      47.640   7.152  13.357  0.00  0.00    +0.000 C 
BRANCH   7  10
ATOM      8  O   UNL     1      50.183   7.145  14.479  0.00  0.00    +0.000 OA
ATOM      9  C   UNL     1      49.219   6.983  15.221  0.00  0.00    +0.000 C 
ATOM     10  N   UNL     1      47.935   6.893  14.742  0.00  0.00    +0.000 N 
ATOM     11  H   UNL     1      47.162   6.971  15.395  0.00  0.00    +0.000 HD
BRANCH   9  12
ATOM     12  C   UNL     1      49.379   6.836  16.673  0.00  0.00    +0.000 A 
ATOM     13  C   UNL     1      49.857   7.897  17.431  0.00  0.00    +0.000 A 
ATOM     14  S   UNL     1      49.994   7.542  19.094  0.00  0.00    +0.000 S 
ATOM     15  C   UNL     1      49.374   5.973  18.868  0.00  0.00    +0.000 A 
ATOM     16  N   UNL     1      49.199   5.131  19.920  0.00  0.00    +0.000 NA
ATOM     17  C   UNL     1      48.687   3.986  19.608  0.00  0.00    +0.000 A 
ATOM     18  N   UNL     1      48.342   3.606  18.337  0.00  0.00    +0.000 N 
ATOM     19  C   UNL     1      48.532   4.411  17.242  0.00  0.00    +0.000 A 
ATOM     20  O   UNL     1      48.264   4.021  16.109  0.00  0.00    +0.000 OA
ATOM     21  C   UNL     1      49.087   5.717  17.539  0.00  0.00    +0.000 A 
ATOM     22  H   UNL     1      47.954   2.691  18.157  0.00  0.00    +0.000 HD
ENDBRANCH   9  12
ENDBRANCH   7  10
ENDBRANCH   1   7
BRANCH   4  23
ATOM     23  C   UNL     1      43.328   3.904  11.281  0.00  0.00    +0.000 C 
BRANCH  23  24
ATOM     24  N   UNL     1      43.741   2.540  10.905  0.00  0.00    +0.000 NA
ATOM     25  H   UNL     1      42.990   2.160  10.324  0.00  0.00    +0.000 HD
BRANCH  24  26
ATOM     26  C   UNL     1      44.987   2.528  10.133  0.00  0.00    +0.000 C 
BRANCH  26  27
ATOM     27  C   UNL     1      44.723   2.253   8.632  0.00  0.00    +0.000 C 
ATOM     28  C   UNL     1      44.898   3.535   7.799  0.00  0.00    +0.000 C 
ATOM     29  C   UNL     1      46.362   3.952   7.643  0.00  0.00    +0.000 C 
ATOM     30  C   UNL     1      47.254   2.831   7.083  0.00  0.00    +0.000 C 
ATOM     31  C   UNL     1      47.057   1.526   7.870  0.00  0.00    +0.000 C 
ATOM     32  C   UNL     1      45.590   1.130   8.038  0.00  0.00    +0.000 C 
BRANCH  30  33
ATOM     33  C   UNL     1      47.048   2.619   5.575  0.00  0.00    +0.000 C 
BRANCH  33  34
ATOM     34  O   UNL     1      48.247   2.132   4.981  0.00  0.00    +0.000 OA
ATOM     35  H   UNL     1      48.178   2.274   4.022  0.00  0.00    +0.000 HD
ENDBRANCH  33  34
ENDBRANCH  30  33
ENDBRANCH  26  27
ENDBRANCH  24  26
ENDBRANCH  23  24
ENDBRANCH   4  23
TORSDOF 9
ENDMDL
MODEL 2
REMARK VINA RESULT:    -7.076      3.111      9.010
REMARK INTER + INTRA:         -11.660
REMARK INTER:                  -9.943
REMARK INTRA:                  -1.717
REMARK UNBOUND:                -1.068
REMARK  Name = 
REMARK  9 active torsions:
REMARK  status: ('A' for Active; 'I' for Inactive)
REMARK    1  A    between atoms: C_2  and  C_22
REMARK    2  A    between atoms: N_3  and  C_4
REMARK    3  A    between atoms: C_4  and  C_5
REMARK    4  A    between atoms: C_8  and  C_9
REMARK    5  A    between atoms: C_9  and  N_10
REMARK    6  A    between atoms: N_10  and  C_11
REMARK    7  A    between atoms: C_11  and  C_12
REMARK    8  A    between atoms: C_15  and  C_16
REMARK    9  A    between atoms: C_16  and  O_17
REMARK                            x       y       z     vdW  Elec       q    Type
REMARK                         _______ _______ _______ _____ _____    ______ ____
ROOT
ATOM      1  C   UNL     1      48.609   8.243  13.160  0.00  0.00    +0.000 A 
ATOM      2  C   UNL     1      47.806   8.885  14.105  0.00  0.00    +0.000 A 
ATOM      3  C   UNL     1      48.331   9.204  15.359  0.00  0.00    +0.000 A 
ATOM      4  C   UNL     1      49.651   8.860  15.644  0.00  0.00    +0.000 A 
ATOM      5  N   UNL     1      50.443   8.210  14.751  0.00  0.00    +0.000 NA
ATOM      6  C   UNL     1      49.905   7.915  13.546  0.00  0.00    +0.000 A 
ENDROOT
BRANCH   1   7
ATOM      7  C   UNL     1      48.093   7.886  11.796  0.00  0.00    +0.000 C 
BRANCH   7  10
ATOM      8  O   UNL     1      45.314   7.847  11.833  0.00  0.00    +0.000 OA
ATOM      9  C   UNL     1      45.911   6.775  11.777  0.00  0.00    +0.000 C 
ATOM     10  N   UNL     1      47.280   6.698  11.835  0.00  0.00    +0.000 N 
ATOM     11  H   UNL     1      47.733   5.828  11.576  0.00  0.00    +0.000 HD
BRANCH   9  12
ATOM     12  C   UNL     1      45.194   5.498  11.683  0.00  0.00    +0.000 A 
ATOM     13  C   UNL     1      44.480   5.019  12.774  0.00  0.00    +0.000 A 
ATOM     14  S   UNL     1      43.725   3.516  12.490  0.00  0.00    +0.000 S 
ATOM     15  C   UNL     1      44.284   3.474  10.882  0.00  0.00    +0.000 A 
ATOM     16  N   UNL     1      43.961   2.446  10.055  0.00  0.00    +0.000 NA
ATOM     17  C   UNL     1      44.424   2.562   8.853  0.00  0.00    +0.000 A 
ATOM     18  N   UNL     1      45.185   3.611   8.409  0.00  0.00    +0.000 N 
ATOM     19  C   UNL     1      45.563   4.653   9.219  0.00  0.00    +0.000 A 
ATOM     20  O   UNL     1      46.292   5.550   8.806  0.00  0.00    +0.000 OA
ATOM     21  C   UNL     1      45.055   4.581  10.575  0.00  0.00    +0.000 A 
ATOM     22  H   UNL     1      45.525   3.638   7.458  0.00  0.00    +0.000 HD
ENDBRANCH   9  12
ENDBRANCH   7  10
ENDBRANCH   1   7
BRANCH   4  23
ATOM     23  C   UNL     1      50.264   9.224  16.987  0.00  0.00    +0.000 C 
BRANCH  23  24
ATOM     24  N   UNL     1      50.880   8.090  17.699  0.00  0.00    +0.000 NA
ATOM     25  H   UNL     1      51.629   8.482  18.274  0.00  0.00    +0.000 HD
BRANCH  24  26
ATOM     26  C   UNL     1      49.927   7.399  18.574  0.00  0.00    +0.000 C 
BRANCH  26  27
ATOM     27  C   UNL     1      50.048   5.861  18.442  0.00  0.00    +0.000 C 
ATOM     28  C   UNL     1      48.965   5.151  19.273  0.00  0.00    +0.000 C 
ATOM     29  C   UNL     1      47.568   5.267  18.658  0.00  0.00    +0.000 C 
ATOM     30  C   UNL     1      47.509   4.794  17.196  0.00  0.00    +0.000 C 
ATOM     31  C   UNL     1      48.616   5.454  16.359  0.00  0.00    +0.000 C 
ATOM     32  C   UNL     1      50.004   5.350  16.992  0.00  0.00    +0.000 C 
BRANCH  30  33
ATOM     33  C   UNL     1      47.545   3.263  17.075  0.00  0.00    +0.000 C 
BRANCH  33  34
ATOM     34  O   UNL     1      46.454   2.690  17.789  0.00  0.00    +0.000 OA
ATOM     35  H   UNL     1      45.655   3.193  17.557  0.00  0.00    +0.000 HD
ENDBRANCH  33  34
ENDBRANCH  30  33
ENDBRANCH  26  27
ENDBRANCH  24  26
ENDBRANCH  23  24
ENDBRANCH   4  23
TORSDOF 9
ENDMDL
MODEL 3
REMARK VINA RESULT:    -6.756      2.050      2.380
REMARK INTER + INTRA:         -11.182
REMARK INTER:                 -10.176
REMARK INTRA:                  -1.006
REMARK UNBOUND:                -1.068
REMARK  Name = 
REMARK  9 active torsions:
REMARK  status: ('A' for Active; 'I' for Inactive)
REMARK    1  A    between atoms: C_2  and  C_22
REMARK    2  A    between atoms: N_3  and  C_4
REMARK    3  A    between atoms: C_4  and  C_5
REMARK    4  A    between atoms: C_8  and  C_9
REMARK    5  A    between atoms: C_9  and  N_10
REMARK    6  A    between atoms: N_10  and  C_11
REMARK    7  A    between atoms: C_11  and  C_12
REMARK    8  A    between atoms: C_15  and  C_16
REMARK    9  A    between atoms: C_16  and  O_17
REMARK                            x       y       z     vdW  Elec       q    Type
REMARK                         _______ _______ _______ _____ _____    ______ ____
ROOT
ATOM      1  C   UNL     1      46.447   7.252  12.393  0.00  0.00    +0.000 A 
ATOM      2  C   UNL     1      46.656   6.178  13.261  0.00  0.00    +0.000 A 
ATOM      3  C   UNL     1      45.841   5.049  13.176  0.00  0.00    +0.000 A 
ATOM      4  C   UNL     1      44.821   5.023  12.227  0.00  0.00    +0.000 A 
ATOM      5  N   UNL     1      44.581   6.067  11.390  0.00  0.00    +0.000 NA
ATOM      6  C   UNL     1      45.387   7.147  11.497  0.00  0.00    +0.000 A 
ENDROOT
BRANCH   1   7
ATOM      7  C   UNL     1      47.302   8.485  12.439  0.00  0.00    +0.000 C 
BRANCH   7  10
ATOM      8  O   UNL     1      48.544   9.802  14.548  0.00  0.00    +0.000 OA
ATOM      9  C   UNL     1      49.124   8.850  14.035  0.00  0.00    +0.000 C 
ATOM     10  N   UNL     1      48.620   8.193  12.939  0.00  0.00    +0.000 N 
ATOM     11  H   UNL     1      49.017   7.295  12.682  0.00  0.00    +0.000 HD
BRANCH   9  12
ATOM     12  C   UNL     1      50.418   8.373  14.537  0.00  0.00    +0.000 A 
ATOM     13  C   UNL     1      51.594   8.983  14.120  0.00  0.00    +0.000 A 
ATOM     14  S   UNL     1      52.999   8.289  14.792  0.00  0.00    +0.000 S 
ATOM     15  C   UNL     1      52.085   7.178  15.703  0.00  0.00    +0.000 A 
ATOM     16  N   UNL     1      52.688   6.293  16.537  0.00  0.00    +0.000 NA
ATOM     17  C   UNL     1      51.872   5.535  17.193  0.00  0.00    +0.000 A 
ATOM     18  N   UNL     1      50.507   5.580  17.081  0.00  0.00    +0.000 N 
ATOM     19  C   UNL     1      49.857   6.435  16.226  0.00  0.00    +0.000 A 
ATOM     20  O   UNL     1      48.635   6.413  16.109  0.00  0.00    +0.000 OA
ATOM     21  C   UNL     1      50.727   7.322  15.479  0.00  0.00    +0.000 A 
ATOM     22  H   UNL     1      49.922   4.953  17.615  0.00  0.00    +0.000 HD
ENDBRANCH   9  12
ENDBRANCH   7  10
ENDBRANCH   1   7
BRANCH   4  23
ATOM     23  C   UNL     1      43.938   3.794  12.084  0.00  0.00    +0.000 C 
BRANCH  23  24
ATOM     24  N   UNL     1      43.711   3.370  10.691  0.00  0.00    +0.000 NA
ATOM     25  H   UNL     1      43.542   4.223  10.153  0.00  0.00    +0.000 HD
BRANCH  24  26
ATOM     26  C   UNL     1      44.871   2.676  10.124  0.00  0.00    +0.000 C 
BRANCH  26  27
ATOM     27  C   UNL     1      44.650   2.326   8.632  0.00  0.00    +0.000 C 
ATOM     28  C   UNL     1      44.772   3.580   7.749  0.00  0.00    +0.000 C 
ATOM     29  C   UNL     1      46.215   4.069   7.600  0.00  0.00    +0.000 C 
ATOM     30  C   UNL     1      47.176   2.976   7.102  0.00  0.00    +0.000 C 
ATOM     31  C   UNL     1      47.034   1.696   7.940  0.00  0.00    +0.000 C 
ATOM     32  C   UNL     1      45.587   1.228   8.100  0.00  0.00    +0.000 C 
BRANCH  30  33
ATOM     33  C   UNL     1      47.010   2.691   5.602  0.00  0.00    +0.000 C 
BRANCH  33  34
ATOM     34  O   UNL     1      48.284   2.487   4.999  0.00  0.00    +0.000 OA
ATOM     35  H   UNL     1      48.311   1.571   4.675  0.00  0.00    +0.000 HD
ENDBRANCH  33  34
ENDBRANCH  30  33
ENDBRANCH  26  27
ENDBRANCH  24  26
ENDBRANCH  23  24
ENDBRANCH   4  23
TORSDOF 9
ENDMDL
MODEL 4
REMARK VINA RESULT:    -6.659      3.311      4.593
REMARK INTER + INTRA:         -11.035
REMARK INTER:                  -9.550
REMARK INTRA:                  -1.485
REMARK UNBOUND:                -1.068
REMARK  Name = 
REMARK  9 active torsions:
REMARK  status: ('A' for Active; 'I' for Inactive)
REMARK    1  A    between atoms: C_2  and  C_22
REMARK    2  A    between atoms: N_3  and  C_4
REMARK    3  A    between atoms: C_4  and  C_5
REMARK    4  A    between atoms: C_8  and  C_9
REMARK    5  A    between atoms: C_9  and  N_10
REMARK    6  A    between atoms: N_10  and  C_11
REMARK    7  A    between atoms: C_11  and  C_12
REMARK    8  A    between atoms: C_15  and  C_16
REMARK    9  A    between atoms: C_16  and  O_17
REMARK                            x       y       z     vdW  Elec       q    Type
REMARK                         _______ _______ _______ _____ _____    ______ ____
ROOT
ATOM      1  C   UNL     1      49.770   8.458  13.604  0.00  0.00    +0.000 A 
ATOM      2  C   UNL     1      49.426   7.877  12.382  0.00  0.00    +0.000 A 
ATOM      3  C   UNL     1      48.223   8.225  11.764  0.00  0.00    +0.000 A 
ATOM      4  C   UNL     1      47.383   9.141  12.392  0.00  0.00    +0.000 A 
ATOM      5  N   UNL     1      47.684   9.698  13.594  0.00  0.00    +0.000 NA
ATOM      6  C   UNL     1      48.855   9.341  14.168  0.00  0.00    +0.000 A 
ENDROOT
BRANCH   1   7
ATOM      7  C   UNL     1      51.055   8.123  14.305  0.00  0.00    +0.000 C 
BRANCH   7  10
ATOM      8  O   UNL     1      50.521   8.422  17.016  0.00  0.00    +0.000 OA
ATOM      9  C   UNL     1      50.545   7.287  16.550  0.00  0.00    +0.000 C 
ATOM     10  N   UNL     1      50.879   7.043  15.240  0.00  0.00    +0.000 N 
ATOM     11  H   UNL     1      50.683   6.128  14.848  0.00  0.00    +0.000 HD
BRANCH   9  12
ATOM     12  C   UNL     1      50.255   6.108  17.374  0.00  0.00    +0.000 A 
ATOM     13  C   UNL     1      50.997   5.863  18.523  0.00  0.00    +0.000 A 
ATOM     14  S   UNL     1      50.533   4.443  19.346  0.00  0.00    +0.000 S 
ATOM     15  C   UNL     1      49.292   4.129  18.223  0.00  0.00    +0.000 A 
ATOM     16  N   UNL     1      48.474   3.054  18.366  0.00  0.00    +0.000 NA
ATOM     17  C   UNL     1      47.555   2.958  17.462  0.00  0.00    +0.000 A 
ATOM     18  N   UNL     1      47.386   3.839  16.426  0.00  0.00    +0.000 N 
ATOM     19  C   UNL     1      48.209   4.919  16.224  0.00  0.00    +0.000 A 
ATOM     20  O   UNL     1      48.065   5.659  15.255  0.00  0.00    +0.000 OA
ATOM     21  C   UNL     1      49.248   5.084  17.223  0.00  0.00    +0.000 A 
ATOM     22  H   UNL     1      46.652   3.704  15.744  0.00  0.00    +0.000 HD
ENDBRANCH   9  12
ENDBRANCH   7  10
ENDBRANCH   1   7
BRANCH   4  23
ATOM     23  C   UNL     1      46.083   9.568  11.729  0.00  0.00    +0.000 C 
BRANCH  23  24
ATOM     24  N   UNL     1      44.888   8.871  12.235  0.00  0.00    +0.000 NA
ATOM     25  H   UNL     1      44.137   9.564  12.261  0.00  0.00    +0.000 HD
BRANCH  24  26
ATOM     26  C   UNL     1      44.477   7.765  11.364  0.00  0.00    +0.000 C 
BRANCH  26  27
ATOM     27  C   UNL     1      45.142   6.432  11.787  0.00  0.00    +0.000 C 
ATOM     28  C   UNL     1      44.459   5.849  13.038  0.00  0.00    +0.000 C 
ATOM     29  C   UNL     1      43.074   5.266  12.746  0.00  0.00    +0.000 C 
ATOM     30  C   UNL     1      43.082   4.226  11.613  0.00  0.00    +0.000 C 
ATOM     31  C   UNL     1      43.804   4.770  10.371  0.00  0.00    +0.000 C 
ATOM     32  C   UNL     1      45.178   5.369  10.676  0.00  0.00    +0.000 C 
BRANCH  30  33
ATOM     33  C   UNL     1      43.666   2.878  12.063  0.00  0.00    +0.000 C 
BRANCH  33  34
ATOM     34  O   UNL     1      42.834   1.811  11.616  0.00  0.00    +0.000 OA
ATOM     35  H   UNL     1      42.328   2.134  10.852  0.00  0.00    +0.000 HD
ENDBRANCH  33  34
ENDBRANCH  30  33
ENDBRANCH  26  27
ENDBRANCH  24  26
ENDBRANCH  23  24
ENDBRANCH   4  23
TORSDOF 9
ENDMDL
MODEL 5
REMARK VINA RESULT:    -6.556      3.917      8.950
REMARK INTER + INTRA:         -10.882
REMARK INTER:                  -9.139
REMARK INTRA:                  -1.743
REMARK UNBOUND:                -1.068
REMARK  Name = 
REMARK  9 active torsions:
REMARK  status: ('A' for Active; 'I' for Inactive)
REMARK    1  A    between atoms: C_2  and  C_22
REMARK    2  A    between atoms: N_3  and  C_4
REMARK    3  A    between atoms: C_4  and  C_5
REMARK    4  A    between atoms: C_8  and  C_9
REMARK    5  A    between atoms: C_9  and  N_10
REMARK    6  A    between atoms: N_10  and  C_11
REMARK    7  A    between atoms: C_11  and  C_12
REMARK    8  A    between atoms: C_15  and  C_16
REMARK    9  A    between atoms: C_16  and  O_17
REMARK                            x       y       z     vdW  Elec       q    Type
REMARK                         _______ _______ _______ _____ _____    ______ ____
ROOT
ATOM      1  C   UNL     1      48.279   4.038  17.575  0.00  0.00    +0.000 A 
ATOM      2  C   UNL     1      48.024   5.025  18.528  0.00  0.00    +0.000 A 
ATOM      3  C   UNL     1      49.060   5.490  19.341  0.00  0.00    +0.000 A 
ATOM      4  C   UNL     1      50.332   4.944  19.188  0.00  0.00    +0.000 A 
ATOM      5  N   UNL     1      50.600   3.963  18.286  0.00  0.00    +0.000 NA
ATOM      6  C   UNL     1      49.575   3.533  17.515  0.00  0.00    +0.000 A 
ENDROOT
BRANCH   1   7
ATOM      7  C   UNL     1      47.202   3.511  16.673  0.00  0.00    +0.000 C 
BRANCH   7  10
ATOM      8  O   UNL     1      47.248   3.207  13.910  0.00  0.00    +0.000 OA
ATOM      9  C   UNL     1      46.770   4.239  14.374  0.00  0.00    +0.000 C 
ATOM     10  N   UNL     1      46.779   4.506  15.721  0.00  0.00    +0.000 N 
ATOM     11  H   UNL     1      46.195   5.256  16.075  0.00  0.00    +0.000 HD
BRANCH   9  12
ATOM     12  C   UNL     1      46.190   5.275  13.513  0.00  0.00    +0.000 A 
ATOM     13  C   UNL     1      46.918   6.420  13.215  0.00  0.00    +0.000 A 
ATOM     14  S   UNL     1      46.082   7.521  12.216  0.00  0.00    +0.000 S 
ATOM     15  C   UNL     1      44.735   6.486  12.104  0.00  0.00    +0.000 A 
ATOM     16  N   UNL     1      43.653   6.823  11.355  0.00  0.00    +0.000 NA
ATOM     17  C   UNL     1      42.720   5.928  11.332  0.00  0.00    +0.000 A 
ATOM     18  N   UNL     1      42.771   4.731  11.998  0.00  0.00    +0.000 N 
ATOM     19  C   UNL     1      43.828   4.365  12.793  0.00  0.00    +0.000 A 
ATOM     20  O   UNL     1      43.820   3.310  13.420  0.00  0.00    +0.000 OA
ATOM     21  C   UNL     1      44.913   5.327  12.838  0.00  0.00    +0.000 A 
ATOM     22  H   UNL     1      42.003   4.077  11.948  0.00  0.00    +0.000 HD
ENDBRANCH   9  12
ENDBRANCH   7  10
ENDBRANCH   1   7
BRANCH   4  23
ATOM     23  C   UNL     1      51.490   5.452  20.032  0.00  0.00    +0.000 C 
BRANCH  23  24
ATOM     24  N   UNL     1      52.477   6.254  19.287  0.00  0.00    +0.000 NA
ATOM     25  H   UNL     1      52.835   5.653  18.541  0.00  0.00    +0.000 HD
BRANCH  24  26
ATOM     26  C   UNL     1      51.880   7.450  18.682  0.00  0.00    +0.000 C 
BRANCH  26  27
ATOM     27  C   UNL     1      52.430   7.701  17.257  0.00  0.00    +0.000 C 
ATOM     28  C   UNL     1      51.908   6.641  16.271  0.00  0.00    +0.000 C 
ATOM     29  C   UNL     1      50.430   6.827  15.920  0.00  0.00    +0.000 C 
ATOM     30  C   UNL     1      50.104   8.239  15.403  0.00  0.00    +0.000 C 
ATOM     31  C   UNL     1      50.662   9.314  16.348  0.00  0.00    +0.000 C 
ATOM     32  C   UNL     1      52.134   9.106  16.708  0.00  0.00    +0.000 C 
BRANCH  30  33
ATOM     33  C   UNL     1      50.579   8.455  13.957  0.00  0.00    +0.000 C 
BRANCH  33  34
ATOM     34  O   UNL     1      50.264   7.315  13.164  0.00  0.00    +0.000 OA
ATOM     35  H   UNL     1      50.866   6.598  13.429  0.00  0.00    +0.000 HD
ENDBRANCH  33  34
ENDBRANCH  30  33
ENDBRANCH  26  27
ENDBRANCH  24  26
ENDBRANCH  23  24
ENDBRANCH   4  23
TORSDOF 9
ENDMDL
MODEL 6
REMARK VINA RESULT:    -6.286      3.215      4.299
REMARK INTER + INTRA:         -10.478
REMARK INTER:                  -9.413
REMARK INTRA:                  -1.065
REMARK UNBOUND:                -1.068
REMARK  Name = 
REMARK  9 active torsions:
REMARK  status: ('A' for Active; 'I' for Inactive)
REMARK    1  A    between atoms: C_2  and  C_22
REMARK    2  A    between atoms: N_3  and  C_4
REMARK    3  A    between atoms: C_4  and  C_5
REMARK    4  A    between atoms: C_8  and  C_9
REMARK    5  A    between atoms: C_9  and  N_10
REMARK    6  A    between atoms: N_10  and  C_11
REMARK    7  A    between atoms: C_11  and  C_12
REMARK    8  A    between atoms: C_15  and  C_16
REMARK    9  A    between atoms: C_16  and  O_17
REMARK                            x       y       z     vdW  Elec       q    Type
REMARK                         _______ _______ _______ _____ _____    ______ ____
ROOT
ATOM      1  C   UNL     1      46.551   7.377  12.362  0.00  0.00    +0.000 A 
ATOM      2  C   UNL     1      46.867   6.326  13.225  0.00  0.00    +0.000 A 
ATOM      3  C   UNL     1      46.127   5.143  13.176  0.00  0.00    +0.000 A 
ATOM      4  C   UNL     1      45.076   5.042  12.267  0.00  0.00    +0.000 A 
ATOM      5  N   UNL     1      44.733   6.061  11.436  0.00  0.00    +0.000 NA
ATOM      6  C   UNL     1      45.467   7.195  11.509  0.00  0.00    +0.000 A 
ENDROOT
BRANCH   1   7
ATOM      7  C   UNL     1      47.321   8.666  12.371  0.00  0.00    +0.000 C 
BRANCH   7  10
ATOM      8  O   UNL     1      48.762   9.910  14.396  0.00  0.00    +0.000 OA
ATOM      9  C   UNL     1      49.326   9.051  13.724  0.00  0.00    +0.000 C 
ATOM     10  N   UNL     1      48.715   8.444  12.654  0.00  0.00    +0.000 N 
ATOM     11  H   UNL     1      49.132   7.605  12.265  0.00  0.00    +0.000 HD
BRANCH   9  12
ATOM     12  C   UNL     1      50.709   8.644  13.996  0.00  0.00    +0.000 A 
ATOM     13  C   UNL     1      51.053   8.140  15.244  0.00  0.00    +0.000 A 
ATOM     14  S   UNL     1      52.703   7.733  15.386  0.00  0.00    +0.000 S 
ATOM     15  C   UNL     1      53.009   8.171  13.769  0.00  0.00    +0.000 A 
ATOM     16  N   UNL     1      54.248   8.037  13.230  0.00  0.00    +0.000 NA
ATOM     17  C   UNL     1      54.328   8.373  11.984  0.00  0.00    +0.000 A 
ATOM     18  N   UNL     1      53.280   8.839  11.234  0.00  0.00    +0.000 N 
ATOM     19  C   UNL     1      52.020   9.023  11.747  0.00  0.00    +0.000 A 
ATOM     20  O   UNL     1      51.116   9.493  11.064  0.00  0.00    +0.000 OA
ATOM     21  C   UNL     1      51.871   8.642  13.138  0.00  0.00    +0.000 A 
ATOM     22  H   UNL     1      53.409   9.095  10.265  0.00  0.00    +0.000 HD
ENDBRANCH   9  12
ENDBRANCH   7  10
ENDBRANCH   1   7
BRANCH   4  23
ATOM     23  C   UNL     1      44.274   3.755  12.163  0.00  0.00    +0.000 C 
BRANCH  23  24
ATOM     24  N   UNL     1      43.960   3.347  10.783  0.00  0.00    +0.000 NA
ATOM     25  H   UNL     1      43.814   4.209  10.252  0.00  0.00    +0.000 HD
BRANCH  24  26
ATOM     26  C   UNL     1      45.053   2.591  10.163  0.00  0.00    +0.000 C 
BRANCH  26  27
ATOM     27  C   UNL     1      44.768   2.302   8.669  0.00  0.00    +0.000 C 
ATOM     28  C   UNL     1      44.873   3.588   7.830  0.00  0.00    +0.000 C 
ATOM     29  C   UNL     1      46.316   4.063   7.642  0.00  0.00    +0.000 C 
ATOM     30  C   UNL     1      47.241   2.977   7.066  0.00  0.00    +0.000 C 
ATOM     31  C   UNL     1      47.113   1.668   7.859  0.00  0.00    +0.000 C 
ATOM     32  C   UNL     1      45.666   1.213   8.058  0.00  0.00    +0.000 C 
BRANCH  30  33
ATOM     33  C   UNL     1      47.012   2.754   5.563  0.00  0.00    +0.000 C 
BRANCH  33  34
ATOM     34  O   UNL     1      48.255   2.527   4.907  0.00  0.00    +0.000 OA
ATOM     35  H   UNL     1      48.168   1.709   4.388  0.00  0.00    +0.000 HD
ENDBRANCH  33  34
ENDBRANCH  30  33
ENDBRANCH  26  27
ENDBRANCH  24  26
ENDBRANCH  23  24
ENDBRANCH   4  23
TORSDOF 9
ENDMDL
MODEL 7
REMARK VINA RESULT:    -6.235      3.264      4.995
REMARK INTER + INTRA:         -10.401
REMARK INTER:                  -9.474
REMARK INTRA:                  -0.927
REMARK UNBOUND:                -1.068
REMARK  Name = 
REMARK  9 active torsions:
REMARK  status: ('A' for Active; 'I' for Inactive)
REMARK    1  A    between atoms: C_2  and  C_22
REMARK    2  A    between atoms: N_3  and  C_4
REMARK    3  A    between atoms: C_4  and  C_5
REMARK    4  A    between atoms: C_8  and  C_9
REMARK    5  A    between atoms: C_9  and  N_10
REMARK    6  A    between atoms: N_10  and  C_11
REMARK    7  A    between atoms: C_11  and  C_12
REMARK    8  A    between atoms: C_15  and  C_16
REMARK    9  A    between atoms: C_16  and  O_17
REMARK                            x       y       z     vdW  Elec       q    Type
REMARK                         _______ _______ _______ _____ _____    ______ ____
ROOT
ATOM      1  C   UNL     1      49.044   8.028  16.281  0.00  0.00    +0.000 A 
ATOM      2  C   UNL     1      48.588   9.161  15.605  0.00  0.00    +0.000 A 
ATOM      3  C   UNL     1      48.077   9.037  14.311  0.00  0.00    +0.000 A 
ATOM      4  C   UNL     1      48.045   7.778  13.717  0.00  0.00    +0.000 A 
ATOM      5  N   UNL     1      48.508   6.665  14.345  0.00  0.00    +0.000 NA
ATOM      6  C   UNL     1      48.998   6.817  15.597  0.00  0.00    +0.000 A 
ENDROOT
BRANCH   1   7
ATOM      7  C   UNL     1      49.595   8.107  17.676  0.00  0.00    +0.000 C 
BRANCH   7  10
ATOM      8  O   UNL     1      49.227   5.874  19.289  0.00  0.00    +0.000 OA
ATOM      9  C   UNL     1      50.281   5.976  18.668  0.00  0.00    +0.000 C 
ATOM     10  N   UNL     1      50.579   7.082  17.912  0.00  0.00    +0.000 N 
ATOM     11  H   UNL     1      51.353   7.034  17.258  0.00  0.00    +0.000 HD
BRANCH   9  12
ATOM     12  C   UNL     1      51.313   4.934  18.725  0.00  0.00    +0.000 A 
ATOM     13  C   UNL     1      52.469   5.140  19.468  0.00  0.00    +0.000 A 
ATOM     14  S   UNL     1      53.562   3.832  19.407  0.00  0.00    +0.000 S 
ATOM     15  C   UNL     1      52.510   2.923  18.424  0.00  0.00    +0.000 A 
ATOM     16  N   UNL     1      52.835   1.666  18.025  0.00  0.00    +0.000 NA
ATOM     17  C   UNL     1      51.928   1.080  17.314  0.00  0.00    +0.000 A 
ATOM     18  N   UNL     1      50.729   1.644  16.961  0.00  0.00    +0.000 N 
ATOM     19  C   UNL     1      50.374   2.922  17.314  0.00  0.00    +0.000 A 
ATOM     20  O   UNL     1      49.317   3.417  16.936  0.00  0.00    +0.000 OA
ATOM     21  C   UNL     1      51.350   3.618  18.130  0.00  0.00    +0.000 A 
ATOM     22  H   UNL     1      50.065   1.136  16.394  0.00  0.00    +0.000 HD
ENDBRANCH   9  12
ENDBRANCH   7  10
ENDBRANCH   1   7
BRANCH   4  23
ATOM     23  C   UNL     1      47.462   7.603  12.324  0.00  0.00    +0.000 C 
BRANCH  23  24
ATOM     24  N   UNL     1      46.139   8.224  12.138  0.00  0.00    +0.000 NA
ATOM     25  H   UNL     1      46.279   9.027  11.521  0.00  0.00    +0.000 HD
BRANCH  24  26
ATOM     26  C   UNL     1      45.178   7.310  11.513  0.00  0.00    +0.000 C 
BRANCH  26  27
ATOM     27  C   UNL     1      45.548   5.829  11.774  0.00  0.00    +0.000 C 
ATOM     28  C   UNL     1      44.822   5.292  13.020  0.00  0.00    +0.000 C 
ATOM     29  C   UNL     1      43.327   5.058  12.787  0.00  0.00    +0.000 C 
ATOM     30  C   UNL     1      43.038   4.156  11.574  0.00  0.00    +0.000 C 
ATOM     31  C   UNL     1      43.795   4.646  10.331  0.00  0.00    +0.000 C 
ATOM     32  C   UNL     1      45.283   4.897  10.580  0.00  0.00    +0.000 C 
BRANCH  30  33
ATOM     33  C   UNL     1      43.328   2.675  11.867  0.00  0.00    +0.000 C 
BRANCH  33  34
ATOM     34  O   UNL     1      43.643   1.990  10.658  0.00  0.00    +0.000 OA
ATOM     35  H   UNL     1      44.500   2.327  10.346  0.00  0.00    +0.000 HD
ENDBRANCH  33  34
ENDBRANCH  30  33
ENDBRANCH  26  27
ENDBRANCH  24  26
ENDBRANCH  23  24
ENDBRANCH   4  23
TORSDOF 9
ENDMDL
MODEL 8
REMARK VINA RESULT:    -5.657      5.093      8.071
REMARK INTER + INTRA:          -9.536
REMARK INTER:                  -8.291
REMARK INTRA:                  -1.244
REMARK UNBOUND:                -1.068
REMARK  Name = 
REMARK  9 active torsions:
REMARK  status: ('A' for Active; 'I' for Inactive)
REMARK    1  A    between atoms: C_2  and  C_22
REMARK    2  A    between atoms: N_3  and  C_4
REMARK    3  A    between atoms: C_4  and  C_5
REMARK    4  A    between atoms: C_8  and  C_9
REMARK    5  A    between atoms: C_9  and  N_10
REMARK    6  A    between atoms: N_10  and  C_11
REMARK    7  A    between atoms: C_11  and  C_12
REMARK    8  A    between atoms: C_15  and  C_16
REMARK    9  A    between atoms: C_16  and  O_17
REMARK                            x       y       z     vdW  Elec       q    Type
REMARK                         _______ _______ _______ _____ _____    ______ ____
ROOT
ATOM      1  C   UNL     1      48.278   7.389  13.481  0.00  0.00    +0.000 A 
ATOM      2  C   UNL     1      48.858   6.743  12.387  0.00  0.00    +0.000 A 
ATOM      3  C   UNL     1      49.742   7.439  11.560  0.00  0.00    +0.000 A 
ATOM      4  C   UNL     1      50.018   8.775  11.842  0.00  0.00    +0.000 A 
ATOM      5  N   UNL     1      49.444   9.432  12.884  0.00  0.00    +0.000 NA
ATOM      6  C   UNL     1      48.592   8.731  13.666  0.00  0.00    +0.000 A 
ENDROOT
BRANCH   1   7
ATOM      7  C   UNL     1      47.327   6.682  14.404  0.00  0.00    +0.000 C 
BRANCH   7  10
ATOM      8  O   UNL     1      44.920   7.093  13.075  0.00  0.00    +0.000 OA
ATOM      9  C   UNL     1      45.433   5.979  13.020  0.00  0.00    +0.000 C 
ATOM     10  N   UNL     1      46.578   5.667  13.711  0.00  0.00    +0.000 N 
ATOM     11  H   UNL     1      47.075   4.815  13.473  0.00  0.00    +0.000 HD
BRANCH   9  12
ATOM     12  C   UNL     1      44.831   4.892  12.239  0.00  0.00    +0.000 A 
ATOM     13  C   UNL     1      43.974   3.987  12.852  0.00  0.00    +0.000 A 
ATOM     14  S   UNL     1      43.383   2.784  11.797  0.00  0.00    +0.000 S 
ATOM     15  C   UNL     1      44.213   3.456  10.471  0.00  0.00    +0.000 A 
ATOM     16  N   UNL     1      44.109   2.913   9.231  0.00  0.00    +0.000 NA
ATOM     17  C   UNL     1      44.763   3.547   8.314  0.00  0.00    +0.000 A 
ATOM     18  N   UNL     1      45.518   4.671   8.530  0.00  0.00    +0.000 N 
ATOM     19  C   UNL     1      45.678   5.233   9.771  0.00  0.00    +0.000 A 
ATOM     20  O   UNL     1      46.405   6.208   9.941  0.00  0.00    +0.000 OA
ATOM     21  C   UNL     1      44.948   4.571  10.835  0.00  0.00    +0.000 A 
ATOM     22  H   UNL     1      46.015   5.115   7.770  0.00  0.00    +0.000 HD
ENDBRANCH   9  12
ENDBRANCH   7  10
ENDBRANCH   1   7
BRANCH   4  23
ATOM     23  C   UNL     1      51.003   9.551  10.983  0.00  0.00    +0.000 C 
BRANCH  23  24
ATOM     24  N   UNL     1      52.395   9.078  11.080  0.00  0.00    +0.000 NA
ATOM     25  H   UNL     1      52.373   8.226  11.645  0.00  0.00    +0.000 HD
BRANCH  24  26
ATOM     26  C   UNL     1      52.968   8.758   9.769  0.00  0.00    +0.000 C 
BRANCH  26  27
ATOM     27  C   UNL     1      52.534   7.353   9.286  0.00  0.00    +0.000 C 
ATOM     28  C   UNL     1      52.688   7.224   7.760  0.00  0.00    +0.000 C 
ATOM     29  C   UNL     1      54.148   7.115   7.314  0.00  0.00    +0.000 C 
ATOM     30  C   UNL     1      54.915   5.985   8.022  0.00  0.00    +0.000 C 
ATOM     31  C   UNL     1      54.732   6.067   9.546  0.00  0.00    +0.000 C 
ATOM     32  C   UNL     1      53.272   6.196   9.979  0.00  0.00    +0.000 C 
BRANCH  30  33
ATOM     33  C   UNL     1      54.541   4.597   7.481  0.00  0.00    +0.000 C 
BRANCH  33  34
ATOM     34  O   UNL     1      55.007   3.584   8.367  0.00  0.00    +0.000 OA
ATOM     35  H   UNL     1      55.513   2.943   7.839  0.00  0.00    +0.000 HD
ENDBRANCH  33  34
ENDBRANCH  30  33
ENDBRANCH  26  27
ENDBRANCH  24  26
ENDBRANCH  23  24
ENDBRANCH   4  23
TORSDOF 9
ENDMDL
MODEL 9
REMARK VINA RESULT:    -5.548      3.397      9.696
REMARK INTER + INTRA:          -9.372
REMARK INTER:                  -8.081
REMARK INTRA:                  -1.291
REMARK UNBOUND:                -1.068
REMARK  Name = 
REMARK  9 active torsions:
REMARK  status: ('A' for Active; 'I' for Inactive)
REMARK    1  A    between atoms: C_2  and  C_22
REMARK    2  A    between atoms: N_3  and  C_4
REMARK    3  A    between atoms: C_4  and  C_5
REMARK    4  A    between atoms: C_8  and  C_9
REMARK    5  A    between atoms: C_9  and  N_10
REMARK    6  A    between atoms: N_10  and  C_11
REMARK    7  A    between atoms: C_11  and  C_12
REMARK    8  A    between atoms: C_15  and  C_16
REMARK    9  A    between atoms: C_16  and  O_17
REMARK                            x       y       z     vdW  Elec       q    Type
REMARK                         _______ _______ _______ _____ _____    ______ ____
ROOT
ATOM      1  C   UNL     1      49.231   8.613  12.677  0.00  0.00    +0.000 A 
ATOM      2  C   UNL     1      49.004   9.923  13.105  0.00  0.00    +0.000 A 
ATOM      3  C   UNL     1      49.593  10.378  14.286  0.00  0.00    +0.000 A 
ATOM      4  C   UNL     1      50.390   9.504  15.022  0.00  0.00    +0.000 A 
ATOM      5  N   UNL     1      50.603   8.217  14.641  0.00  0.00    +0.000 NA
ATOM      6  C   UNL     1      50.018   7.806  13.492  0.00  0.00    +0.000 A 
ENDROOT
BRANCH   1   7
ATOM      7  C   UNL     1      48.628   8.079  11.411  0.00  0.00    +0.000 C 
BRANCH   7  10
ATOM      8  O   UNL     1      45.896   8.400  11.815  0.00  0.00    +0.000 OA
ATOM      9  C   UNL     1      46.351   7.260  11.794  0.00  0.00    +0.000 C 
ATOM     10  N   UNL     1      47.697   7.013  11.679  0.00  0.00    +0.000 N 
ATOM     11  H   UNL     1      48.005   6.072  11.456  0.00  0.00    +0.000 HD
BRANCH   9  12
ATOM     12  C   UNL     1      45.487   6.082  11.929  0.00  0.00    +0.000 A 
ATOM     13  C   UNL     1      44.836   5.830  13.129  0.00  0.00    +0.000 A 
ATOM     14  S   UNL     1      43.888   4.412  13.110  0.00  0.00    +0.000 S 
ATOM     15  C   UNL     1      44.275   4.108  11.480  0.00  0.00    +0.000 A 
ATOM     16  N   UNL     1      43.755   3.037  10.825  0.00  0.00    +0.000 NA
ATOM     17  C   UNL     1      44.106   2.949   9.583  0.00  0.00    +0.000 A 
ATOM     18  N   UNL     1      44.934   3.832   8.943  0.00  0.00    +0.000 N 
ATOM     19  C   UNL     1      45.509   4.907   9.574  0.00  0.00    +0.000 A 
ATOM     20  O   UNL     1      46.291   5.649   8.987  0.00  0.00    +0.000 OA
ATOM     21  C   UNL     1      45.133   5.064  10.966  0.00  0.00    +0.000 A 
ATOM     22  H   UNL     1      45.179   3.703   7.971  0.00  0.00    +0.000 HD
ENDBRANCH   9  12
ENDBRANCH   7  10
ENDBRANCH   1   7
BRANCH   4  23
ATOM     23  C   UNL     1      51.074   9.979  16.294  0.00  0.00    +0.000 C 
BRANCH  23  24
ATOM     24  N   UNL     1      50.154  10.240  17.415  0.00  0.00    +0.000 NA
ATOM     25  H   UNL     1      49.211  10.054  17.066  0.00  0.00    +0.000 HD
BRANCH  24  26
ATOM     26  C   UNL     1      50.412   9.365  18.563  0.00  0.00    +0.000 C 
BRANCH  26  27
ATOM     27  C   UNL     1      50.055   7.892  18.247  0.00  0.00    +0.000 C 
ATOM     28  C   UNL     1      50.237   7.002  19.489  0.00  0.00    +0.000 C 
ATOM     29  C   UNL     1      49.151   7.220  20.545  0.00  0.00    +0.000 C 
ATOM     30  C   UNL     1      47.725   7.066  19.988  0.00  0.00    +0.000 C 
ATOM     31  C   UNL     1      47.538   7.908  18.717  0.00  0.00    +0.000 C 
ATOM     32  C   UNL     1      48.639   7.698  17.677  0.00  0.00    +0.000 C 
BRANCH  30  33
ATOM     33  C   UNL     1      47.345   5.595  19.754  0.00  0.00    +0.000 C 
BRANCH  33  34
ATOM     34  O   UNL     1      46.279   5.509  18.815  0.00  0.00    +0.000 OA
ATOM     35  H   UNL     1      45.631   4.873  19.164  0.00  0.00    +0.000 HD
ENDBRANCH  33  34
ENDBRANCH  30  33
ENDBRANCH  26  27
ENDBRANCH  24  26
ENDBRANCH  23  24
ENDBRANCH   4  23
TORSDOF 9
ENDMDL
