MODEL 1
REMARK VINA RESULT:    -9.030      0.000      0.000
REMARK INTER + INTRA:         -12.000
REMARK INTER:                 -11.670
REMARK INTRA:                  -0.330
REMARK UNBOUND:                -0.330
REMARK  Name = 
REMARK  5 active torsions:
REMARK  status: ('A' for Active; 'I' for Inactive)
REMARK    1  A    between atoms: C_2  and  C_4
REMARK    2  A    between atoms: C_8  and  O_9
REMARK    3  A    between atoms: O_9  and  C_10
REMARK    4  A    between atoms: C_10  and  C_11
REMARK    5  A    between atoms: C_16  and  C_17
REMARK                            x       y       z     vdW  Elec       q    Type
REMARK                         _______ _______ _______ _____ _____    ______ ____
ROOT
ATOM      1  C   UNL     1      44.740   4.527  11.846  0.00  0.00    +0.000 A 
ATOM      2  C   UNL     1      45.371   3.604  12.682  0.00  0.00    +0.000 A 
ATOM      3  C   UNL     1      46.524   3.971  13.359  0.00  0.00    +0.000 A 
ATOM      4  F   UNL     1      47.126   3.086  14.163  0.00  0.00    +0.000 F 
ATOM      5  C   UNL     1      47.067   5.246  13.221  0.00  0.00    +0.000 A 
ATOM      6  C   UNL     1      46.466   6.200  12.381  0.00  0.00    +0.000 A 
ATOM      7  C   UNL     1      45.298   5.808  11.696  0.00  0.00    +0.000 A 
ENDROOT
BRANCH   6   8
ATOM      8  C   UNL     1      47.035   7.554  12.214  0.00  0.00    +0.000 A 
ATOM      9  C   UNL     1      46.285   8.714  12.451  0.00  0.00    +0.000 A 
ATOM     10  N   UNL     1      46.735   9.987  12.304  0.00  0.00    +0.000 NA
ATOM     11  C   UNL     1      48.018  10.123  11.907  0.00  0.00    +0.000 A 
ATOM     12  C   UNL     1      48.851   9.053  11.656  0.00  0.00    +0.000 A 
ATOM     13  F   UNL     1      50.118   9.248  11.270  0.00  0.00    +0.000 F 
ATOM     14  C   UNL     1      48.360   7.762  11.805  0.00  0.00    +0.000 A 
ENDBRANCH   6   8
BRANCH   1  15
ATOM     15  C   UNL     1      43.501   4.149  11.080  0.00  0.00    +0.000 C 
BRANCH  15  16
ATOM     16  O   UNL     1      43.752   2.920  10.403  0.00  0.00    +0.000 OA
BRANCH  16  21
ATOM     17  C   UNL     1      46.293   2.111   7.837  0.00  0.00    +0.000 A 
ATOM     18  C   UNL     1      46.381   3.380   7.280  0.00  0.00    +0.000 A 
ATOM     19  N   UNL     1      45.633   4.429   7.696  0.00  0.00    +0.000 NA
ATOM     20  C   UNL     1      44.784   4.197   8.727  0.00  0.00    +0.000 A 
ATOM     21  C   UNL     1      44.640   2.968   9.366  0.00  0.00    +0.000 A 
ATOM     22  C   UNL     1      45.414   1.908   8.903  0.00  0.00    +0.000 A 
BRANCH  17  24
ATOM     23  N   UNL     1      46.805  -0.251   7.647  0.00  0.00    +0.000 N 
ATOM     24  C   UNL     1      47.150   1.030   7.316  0.00  0.00    +0.000 C 
ATOM     25  O   UNL     1      48.113   1.266   6.600  0.00  0.00    +0.000 OA
ATOM     26  H   UNL     1      47.344  -0.986   7.204  0.00  0.00    +0.000 HD
ATOM     27  H   UNL     1      45.887  -0.496   7.993  0.00  0.00    +0.000 HD
ENDBRANCH  17  24
ENDBRANCH  16  21
ENDBRANCH  15  16
ENDBRANCH   1  15
TORSDOF 5
ENDMDL
MODEL 2
REMARK VINA RESULT:    -8.558      2.648      4.389
REMARK INTER + INTRA:         -11.390
REMARK INTER:                 -10.672
REMARK INTRA:                  -0.718
REMARK UNBOUND:                -0.330
REMARK  Name = 
REMARK  5 active torsions:
REMARK  status: ('A' for Active; 'I' for Inactive)
REMARK    1  A    between atoms: C_2  and  C_4
REMARK    2  A    between atoms: C_8  and  O_9
REMARK    3  A    between atoms: O_9  and  C_10
REMARK    4  A    between atoms: C_10  and  C_11
REMARK    5  A    between atoms: C_16  and  C_17
REMARK                            x       y       z     vdW  Elec       q    Type
REMARK                         _______ _______ _______ _____ _____    ______ ____
ROOT
ATOM      1  C   UNL     1      45.850   5.485  11.961  0.00  0.00    +0.000 A 
ATOM      2  C   UNL     1      46.607   6.488  11.353  0.00  0.00    +0.000 A 
ATOM      3  C   UNL     1      47.688   7.034  12.028  0.00  0.00    +0.000 A 
ATOM      4  F   UNL     1      48.414   7.993  11.441  0.00  0.00    +0.000 F 
ATOM      5  C   UNL     1      48.034   6.601  13.306  0.00  0.00    +0.000 A 
ATOM      6  C   UNL     1      47.290   5.601  13.955  0.00  0.00    +0.000 A 
ATOM      7  C   UNL     1      46.191   5.061  13.257  0.00  0.00    +0.000 A 
ENDROOT
BRANCH   6   8
ATOM      8  C   UNL     1      47.637   5.138  15.316  0.00  0.00    +0.000 A 
ATOM      9  C   UNL     1      48.539   5.832  16.134  0.00  0.00    +0.000 A 
ATOM     10  N   UNL     1      48.915   5.459  17.384  0.00  0.00    +0.000 NA
ATOM     11  C   UNL     1      48.352   4.330  17.864  0.00  0.00    +0.000 A 
ATOM     12  C   UNL     1      47.445   3.574  17.152  0.00  0.00    +0.000 A 
ATOM     13  F   UNL     1      46.914   2.465  17.682  0.00  0.00    +0.000 F 
ATOM     14  C   UNL     1      47.087   3.974  15.872  0.00  0.00    +0.000 A 
ENDBRANCH   6   8
BRANCH   1  15
ATOM     15  C   UNL     1      44.657   4.890  11.262  0.00  0.00    +0.000 C 
BRANCH  15  16
ATOM     16  O   UNL     1      44.832   5.058   9.858  0.00  0.00    +0.000 OA
BRANCH  16  21
ATOM     17  C   UNL     1      46.484   2.813   7.423  0.00  0.00    +0.000 A 
ATOM     18  C   UNL     1      46.043   1.616   7.971  0.00  0.00    +0.000 A 
ATOM     19  N   UNL     1      45.278   1.544   9.086  0.00  0.00    +0.000 NA
ATOM     20  C   UNL     1      44.925   2.723   9.655  0.00  0.00    +0.000 A 
ATOM     21  C   UNL     1      45.297   3.974   9.169  0.00  0.00    +0.000 A 
ATOM     22  C   UNL     1      46.096   4.010   8.030  0.00  0.00    +0.000 A 
BRANCH  17  24
ATOM     23  N   UNL     1      48.657   2.589   6.372  0.00  0.00    +0.000 N 
ATOM     24  C   UNL     1      47.315   2.790   6.205  0.00  0.00    +0.000 C 
ATOM     25  O   UNL     1      46.823   2.922   5.094  0.00  0.00    +0.000 OA
ATOM     26  H   UNL     1      49.200   2.480   5.522  0.00  0.00    +0.000 HD
ATOM     27  H   UNL     1      49.050   2.210   7.222  0.00  0.00    +0.000 HD
ENDBRANCH  17  24
ENDBRANCH  16  21
ENDBRANCH  15  16
ENDBRANCH   1  15
TORSDOF 5
ENDMDL
MODEL 3
REMARK VINA RESULT:    -8.552      3.167      6.923
REMARK INTER + INTRA:         -11.383
REMARK INTER:                 -10.730
REMARK INTRA:                  -0.653
REMARK UNBOUND:                -0.330
REMARK  Name = 
REMARK  5 active torsions:
REMARK  status: ('A' for Active; 'I' for Inactive)
REMARK    1  A    between atoms: C_2  and  C_4
REMARK    2  A    between atoms: C_8  and  O_9
REMARK    3  A    between atoms: O_9  and  C_10
REMARK    4  A    between atoms: C_10  and  C_11
REMARK    5  A    between atoms: C_16  and  C_17
REMARK                            x       y       z     vdW  Elec       q    Type
REMARK                         _______ _______ _______ _____ _____    ______ ____
ROOT
ATOM      1  C   UNL     1      44.651   5.072  10.744  0.00  0.00    +0.000 A 
ATOM      2  C   UNL     1      43.776   4.254  11.461  0.00  0.00    +0.000 A 
ATOM      3  C   UNL     1      43.613   2.930  11.082  0.00  0.00    +0.000 A 
ATOM      4  F   UNL     1      42.777   2.146  11.773  0.00  0.00    +0.000 F 
ATOM      5  C   UNL     1      44.306   2.399   9.997  0.00  0.00    +0.000 A 
ATOM      6  C   UNL     1      45.187   3.194   9.244  0.00  0.00    +0.000 A 
ATOM      7  C   UNL     1      45.337   4.539   9.639  0.00  0.00    +0.000 A 
ENDROOT
BRANCH   6   8
ATOM      8  C   UNL     1      45.922   2.650   8.083  0.00  0.00    +0.000 A 
ATOM      9  C   UNL     1      46.439   1.347   8.068  0.00  0.00    +0.000 A 
ATOM     10  N   UNL     1      47.135   0.786   7.046  0.00  0.00    +0.000 NA
ATOM     11  C   UNL     1      47.323   1.562   5.958  0.00  0.00    +0.000 A 
ATOM     12  C   UNL     1      46.851   2.854   5.857  0.00  0.00    +0.000 A 
ATOM     13  F   UNL     1      47.063   3.576   4.750  0.00  0.00    +0.000 F 
ATOM     14  C   UNL     1      46.151   3.405   6.923  0.00  0.00    +0.000 A 
ENDBRANCH   6   8
BRANCH   1  15
ATOM     15  C   UNL     1      44.830   6.519  11.117  0.00  0.00    +0.000 C 
BRANCH  15  16
ATOM     16  O   UNL     1      46.226   6.809  11.125  0.00  0.00    +0.000 OA
BRANCH  16  21
ATOM     17  C   UNL     1      47.491   5.463  14.333  0.00  0.00    +0.000 A 
ATOM     18  C   UNL     1      48.287   6.550  14.670  0.00  0.00    +0.000 A 
ATOM     19  N   UNL     1      48.427   7.643  13.882  0.00  0.00    +0.000 NA
ATOM     20  C   UNL     1      47.720   7.651  12.726  0.00  0.00    +0.000 A 
ATOM     21  C   UNL     1      46.878   6.622  12.311  0.00  0.00    +0.000 A 
ATOM     22  C   UNL     1      46.769   5.507  13.137  0.00  0.00    +0.000 A 
BRANCH  17  24
ATOM     23  N   UNL     1      47.125   4.593  16.566  0.00  0.00    +0.000 N 
ATOM     24  C   UNL     1      47.402   4.317  15.255  0.00  0.00    +0.000 C 
ATOM     25  O   UNL     1      47.546   3.168  14.863  0.00  0.00    +0.000 OA
ATOM     26  H   UNL     1      46.971   3.791  17.167  0.00  0.00    +0.000 HD
ATOM     27  H   UNL     1      46.736   5.476  16.865  0.00  0.00    +0.000 HD
ENDBRANCH  17  24
ENDBRANCH  16  21
ENDBRANCH  15  16
ENDBRANCH   1  15
TORSDOF 5
ENDMDL
MODEL 4
REMARK VINA RESULT:    -8.374      2.428      3.884
REMARK INTER + INTRA:         -11.153
REMARK INTER:                 -10.949
REMARK INTRA:                  -0.203
REMARK UNBOUND:                -0.330
REMARK  Name = 
REMARK  5 active torsions:
REMARK  status: ('A' for Active; 'I' for Inactive)
REMARK    1  A    between atoms: C_2  and  C_4
REMARK    2  A    between atoms: C_8  and  O_9
REMARK    3  A    between atoms: O_9  and  C_10
REMARK    4  A    between atoms: C_10  and  C_11
REMARK    5  A    between atoms: C_16  and  C_17
REMARK                            x       y       z     vdW  Elec       q    Type
REMARK                         _______ _______ _______ _____ _____    ______ ____
ROOT
ATOM      1  C   UNL     1      44.381   5.220  11.590  0.00  0.00    +0.000 A 
ATOM      2  C   UNL     1      44.534   6.590  11.374  0.00  0.00    +0.000 A 
ATOM      3  C   UNL     1      45.433   7.308  12.148  0.00  0.00    +0.000 A 
ATOM      4  F   UNL     1      45.581   8.622  11.937  0.00  0.00    +0.000 F 
ATOM      5  C   UNL     1      46.187   6.688  13.141  0.00  0.00    +0.000 A 
ATOM      6  C   UNL     1      46.053   5.313  13.396  0.00  0.00    +0.000 A 
ATOM      7  C   UNL     1      45.131   4.599  12.604  0.00  0.00    +0.000 A 
ENDROOT
BRANCH   6   8
ATOM      8  C   UNL     1      46.837   4.640  14.453  0.00  0.00    +0.000 A 
ATOM      9  C   UNL     1      47.220   3.295  14.358  0.00  0.00    +0.000 A 
ATOM     10  N   UNL     1      47.926   2.609  15.294  0.00  0.00    +0.000 NA
ATOM     11  C   UNL     1      48.288   3.302  16.394  0.00  0.00    +0.000 A 
ATOM     12  C   UNL     1      47.975   4.632  16.589  0.00  0.00    +0.000 A 
ATOM     13  F   UNL     1      48.365   5.271  17.698  0.00  0.00    +0.000 F 
ATOM     14  C   UNL     1      47.243   5.305  15.619  0.00  0.00    +0.000 A 
ENDBRANCH   6   8
BRANCH   1  15
ATOM     15  C   UNL     1      43.395   4.419  10.782  0.00  0.00    +0.000 C 
BRANCH  15  16
ATOM     16  O   UNL     1      43.984   3.155  10.485  0.00  0.00    +0.000 OA
BRANCH  16  21
ATOM     17  C   UNL     1      46.353   2.110   7.841  0.00  0.00    +0.000 A 
ATOM     18  C   UNL     1      46.523   3.360   7.261  0.00  0.00    +0.000 A 
ATOM     19  N   UNL     1      45.877   4.472   7.687  0.00  0.00    +0.000 NA
ATOM     20  C   UNL     1      45.052   4.322   8.752  0.00  0.00    +0.000 A 
ATOM     21  C   UNL     1      44.834   3.117   9.416  0.00  0.00    +0.000 A 
ATOM     22  C   UNL     1      45.501   1.992   8.942  0.00  0.00    +0.000 A 
BRANCH  17  24
ATOM     23  N   UNL     1      46.710  -0.286   7.726  0.00  0.00    +0.000 N 
ATOM     24  C   UNL     1      47.100   0.956   7.306  0.00  0.00    +0.000 C 
ATOM     25  O   UNL     1      48.012   1.100   6.504  0.00  0.00    +0.000 OA
ATOM     26  H   UNL     1      47.167  -1.072   7.277  0.00  0.00    +0.000 HD
ATOM     27  H   UNL     1      45.812  -0.458   8.155  0.00  0.00    +0.000 HD
ENDBRANCH  17  24
ENDBRANCH  16  21
ENDBRANCH  15  16
ENDBRANCH   1  15
TORSDOF 5
ENDMDL
MODEL 5
REMARK VINA RESULT:    -8.229      3.793      7.185
REMARK INTER + INTRA:         -10.965
REMARK INTER:                 -10.140
REMARK INTRA:                  -0.825
REMARK UNBOUND:                -0.330
REMARK  Name = 
REMARK  5 active torsions:
REMARK  status: ('A' for Active; 'I' for Inactive)
REMARK    1  A    between atoms: C_2  and  C_4
REMARK    2  A    between atoms: C_8  and  O_9
REMARK    3  A    between atoms: O_9  and  C_10
REMARK    4  A    between atoms: C_10  and  C_11
REMARK    5  A    between atoms: C_16  and  C_17
REMARK                            x       y       z     vdW  Elec       q    Type
REMARK                         _______ _______ _______ _____ _____    ______ ____
ROOT
ATOM      1  C   UNL     1      45.228   6.289  11.811  0.00  0.00    +0.000 A 
ATOM      2  C   UNL     1      43.865   6.275  12.113  0.00  0.00    +0.000 A 
ATOM      3  C   UNL     1      43.025   5.396  11.445  0.00  0.00    +0.000 A 
ATOM      4  F   UNL     1      41.720   5.382  11.739  0.00  0.00    +0.000 F 
ATOM      5  C   UNL     1      43.516   4.526  10.475  0.00  0.00    +0.000 A 
ATOM      6  C   UNL     1      44.880   4.518  10.136  0.00  0.00    +0.000 A 
ATOM      7  C   UNL     1      45.718   5.421  10.820  0.00  0.00    +0.000 A 
ENDROOT
BRANCH   6   8
ATOM      8  C   UNL     1      45.415   3.609   9.100  0.00  0.00    +0.000 A 
ATOM      9  C   UNL     1      45.483   2.221   9.286  0.00  0.00    +0.000 A 
ATOM     10  N   UNL     1      45.975   1.330   8.388  0.00  0.00    +0.000 NA
ATOM     11  C   UNL     1      46.420   1.842   7.222  0.00  0.00    +0.000 A 
ATOM     12  C   UNL     1      46.392   3.189   6.926  0.00  0.00    +0.000 A 
ATOM     13  F   UNL     1      46.843   3.641   5.749  0.00  0.00    +0.000 F 
ATOM     14  C   UNL     1      45.893   4.079   7.868  0.00  0.00    +0.000 A 
ENDBRANCH   6   8
BRANCH   1  15
ATOM     15  C   UNL     1      46.160   7.247  12.503  0.00  0.00    +0.000 C 
BRANCH  15  16
ATOM     16  O   UNL     1      47.429   6.615  12.642  0.00  0.00    +0.000 OA
BRANCH  16  21
ATOM     17  C   UNL     1      47.851   4.812  15.847  0.00  0.00    +0.000 A 
ATOM     18  C   UNL     1      48.624   5.775  16.482  0.00  0.00    +0.000 A 
ATOM     19  N   UNL     1      49.012   6.929  15.888  0.00  0.00    +0.000 NA
ATOM     20  C   UNL     1      48.583   7.131  14.618  0.00  0.00    +0.000 A 
ATOM     21  C   UNL     1      47.786   6.238  13.906  0.00  0.00    +0.000 A 
ATOM     22  C   UNL     1      47.419   5.055  14.540  0.00  0.00    +0.000 A 
BRANCH  17  24
ATOM     23  N   UNL     1      48.417   2.593  16.642  0.00  0.00    +0.000 N 
ATOM     24  C   UNL     1      47.478   3.585  16.575  0.00  0.00    +0.000 C 
ATOM     25  O   UNL     1      46.387   3.468  17.115  0.00  0.00    +0.000 OA
ATOM     26  H   UNL     1      48.183   1.798  17.226  0.00  0.00    +0.000 HD
ATOM     27  H   UNL     1      49.396   2.757  16.455  0.00  0.00    +0.000 HD
ENDBRANCH  17  24
ENDBRANCH  16  21
ENDBRANCH  15  16
ENDBRANCH   1  15
TORSDOF 5
ENDMDL
MODEL 6
REMARK VINA RESULT:    -8.054      3.250      7.076
REMARK INTER + INTRA:         -10.739
REMARK INTER:                  -9.951
REMARK INTRA:                  -0.788
REMARK UNBOUND:                -0.330
REMARK  Name = 
REMARK  5 active torsions:
REMARK  status: ('A' for Active; 'I' for Inactive)
REMARK    1  A    between atoms: C_2  and  C_4
REMARK    2  A    between atoms: C_8  and  O_9
REMARK    3  A    between atoms: O_9  and  C_10
REMARK    4  A    between atoms: C_10  and  C_11
REMARK    5  A    between atoms: C_16  and  C_17
REMARK                            x       y       z     vdW  Elec       q    Type
REMARK                         _______ _______ _______ _____ _____    ______ ____
ROOT
ATOM      1  C   UNL     1      44.529   5.176  10.722  0.00  0.00    +0.000 A 
ATOM      2  C   UNL     1      43.720   4.334  11.488  0.00  0.00    +0.000 A 
ATOM      3  C   UNL     1      43.630   2.989  11.162  0.00  0.00    +0.000 A 
ATOM      4  F   UNL     1      42.857   2.183  11.900  0.00  0.00    +0.000 F 
ATOM      5  C   UNL     1      44.331   2.460  10.081  0.00  0.00    +0.000 A 
ATOM      6  C   UNL     1      45.147   3.277   9.280  0.00  0.00    +0.000 A 
ATOM      7  C   UNL     1      45.222   4.643   9.622  0.00  0.00    +0.000 A 
ENDROOT
BRANCH   6   8
ATOM      8  C   UNL     1      45.888   2.735   8.123  0.00  0.00    +0.000 A 
ATOM      9  C   UNL     1      46.400   1.430   8.108  0.00  0.00    +0.000 A 
ATOM     10  N   UNL     1      47.102   0.870   7.089  0.00  0.00    +0.000 NA
ATOM     11  C   UNL     1      47.302   1.649   6.005  0.00  0.00    +0.000 A 
ATOM     12  C   UNL     1      46.836   2.943   5.905  0.00  0.00    +0.000 A 
ATOM     13  F   UNL     1      47.060   3.668   4.803  0.00  0.00    +0.000 F 
ATOM     14  C   UNL     1      46.130   3.493   6.968  0.00  0.00    +0.000 A 
ENDBRANCH   6   8
BRANCH   1  15
ATOM     15  C   UNL     1      44.628   6.644  11.038  0.00  0.00    +0.000 C 
BRANCH  15  16
ATOM     16  O   UNL     1      45.013   6.782  12.403  0.00  0.00    +0.000 OA
BRANCH  16  21
ATOM     17  C   UNL     1      48.493   8.034  12.542  0.00  0.00    +0.000 A 
ATOM     18  C   UNL     1      49.029   6.965  13.248  0.00  0.00    +0.000 A 
ATOM     19  N   UNL     1      48.292   5.915  13.681  0.00  0.00    +0.000 NA
ATOM     20  C   UNL     1      46.973   5.930  13.369  0.00  0.00    +0.000 A 
ATOM     21  C   UNL     1      46.348   6.942  12.645  0.00  0.00    +0.000 A 
ATOM     22  C   UNL     1      47.131   8.014  12.229  0.00  0.00    +0.000 A 
BRANCH  17  24
ATOM     23  N   UNL     1      48.847  10.054  11.249  0.00  0.00    +0.000 N 
ATOM     24  C   UNL     1      49.375   9.134  12.112  0.00  0.00    +0.000 C 
ATOM     25  O   UNL     1      50.521   9.234  12.527  0.00  0.00    +0.000 OA
ATOM     26  H   UNL     1      49.433  10.855  11.039  0.00  0.00    +0.000 HD
ATOM     27  H   UNL     1      47.853  10.159  11.107  0.00  0.00    +0.000 HD
ENDBRANCH  17  24
ENDBRANCH  16  21
ENDBRANCH  15  16
ENDBRANCH   1  15
TORSDOF 5
ENDMDL
MODEL 7
REMARK VINA RESULT:    -7.998      2.260      2.662
REMARK INTER + INTRA:         -10.666
REMARK INTER:                 -10.650
REMARK INTRA:                  -0.016
REMARK UNBOUND:                -0.330
REMARK  Name = 
REMARK  5 active torsions:
REMARK  status: ('A' for Active; 'I' for Inactive)
REMARK    1  A    between atoms: C_2  and  C_4
REMARK    2  A    between atoms: C_8  and  O_9
REMARK    3  A    between atoms: O_9  and  C_10
REMARK    4  A    between atoms: C_10  and  C_11
REMARK    5  A    between atoms: C_16  and  C_17
REMARK                            x       y       z     vdW  Elec       q    Type
REMARK                         _______ _______ _______ _____ _____    ______ ____
ROOT
ATOM      1  C   UNL     1      44.337   4.637  11.727  0.00  0.00    +0.000 A 
ATOM      2  C   UNL     1      43.350   5.525  11.298  0.00  0.00    +0.000 A 
ATOM      3  C   UNL     1      43.540   6.890  11.459  0.00  0.00    +0.000 A 
ATOM      4  F   UNL     1      42.593   7.740  11.044  0.00  0.00    +0.000 F 
ATOM      5  C   UNL     1      44.699   7.392  12.044  0.00  0.00    +0.000 A 
ATOM      6  C   UNL     1      45.712   6.530  12.498  0.00  0.00    +0.000 A 
ATOM      7  C   UNL     1      45.499   5.146  12.332  0.00  0.00    +0.000 A 
ENDROOT
BRANCH   6   8
ATOM      8  C   UNL     1      46.943   7.046  13.131  0.00  0.00    +0.000 A 
ATOM      9  C   UNL     1      48.034   6.217  13.430  0.00  0.00    +0.000 A 
ATOM     10  N   UNL     1      49.188   6.616  14.023  0.00  0.00    +0.000 NA
ATOM     11  C   UNL     1      49.277   7.927  14.331  0.00  0.00    +0.000 A 
ATOM     12  C   UNL     1      48.271   8.836  14.074  0.00  0.00    +0.000 A 
ATOM     13  F   UNL     1      48.416  10.127  14.397  0.00  0.00    +0.000 F 
ATOM     14  C   UNL     1      47.097   8.396  13.476  0.00  0.00    +0.000 A 
ENDBRANCH   6   8
BRANCH   1  15
ATOM     15  C   UNL     1      44.148   3.150  11.587  0.00  0.00    +0.000 C 
BRANCH  15  16
ATOM     16  O   UNL     1      43.744   2.876  10.248  0.00  0.00    +0.000 OA
BRANCH  16  21
ATOM     17  C   UNL     1      46.462   2.240   7.818  0.00  0.00    +0.000 A 
ATOM     18  C   UNL     1      46.598   3.547   7.372  0.00  0.00    +0.000 A 
ATOM     19  N   UNL     1      45.828   4.570   7.813  0.00  0.00    +0.000 NA
ATOM     20  C   UNL     1      44.904   4.267   8.758  0.00  0.00    +0.000 A 
ATOM     21  C   UNL     1      44.707   2.994   9.286  0.00  0.00    +0.000 A 
ATOM     22  C   UNL     1      45.505   1.964   8.798  0.00  0.00    +0.000 A 
BRANCH  17  24
ATOM     23  N   UNL     1      48.380   1.602   6.479  0.00  0.00    +0.000 N 
ATOM     24  C   UNL     1      47.347   1.193   7.277  0.00  0.00    +0.000 C 
ATOM     25  O   UNL     1      47.181   0.012   7.547  0.00  0.00    +0.000 OA
ATOM     26  H   UNL     1      49.035   0.883   6.194  0.00  0.00    +0.000 HD
ATOM     27  H   UNL     1      48.707   2.558   6.460  0.00  0.00    +0.000 HD
ENDBRANCH  17  24
ENDBRANCH  16  21
ENDBRANCH  15  16
ENDBRANCH   1  15
TORSDOF 5
ENDMDL
MODEL 8
REMARK VINA RESULT:    -7.723      4.443      7.744
REMARK INTER + INTRA:         -10.310
REMARK INTER:                  -9.604
REMARK INTRA:                  -0.706
REMARK UNBOUND:                -0.330
REMARK  Name = 
REMARK  5 active torsions:
REMARK  status: ('A' for Active; 'I' for Inactive)
REMARK    1  A    between atoms: C_2  and  C_4
REMARK    2  A    between atoms: C_8  and  O_9
REMARK    3  A    between atoms: O_9  and  C_10
REMARK    4  A    between atoms: C_10  and  C_11
REMARK    5  A    between atoms: C_16  and  C_17
REMARK                            x       y       z     vdW  Elec       q    Type
REMARK                         _______ _______ _______ _____ _____    ______ ____
ROOT
ATOM      1  C   UNL     1      47.342   7.346  12.857  0.00  0.00    +0.000 A 
ATOM      2  C   UNL     1      46.537   8.485  12.907  0.00  0.00    +0.000 A 
ATOM      3  C   UNL     1      45.341   8.508  12.206  0.00  0.00    +0.000 A 
ATOM      4  F   UNL     1      44.567   9.599  12.258  0.00  0.00    +0.000 F 
ATOM      5  C   UNL     1      44.926   7.414  11.450  0.00  0.00    +0.000 A 
ATOM      6  C   UNL     1      45.715   6.254  11.366  0.00  0.00    +0.000 A 
ATOM      7  C   UNL     1      46.931   6.250  12.080  0.00  0.00    +0.000 A 
ENDROOT
BRANCH   6   8
ATOM      8  C   UNL     1      45.297   5.089  10.559  0.00  0.00    +0.000 A 
ATOM      9  C   UNL     1      44.535   4.042  11.096  0.00  0.00    +0.000 A 
ATOM     10  N   UNL     1      44.128   2.936  10.421  0.00  0.00    +0.000 NA
ATOM     11  C   UNL     1      44.488   2.865   9.122  0.00  0.00    +0.000 A 
ATOM     12  C   UNL     1      45.228   3.840   8.487  0.00  0.00    +0.000 A 
ATOM     13  F   UNL     1      45.552   3.719   7.194  0.00  0.00    +0.000 F 
ATOM     14  C   UNL     1      45.639   4.956   9.205  0.00  0.00    +0.000 A 
ENDBRANCH   6   8
BRANCH   1  15
ATOM     15  C   UNL     1      48.657   7.301  13.588  0.00  0.00    +0.000 C 
BRANCH  15  16
ATOM     16  O   UNL     1      48.401   7.473  14.980  0.00  0.00    +0.000 OA
BRANCH  16  21
ATOM     17  C   UNL     1      48.605   4.532  17.217  0.00  0.00    +0.000 A 
ATOM     18  C   UNL     1      49.969   4.604  17.467  0.00  0.00    +0.000 A 
ATOM     19  N   UNL     1      50.779   5.537  16.912  0.00  0.00    +0.000 NA
ATOM     20  C   UNL     1      50.188   6.445  16.098  0.00  0.00    +0.000 A 
ATOM     21  C   UNL     1      48.827   6.471  15.805  0.00  0.00    +0.000 A 
ATOM     22  C   UNL     1      48.026   5.488  16.379  0.00  0.00    +0.000 A 
BRANCH  17  24
ATOM     23  N   UNL     1      48.250   3.011  19.072  0.00  0.00    +0.000 N 
ATOM     24  C   UNL     1      47.803   3.479  17.867  0.00  0.00    +0.000 C 
ATOM     25  O   UNL     1      46.772   3.057  17.363  0.00  0.00    +0.000 OA
ATOM     26  H   UNL     1      47.640   2.359  19.551  0.00  0.00    +0.000 HD
ATOM     27  H   UNL     1      48.922   3.514  19.635  0.00  0.00    +0.000 HD
ENDBRANCH  17  24
ENDBRANCH  16  21
ENDBRANCH  15  16
ENDBRANCH   1  15
TORSDOF 5
ENDMDL
MODEL 9
REMARK VINA RESULT:    -7.301      3.429      7.291
REMARK INTER + INTRA:          -9.766
REMARK INTER:                  -9.091
REMARK INTRA:                  -0.675
REMARK UNBOUND:                -0.330
REMARK  Name = 
REMARK  5 active torsions:
REMARK  status: ('A' for Active; 'I' for Inactive)
REMARK    1  A    between atoms: C_2  and  C_4
REMARK    2  A    between atoms: C_8  and  O_9
REMARK    3  A    between atoms: O_9  and  C_10
REMARK    4  A    between atoms: C_10  and  C_11
REMARK    5  A    between atoms: C_16  and  C_17
REMARK                            x       y       z     vdW  Elec       q    Type
REMARK                         _______ _______ _______ _____ _____    ______ ____
ROOT
ATOM      1  C   UNL     1      44.924   5.720  11.013  0.00  0.00    +0.000 A 
ATOM      2  C   UNL     1      43.932   5.061  11.741  0.00  0.00    +0.000 A 
ATOM      3  C   UNL     1      43.580   3.764  11.397  0.00  0.00    +0.000 A 
ATOM      4  F   UNL     1      42.631   3.131  12.099  0.00  0.00    +0.000 F 
ATOM      5  C   UNL     1      44.197   3.105  10.337  0.00  0.00    +0.000 A 
ATOM      6  C   UNL     1      45.192   3.740   9.574  0.00  0.00    +0.000 A 
ATOM      7  C   UNL     1      45.533   5.060   9.933  0.00  0.00    +0.000 A 
ENDROOT
BRANCH   6   8
ATOM      8  C   UNL     1      45.850   3.060   8.438  0.00  0.00    +0.000 A 
ATOM      9  C   UNL     1      46.279   3.754   7.298  0.00  0.00    +0.000 A 
ATOM     10  N   UNL     1      46.875   3.196   6.214  0.00  0.00    +0.000 NA
ATOM     11  C   UNL     1      47.071   1.861   6.263  0.00  0.00    +0.000 A 
ATOM     12  C   UNL     1      46.699   1.080   7.336  0.00  0.00    +0.000 A 
ATOM     13  F   UNL     1      46.924  -0.240   7.332  0.00  0.00    +0.000 F 
ATOM     14  C   UNL     1      46.082   1.677   8.428  0.00  0.00    +0.000 A 
ENDBRANCH   6   8
BRANCH   1  15
ATOM     15  C   UNL     1      45.309   7.136  11.347  0.00  0.00    +0.000 C 
BRANCH  15  16
ATOM     16  O   UNL     1      45.820   7.158  12.677  0.00  0.00    +0.000 OA
BRANCH  16  21
ATOM     17  C   UNL     1      49.282   7.351  13.970  0.00  0.00    +0.000 A 
ATOM     18  C   UNL     1      49.894   7.675  12.767  0.00  0.00    +0.000 A 
ATOM     19  N   UNL     1      49.221   7.792  11.597  0.00  0.00    +0.000 NA
ATOM     20  C   UNL     1      47.880   7.601  11.648  0.00  0.00    +0.000 A 
ATOM     21  C   UNL     1      47.172   7.296  12.808  0.00  0.00    +0.000 A 
ATOM     22  C   UNL     1      47.897   7.168  13.989  0.00  0.00    +0.000 A 
BRANCH  17  24
ATOM     23  N   UNL     1      50.804   8.355  15.568  0.00  0.00    +0.000 N 
ATOM     24  C   UNL     1      50.099   7.245  15.193  0.00  0.00    +0.000 C 
ATOM     25  O   UNL     1      50.127   6.218  15.856  0.00  0.00    +0.000 OA
ATOM     26  H   UNL     1      51.283   8.298  16.460  0.00  0.00    +0.000 HD
ATOM     27  H   UNL     1      50.595   9.278  15.214  0.00  0.00    +0.000 HD
ENDBRANCH  17  24
ENDBRANCH  16  21
ENDBRANCH  15  16
ENDBRANCH   1  15
TORSDOF 5
ENDMDL
