MODEL 1
REMARK VINA RESULT:    -8.162      0.000      0.000
REMARK INTER + INTRA:         -10.659
REMARK INTER:                 -10.071
REMARK INTRA:                  -0.588
REMARK UNBOUND:                -0.588
REMARK  Name = 
REMARK  4 active torsions:
REMARK  status: ('A' for Active; 'I' for Inactive)
REMARK    1  A    between atoms: C_2  and  C_4
REMARK    2  A    between atoms: C_7  and  N_8
REMARK    3  A    between atoms: N_8  and  C_9
REMARK    4  A    between atoms: C_9  and  C_10
REMARK                            x       y       z     vdW  Elec       q    Type
REMARK                         _______ _______ _______ _____ _____    ______ ____
ROOT
ATOM      1  C   UNL     1      46.500   2.718   7.524  0.00  0.00    +0.000 A 
ATOM      2  C   UNL     1      46.068   4.037   7.691  0.00  0.00    +0.000 A 
ATOM      3  C   UNL     1      45.138   4.353   8.690  0.00  0.00    +0.000 A 
ATOM      4  C   UNL     1      44.624   3.361   9.526  0.00  0.00    +0.000 A 
ATOM      5  C   UNL     1      45.085   2.047   9.369  0.00  0.00    +0.000 A 
ATOM      6  C   UNL     1      45.997   1.720   8.362  0.00  0.00    +0.000 A 
ENDROOT
BRANCH   1   8
ATOM      7  N   UNL     1      47.445   3.055   5.303  0.00  0.00    +0.000 N 
ATOM      8  C   UNL     1      47.470   2.334   6.464  0.00  0.00    +0.000 C 
ATOM      9  O   UNL     1      48.283   1.435   6.629  0.00  0.00    +0.000 OA
ATOM     10  H   UNL     1      48.181   2.854   4.641  0.00  0.00    +0.000 HD
ATOM     11  H   UNL     1      46.990   3.956   5.241  0.00  0.00    +0.000 HD
ENDBRANCH   1   8
BRANCH   4  12
ATOM     12  N   UNL     1      43.737   3.625  10.593  0.00  0.00    +0.000 N 
ATOM     13  H   UNL     1      43.615   2.783  11.160  0.00  0.00    +0.000 HD
BRANCH  12  14
ATOM     14  C   UNL     1      43.851   4.841  11.444  0.00  0.00    +0.000 C 
ATOM     15  C   UNL     1      42.601   5.145  12.265  0.00  0.00    +0.000 C 
ATOM     16  C   UNL     1      42.999   6.066  11.160  0.00  0.00    +0.000 C 
BRANCH  14  17
ATOM     17  C   UNL     1      45.189   5.006  12.186  0.00  0.00    +0.000 A 
ATOM     18  C   UNL     1      46.029   6.099  11.940  0.00  0.00    +0.000 A 
ATOM     19  C   UNL     1      47.193   6.270  12.684  0.00  0.00    +0.000 A 
ATOM     20  C   UNL     1      47.514   5.336  13.657  0.00  0.00    +0.000 A 
ATOM     21  C   UNL     1      46.661   4.261  13.829  0.00  0.00    +0.000 A 
ATOM     22  N   UNL     1      45.525   4.074  13.120  0.00  0.00    +0.000 NA
ENDBRANCH  14  17
ENDBRANCH  12  14
ENDBRANCH   4  12
TORSDOF 4
ENDMDL
MODEL 2
REMARK VINA RESULT:    -8.043      0.939      1.434
REMARK INTER + INTRA:         -10.512
REMARK INTER:                 -10.413
REMARK INTRA:                  -0.099
REMARK UNBOUND:                -0.588
REMARK  Name = 
REMARK  4 active torsions:
REMARK  status: ('A' for Active; 'I' for Inactive)
REMARK    1  A    between atoms: C_2  and  C_4
REMARK    2  A    between atoms: C_7  and  N_8
REMARK    3  A    between atoms: N_8  and  C_9
REMARK    4  A    between atoms: C_9  and  C_10
REMARK                            x       y       z     vdW  Elec       q    Type
REMARK                         _______ _______ _______ _____ _____    ______ ____
ROOT
ATOM      1  C   UNL     1      46.406   2.258   7.760  0.00  0.00    +0.000 A 
ATOM      2  C   UNL     1      45.496   1.726   8.678  0.00  0.00    +0.000 A 
ATOM      3  C   UNL     1      44.636   2.573   9.389  0.00  0.00    +0.000 A 
ATOM      4  C   UNL     1      44.676   3.955   9.199  0.00  0.00    +0.000 A 
ATOM      5  C   UNL     1      45.572   4.475   8.255  0.00  0.00    +0.000 A 
ATOM      6  C   UNL     1      46.448   3.639   7.557  0.00  0.00    +0.000 A 
ENDROOT
BRANCH   1   8
ATOM      7  N   UNL     1      48.497   1.985   6.540  0.00  0.00    +0.000 N 
ATOM      8  C   UNL     1      47.352   1.398   7.000  0.00  0.00    +0.000 C 
ATOM      9  O   UNL     1      47.138   0.207   6.820  0.00  0.00    +0.000 OA
ATOM     10  H   UNL     1      49.178   1.363   6.124  0.00  0.00    +0.000 HD
ATOM     11  H   UNL     1      48.829   2.870   6.899  0.00  0.00    +0.000 HD
ENDBRANCH   1   8
BRANCH   4  12
ATOM     12  N   UNL     1      43.791   4.854   9.833  0.00  0.00    +0.000 N 
ATOM     13  H   UNL     1      42.832   4.668   9.532  0.00  0.00    +0.000 HD
BRANCH  12  14
ATOM     14  C   UNL     1      43.856   5.143  11.291  0.00  0.00    +0.000 C 
ATOM     15  C   UNL     1      42.991   4.222  12.147  0.00  0.00    +0.000 C 
ATOM     16  C   UNL     1      42.638   5.668  12.031  0.00  0.00    +0.000 C 
BRANCH  14  17
ATOM     17  C   UNL     1      45.261   5.438  11.845  0.00  0.00    +0.000 A 
ATOM     18  C   UNL     1      46.027   6.506  11.362  0.00  0.00    +0.000 A 
ATOM     19  C   UNL     1      47.259   6.802  11.937  0.00  0.00    +0.000 A 
ATOM     20  C   UNL     1      47.722   6.016  12.982  0.00  0.00    +0.000 A 
ATOM     21  C   UNL     1      46.934   4.955  13.392  0.00  0.00    +0.000 A 
ATOM     22  N   UNL     1      45.734   4.649  12.850  0.00  0.00    +0.000 NA
ENDBRANCH  14  17
ENDBRANCH  12  14
ENDBRANCH   4  12
TORSDOF 4
ENDMDL
MODEL 3
REMARK VINA RESULT:    -6.453      3.295      6.493
REMARK INTER + INTRA:          -8.551
REMARK INTER:                  -8.114
REMARK INTRA:                  -0.437
REMARK UNBOUND:                -0.588
REMARK  Name = 
REMARK  4 active torsions:
REMARK  status: ('A' for Active; 'I' for Inactive)
REMARK    1  A    between atoms: C_2  and  C_4
REMARK    2  A    between atoms: C_7  and  N_8
REMARK    3  A    between atoms: N_8  and  C_9
REMARK    4  A    between atoms: C_9  and  C_10
REMARK                            x       y       z     vdW  Elec       q    Type
REMARK                         _______ _______ _______ _____ _____    ______ ____
ROOT
ATOM      1  C   UNL     1      47.369   8.272  13.421  0.00  0.00    +0.000 A 
ATOM      2  C   UNL     1      47.918   7.240  12.657  0.00  0.00    +0.000 A 
ATOM      3  C   UNL     1      47.123   6.544  11.737  0.00  0.00    +0.000 A 
ATOM      4  C   UNL     1      45.774   6.863  11.575  0.00  0.00    +0.000 A 
ATOM      5  C   UNL     1      45.240   7.918  12.327  0.00  0.00    +0.000 A 
ATOM      6  C   UNL     1      46.022   8.604  13.261  0.00  0.00    +0.000 A 
ENDROOT
BRANCH   1   8
ATOM      7  N   UNL     1      47.652   9.134  15.683  0.00  0.00    +0.000 N 
ATOM      8  C   UNL     1      48.171   9.024  14.424  0.00  0.00    +0.000 C 
ATOM      9  O   UNL     1      49.267   9.496  14.150  0.00  0.00    +0.000 OA
ATOM     10  H   UNL     1      48.259   9.550  16.377  0.00  0.00    +0.000 HD
ATOM     11  H   UNL     1      46.905   8.537  16.010  0.00  0.00    +0.000 HD
ENDBRANCH   1   8
BRANCH   4  12
ATOM     12  N   UNL     1      44.937   6.245  10.620  0.00  0.00    +0.000 N 
ATOM     13  H   UNL     1      45.237   6.503   9.677  0.00  0.00    +0.000 HD
BRANCH  12  14
ATOM     14  C   UNL     1      44.564   4.807  10.697  0.00  0.00    +0.000 C 
ATOM     15  C   UNL     1      43.106   4.562  11.080  0.00  0.00    +0.000 C 
ATOM     16  C   UNL     1      44.194   4.173  12.027  0.00  0.00    +0.000 C 
BRANCH  14  17
ATOM     17  C   UNL     1      45.109   3.920   9.564  0.00  0.00    +0.000 A 
ATOM     18  C   UNL     1      45.685   4.476   8.415  0.00  0.00    +0.000 A 
ATOM     19  C   UNL     1      46.246   3.653   7.443  0.00  0.00    +0.000 A 
ATOM     20  C   UNL     1      46.212   2.278   7.622  0.00  0.00    +0.000 A 
ATOM     21  C   UNL     1      45.600   1.789   8.762  0.00  0.00    +0.000 A 
ATOM     22  N   UNL     1      45.049   2.568   9.720  0.00  0.00    +0.000 NA
ENDBRANCH  14  17
ENDBRANCH  12  14
ENDBRANCH   4  12
TORSDOF 4
ENDMDL
MODEL 4
REMARK VINA RESULT:    -5.880      2.991      6.424
REMARK INTER + INTRA:          -7.844
REMARK INTER:                  -7.945
REMARK INTRA:                   0.101
REMARK UNBOUND:                -0.588
REMARK  Name = 
REMARK  4 active torsions:
REMARK  status: ('A' for Active; 'I' for Inactive)
REMARK    1  A    between atoms: C_2  and  C_4
REMARK    2  A    between atoms: C_7  and  N_8
REMARK    3  A    between atoms: N_8  and  C_9
REMARK    4  A    between atoms: C_9  and  C_10
REMARK                            x       y       z     vdW  Elec       q    Type
REMARK                         _______ _______ _______ _____ _____    ______ ____
ROOT
ATOM      1  C   UNL     1      47.917   6.299  14.396  0.00  0.00    +0.000 A 
ATOM      2  C   UNL     1      47.088   5.183  14.259  0.00  0.00    +0.000 A 
ATOM      3  C   UNL     1      46.314   5.017  13.103  0.00  0.00    +0.000 A 
ATOM      4  C   UNL     1      46.353   5.962  12.077  0.00  0.00    +0.000 A 
ATOM      5  C   UNL     1      47.209   7.063  12.212  0.00  0.00    +0.000 A 
ATOM      6  C   UNL     1      47.969   7.246  13.371  0.00  0.00    +0.000 A 
ENDROOT
BRANCH   1   8
ATOM      7  N   UNL     1      48.314   7.488  16.486  0.00  0.00    +0.000 N 
ATOM      8  C   UNL     1      48.739   6.525  15.615  0.00  0.00    +0.000 C 
ATOM      9  O   UNL     1      49.736   5.856  15.853  0.00  0.00    +0.000 OA
ATOM     10  H   UNL     1      48.820   7.552  17.359  0.00  0.00    +0.000 HD
ATOM     11  H   UNL     1      47.372   7.855  16.462  0.00  0.00    +0.000 HD
ENDBRANCH   1   8
BRANCH   4  12
ATOM     12  N   UNL     1      45.650   5.820  10.860  0.00  0.00    +0.000 N 
ATOM     13  H   UNL     1      46.251   6.090  10.078  0.00  0.00    +0.000 HD
BRANCH  12  14
ATOM     14  C   UNL     1      44.852   4.606  10.537  0.00  0.00    +0.000 C 
ATOM     15  C   UNL     1      43.342   4.831  10.562  0.00  0.00    +0.000 C 
ATOM     16  C   UNL     1      43.974   3.954  11.592  0.00  0.00    +0.000 C 
BRANCH  14  17
ATOM     17  C   UNL     1      45.377   3.761   9.365  0.00  0.00    +0.000 A 
ATOM     18  C   UNL     1      45.950   4.357   8.234  0.00  0.00    +0.000 A 
ATOM     19  C   UNL     1      46.494   3.569   7.225  0.00  0.00    +0.000 A 
ATOM     20  C   UNL     1      46.445   2.188   7.348  0.00  0.00    +0.000 A 
ATOM     21  C   UNL     1      45.837   1.659   8.472  0.00  0.00    +0.000 A 
ATOM     22  N   UNL     1      45.303   2.405   9.466  0.00  0.00    +0.000 NA
ENDBRANCH  14  17
ENDBRANCH  12  14
ENDBRANCH   4  12
TORSDOF 4
ENDMDL
MODEL 5
REMARK VINA RESULT:    -5.661      3.362      5.222
REMARK INTER + INTRA:          -7.573
REMARK INTER:                  -7.099
REMARK INTRA:                  -0.474
REMARK UNBOUND:                -0.588
REMARK  Name = 
REMARK  4 active torsions:
REMARK  status: ('A' for Active; 'I' for Inactive)
REMARK    1  A    between atoms: C_2  and  C_4
REMARK    2  A    between atoms: C_7  and  N_8
REMARK    3  A    between atoms: N_8  and  C_9
REMARK    4  A    between atoms: C_9  and  C_10
REMARK                            x       y       z     vdW  Elec       q    Type
REMARK                         _______ _______ _______ _____ _____    ______ ____
ROOT
ATOM      1  C   UNL     1      44.531   4.152  11.603  0.00  0.00    +0.000 A 
ATOM      2  C   UNL     1      44.367   5.373  10.944  0.00  0.00    +0.000 A 
ATOM      3  C   UNL     1      44.920   6.543  11.479  0.00  0.00    +0.000 A 
ATOM      4  C   UNL     1      45.636   6.512  12.677  0.00  0.00    +0.000 A 
ATOM      5  C   UNL     1      45.818   5.277  13.315  0.00  0.00    +0.000 A 
ATOM      6  C   UNL     1      45.252   4.109  12.799  0.00  0.00    +0.000 A 
ENDROOT
BRANCH   1   8
ATOM      7  N   UNL     1      44.535   2.329   9.986  0.00  0.00    +0.000 N 
ATOM      8  C   UNL     1      43.942   2.889  11.082  0.00  0.00    +0.000 C 
ATOM      9  O   UNL     1      42.990   2.348  11.629  0.00  0.00    +0.000 OA
ATOM     10  H   UNL     1      44.193   1.418   9.714  0.00  0.00    +0.000 HD
ATOM     11  H   UNL     1      45.465   2.590   9.686  0.00  0.00    +0.000 HD
ENDBRANCH   1   8
BRANCH   4  12
ATOM     12  N   UNL     1      46.274   7.642  13.232  0.00  0.00    +0.000 N 
ATOM     13  H   UNL     1      45.892   7.835  14.161  0.00  0.00    +0.000 HD
BRANCH  12  14
ATOM     14  C   UNL     1      47.752   7.818  13.205  0.00  0.00    +0.000 C 
ATOM     15  C   UNL     1      48.229   8.921  12.264  0.00  0.00    +0.000 C 
ATOM     16  C   UNL     1      48.546   7.495  11.951  0.00  0.00    +0.000 C 
BRANCH  14  17
ATOM     17  C   UNL     1      48.450   7.767  14.575  0.00  0.00    +0.000 A 
ATOM     18  C   UNL     1      48.264   8.777  15.526  0.00  0.00    +0.000 A 
ATOM     19  C   UNL     1      48.839   8.667  16.789  0.00  0.00    +0.000 A 
ATOM     20  C   UNL     1      49.610   7.552  17.083  0.00  0.00    +0.000 A 
ATOM     21  C   UNL     1      49.783   6.605  16.090  0.00  0.00    +0.000 A 
ATOM     22  N   UNL     1      49.234   6.690  14.858  0.00  0.00    +0.000 NA
ENDBRANCH  14  17
ENDBRANCH  12  14
ENDBRANCH   4  12
TORSDOF 4
ENDMDL
MODEL 6
REMARK VINA RESULT:    -5.647      3.496      7.044
REMARK INTER + INTRA:          -7.556
REMARK INTER:                  -7.226
REMARK INTRA:                  -0.331
REMARK UNBOUND:                -0.588
REMARK  Name = 
REMARK  4 active torsions:
REMARK  status: ('A' for Active; 'I' for Inactive)
REMARK    1  A    between atoms: C_2  and  C_4
REMARK    2  A    between atoms: C_7  and  N_8
REMARK    3  A    between atoms: N_8  and  C_9
REMARK    4  A    between atoms: C_9  and  C_10
REMARK                            x       y       z     vdW  Elec       q    Type
REMARK                         _______ _______ _______ _____ _____    ______ ____
ROOT
ATOM      1  C   UNL     1      47.985   4.978  16.204  0.00  0.00    +0.000 A 
ATOM      2  C   UNL     1      47.152   4.086  15.523  0.00  0.00    +0.000 A 
ATOM      3  C   UNL     1      46.718   4.379  14.224  0.00  0.00    +0.000 A 
ATOM      4  C   UNL     1      47.101   5.563  13.593  0.00  0.00    +0.000 A 
ATOM      5  C   UNL     1      47.959   6.437  14.275  0.00  0.00    +0.000 A 
ATOM      6  C   UNL     1      48.380   6.162  15.579  0.00  0.00    +0.000 A 
ENDROOT
BRANCH   1   8
ATOM      7  N   UNL     1      47.506   4.377  18.517  0.00  0.00    +0.000 N 
ATOM      8  C   UNL     1      48.453   4.717  17.592  0.00  0.00    +0.000 C 
ATOM      9  O   UNL     1      49.638   4.767  17.893  0.00  0.00    +0.000 OA
ATOM     10  H   UNL     1      47.854   4.095  19.424  0.00  0.00    +0.000 HD
ATOM     11  H   UNL     1      46.584   4.062  18.250  0.00  0.00    +0.000 HD
ENDBRANCH   1   8
BRANCH   4  12
ATOM     12  N   UNL     1      46.753   5.885  12.264  0.00  0.00    +0.000 N 
ATOM     13  H   UNL     1      47.447   5.499  11.619  0.00  0.00    +0.000 HD
BRANCH  12  14
ATOM     14  C   UNL     1      45.371   5.717  11.737  0.00  0.00    +0.000 C 
ATOM     15  C   UNL     1      44.612   7.029  11.551  0.00  0.00    +0.000 C 
ATOM     16  C   UNL     1      44.168   6.061  12.598  0.00  0.00    +0.000 C 
BRANCH  14  17
ATOM     17  C   UNL     1      45.217   4.694  10.598  0.00  0.00    +0.000 A 
ATOM     18  C   UNL     1      44.635   3.440  10.818  0.00  0.00    +0.000 A 
ATOM     19  C   UNL     1      44.430   2.565   9.755  0.00  0.00    +0.000 A 
ATOM     20  C   UNL     1      44.825   2.948   8.482  0.00  0.00    +0.000 A 
ATOM     21  C   UNL     1      45.425   4.186   8.335  0.00  0.00    +0.000 A 
ATOM     22  N   UNL     1      45.632   5.053   9.352  0.00  0.00    +0.000 NA
ENDBRANCH  14  17
ENDBRANCH  12  14
ENDBRANCH   4  12
TORSDOF 4
ENDMDL
MODEL 7
REMARK VINA RESULT:    -5.351      3.200      5.528
REMARK INTER + INTRA:          -7.191
REMARK INTER:                  -7.021
REMARK INTRA:                  -0.170
REMARK UNBOUND:                -0.588
REMARK  Name = 
REMARK  4 active torsions:
REMARK  status: ('A' for Active; 'I' for Inactive)
REMARK    1  A    between atoms: C_2  and  C_4
REMARK    2  A    between atoms: C_7  and  N_8
REMARK    3  A    between atoms: N_8  and  C_9
REMARK    4  A    between atoms: C_9  and  C_10
REMARK                            x       y       z     vdW  Elec       q    Type
REMARK                         _______ _______ _______ _____ _____    ______ ____
ROOT
ATOM      1  C   UNL     1      44.847   4.786  11.312  0.00  0.00    +0.000 A 
ATOM      2  C   UNL     1      45.500   4.203  12.401  0.00  0.00    +0.000 A 
ATOM      3  C   UNL     1      46.282   4.988  13.257  0.00  0.00    +0.000 A 
ATOM      4  C   UNL     1      46.429   6.358  13.035  0.00  0.00    +0.000 A 
ATOM      5  C   UNL     1      45.747   6.938  11.956  0.00  0.00    +0.000 A 
ATOM      6  C   UNL     1      44.981   6.158  11.086  0.00  0.00    +0.000 A 
ENDROOT
BRANCH   1   8
ATOM      7  N   UNL     1      44.028   4.372   9.055  0.00  0.00    +0.000 N 
ATOM      8  C   UNL     1      44.023   3.987  10.366  0.00  0.00    +0.000 C 
ATOM      9  O   UNL     1      43.394   3.003  10.732  0.00  0.00    +0.000 OA
ATOM     10  H   UNL     1      43.554   3.754   8.410  0.00  0.00    +0.000 HD
ATOM     11  H   UNL     1      44.734   4.990   8.679  0.00  0.00    +0.000 HD
ENDBRANCH   1   8
BRANCH   4  12
ATOM     12  N   UNL     1      47.147   7.215  13.898  0.00  0.00    +0.000 N 
ATOM     13  H   UNL     1      46.792   7.124  14.852  0.00  0.00    +0.000 HD
BRANCH  12  14
ATOM     14  C   UNL     1      48.632   7.306  13.877  0.00  0.00    +0.000 C 
ATOM     15  C   UNL     1      49.166   8.639  13.359  0.00  0.00    +0.000 C 
ATOM     16  C   UNL     1      49.384   7.397  12.560  0.00  0.00    +0.000 C 
BRANCH  14  17
ATOM     17  C   UNL     1      49.347   6.742  15.117  0.00  0.00    +0.000 A 
ATOM     18  C   UNL     1      50.637   7.158  15.468  0.00  0.00    +0.000 A 
ATOM     19  C   UNL     1      51.229   6.696  16.640  0.00  0.00    +0.000 A 
ATOM     20  C   UNL     1      50.530   5.807  17.442  0.00  0.00    +0.000 A 
ATOM     21  C   UNL     1      49.274   5.407  17.024  0.00  0.00    +0.000 A 
ATOM     22  N   UNL     1      48.678   5.843  15.892  0.00  0.00    +0.000 NA
ENDBRANCH  14  17
ENDBRANCH  12  14
ENDBRANCH   4  12
TORSDOF 4
ENDMDL
