MODEL 1
REMARK VINA RESULT:    -7.749      0.000      0.000
REMARK INTER + INTRA:         -11.149
REMARK INTER:                 -10.693
REMARK INTRA:                  -0.456
REMARK UNBOUND:                -0.456
REMARK  Name = 
REMARK  7 active torsions:
REMARK  status: ('A' for Active; 'I' for Inactive)
REMARK    1  A    between atoms: N_1  and  C_2
REMARK    2  A    between atoms: C_2  and  C_3
REMARK    3  A    between atoms: C_6  and  C_7
REMARK    4  A    between atoms: C_7  and  C_8
REMARK    5  A    between atoms: C_8  and  S_9
REMARK    6  A    between atoms: S_9  and  C_10
REMARK    7  A    between atoms: C_13  and  C_14
REMARK                            x       y       z     vdW  Elec       q    Type
REMARK                         _______ _______ _______ _____ _____    ______ ____
ROOT
ATOM      1  C   UNL     1      43.361   3.608  11.409  0.00  0.00    +0.000 C 
ENDROOT
BRANCH   1   2
ATOM      2  C   UNL     1      43.739   4.397  10.148  0.00  0.00    +0.000 C 
BRANCH   2   6
ATOM      3  C   UNL     1      46.609   2.326   7.632  0.00  0.00    +0.000 A 
ATOM      4  C   UNL     1      45.772   1.610   8.499  0.00  0.00    +0.000 A 
ATOM      5  C   UNL     1      44.845   2.272   9.311  0.00  0.00    +0.000 A 
ATOM      6  C   UNL     1      44.732   3.668   9.268  0.00  0.00    +0.000 A 
ATOM      7  C   UNL     1      45.557   4.383   8.391  0.00  0.00    +0.000 A 
ATOM      8  C   UNL     1      46.484   3.720   7.581  0.00  0.00    +0.000 A 
BRANCH   3   9
ATOM      9  C   UNL     1      47.649   1.611   6.806  0.00  0.00    +0.000 C 
BRANCH   9  10
ATOM     10  N   UNL     1      48.619   2.537   6.232  0.00  0.00    +0.000 NA
ATOM     11  H   UNL     1      48.147   3.404   5.987  0.00  0.00    +0.000 HD
ATOM     12  H   UNL     1      48.972   2.142   5.362  0.00  0.00    +0.000 HD
ENDBRANCH   9  10
ENDBRANCH   3   9
ENDBRANCH   2   6
ENDBRANCH   1   2
BRANCH   1  13
ATOM     13  S   UNL     1      43.162   4.763  12.819  0.00  0.00    +0.000 S 
BRANCH  13  14
ATOM     14  C   UNL     1      44.847   5.256  13.139  0.00  0.00    +0.000 A 
ATOM     15  C   UNL     1      45.261   6.545  12.784  0.00  0.00    +0.000 A 
ATOM     16  N   UNL     1      46.520   7.024  12.988  0.00  0.00    +0.000 NA
ATOM     17  C   UNL     1      47.369   6.141  13.580  0.00  0.00    +0.000 A 
ATOM     18  C   UNL     1      46.971   4.858  13.934  0.00  0.00    +0.000 A 
ATOM     19  N   UNL     1      45.706   4.390  13.722  0.00  0.00    +0.000 NA
BRANCH  17  20
ATOM     20  C   UNL     1      48.765   6.592  13.848  0.00  0.00    +0.000 C 
ATOM     21  N   UNL     1      49.504   6.989  12.761  0.00  0.00    +0.000 N 
ATOM     22  O   UNL     1      49.236   6.611  14.978  0.00  0.00    +0.000 OA
ATOM     23  H   UNL     1      49.103   6.972  11.829  0.00  0.00    +0.000 HD
ATOM     24  H   UNL     1      50.452   7.305  12.899  0.00  0.00    +0.000 HD
ENDBRANCH  17  20
ENDBRANCH  13  14
ENDBRANCH   1  13
TORSDOF 7
ENDMDL
MODEL 2
REMARK VINA RESULT:    -7.676      0.652      1.533
REMARK INTER + INTRA:         -11.049
REMARK INTER:                 -10.566
REMARK INTRA:                  -0.483
REMARK UNBOUND:                -0.456
REMARK  Name = 
REMARK  7 active torsions:
REMARK  status: ('A' for Active; 'I' for Inactive)
REMARK    1  A    between atoms: N_1  and  C_2
REMARK    2  A    between atoms: C_2  and  C_3
REMARK    3  A    between atoms: C_6  and  C_7
REMARK    4  A    between atoms: C_7  and  C_8
REMARK    5  A    between atoms: C_8  and  S_9
REMARK    6  A    between atoms: S_9  and  C_10
REMARK    7  A    between atoms: C_13  and  C_14
REMARK                            x       y       z     vdW  Elec       q    Type
REMARK                         _______ _______ _______ _____ _____    ______ ____
ROOT
ATOM      1  C   UNL     1      43.386   3.662  11.398  0.00  0.00    +0.000 C 
ENDROOT
BRANCH   1   2
ATOM      2  C   UNL     1      43.850   4.512  10.207  0.00  0.00    +0.000 C 
BRANCH   2   6
ATOM      3  C   UNL     1      46.589   2.387   7.592  0.00  0.00    +0.000 A 
ATOM      4  C   UNL     1      46.486   3.784   7.535  0.00  0.00    +0.000 A 
ATOM      5  C   UNL     1      45.607   4.474   8.375  0.00  0.00    +0.000 A 
ATOM      6  C   UNL     1      44.813   3.779   9.297  0.00  0.00    +0.000 A 
ATOM      7  C   UNL     1      44.926   2.385   9.365  0.00  0.00    +0.000 A 
ATOM      8  C   UNL     1      45.805   1.696   8.523  0.00  0.00    +0.000 A 
BRANCH   3   9
ATOM      9  C   UNL     1      47.494   1.645   6.639  0.00  0.00    +0.000 C 
BRANCH   9  10
ATOM     10  N   UNL     1      48.621   2.464   6.209  0.00  0.00    +0.000 NA
ATOM     11  H   UNL     1      49.247   1.898   5.641  0.00  0.00    +0.000 HD
ATOM     12  H   UNL     1      49.152   2.747   7.032  0.00  0.00    +0.000 HD
ENDBRANCH   9  10
ENDBRANCH   3   9
ENDBRANCH   2   6
ENDBRANCH   1   2
BRANCH   1  13
ATOM     13  S   UNL     1      43.242   4.722  12.887  0.00  0.00    +0.000 S 
BRANCH  13  14
ATOM     14  C   UNL     1      44.904   5.349  13.062  0.00  0.00    +0.000 A 
ATOM     15  C   UNL     1      45.924   4.480  13.467  0.00  0.00    +0.000 A 
ATOM     16  N   UNL     1      47.224   4.853  13.626  0.00  0.00    +0.000 NA
ATOM     17  C   UNL     1      47.472   6.163  13.353  0.00  0.00    +0.000 A 
ATOM     18  C   UNL     1      46.467   7.036  12.954  0.00  0.00    +0.000 A 
ATOM     19  N   UNL     1      45.168   6.649  12.800  0.00  0.00    +0.000 NA
BRANCH  17  20
ATOM     20  C   UNL     1      48.875   6.649  13.494  0.00  0.00    +0.000 C 
ATOM     21  N   UNL     1      49.508   7.044  12.343  0.00  0.00    +0.000 N 
ATOM     22  O   UNL     1      49.440   6.695  14.580  0.00  0.00    +0.000 OA
ATOM     23  H   UNL     1      49.030   7.005  11.450  0.00  0.00    +0.000 HD
ATOM     24  H   UNL     1      50.457   7.383  12.396  0.00  0.00    +0.000 HD
ENDBRANCH  17  20
ENDBRANCH  13  14
ENDBRANCH   1  13
TORSDOF 7
ENDMDL
MODEL 3
REMARK VINA RESULT:    -7.113      1.765      2.177
REMARK INTER + INTRA:         -10.272
REMARK INTER:                  -9.928
REMARK INTRA:                  -0.344
REMARK UNBOUND:                -0.456
REMARK  Name = 
REMARK  7 active torsions:
REMARK  status: ('A' for Active; 'I' for Inactive)
REMARK    1  A    between atoms: N_1  and  C_2
REMARK    2  A    between atoms: C_2  and  C_3
REMARK    3  A    between atoms: C_6  and  C_7
REMARK    4  A    between atoms: C_7  and  C_8
REMARK    5  A    between atoms: C_8  and  S_9
REMARK    6  A    between atoms: S_9  and  C_10
REMARK    7  A    between atoms: C_13  and  C_14
REMARK                            x       y       z     vdW  Elec       q    Type
REMARK                         _______ _______ _______ _____ _____    ______ ____
ROOT
ATOM      1  C   UNL     1      44.384   4.666  11.302  0.00  0.00    +0.000 C 
ENDROOT
BRANCH   1   2
ATOM      2  C   UNL     1      43.939   4.491   9.843  0.00  0.00    +0.000 C 
BRANCH   2   6
ATOM      3  C   UNL     1      46.758   2.172   7.491  0.00  0.00    +0.000 A 
ATOM      4  C   UNL     1      45.915   1.544   8.419  0.00  0.00    +0.000 A 
ATOM      5  C   UNL     1      45.005   2.286   9.178  0.00  0.00    +0.000 A 
ATOM      6  C   UNL     1      44.914   3.675   9.021  0.00  0.00    +0.000 A 
ATOM      7  C   UNL     1      45.745   4.301   8.084  0.00  0.00    +0.000 A 
ATOM      8  C   UNL     1      46.656   3.558   7.326  0.00  0.00    +0.000 A 
BRANCH   3   9
ATOM      9  C   UNL     1      47.781   1.374   6.722  0.00  0.00    +0.000 C 
BRANCH   9  10
ATOM     10  N   UNL     1      48.425   2.171   5.684  0.00  0.00    +0.000 NA
ATOM     11  H   UNL     1      48.009   3.100   5.672  0.00  0.00    +0.000 HD
ATOM     12  H   UNL     1      48.224   1.751   4.778  0.00  0.00    +0.000 HD
ENDBRANCH   9  10
ENDBRANCH   3   9
ENDBRANCH   2   6
ENDBRANCH   1   2
BRANCH   1  13
ATOM     13  S   UNL     1      45.504   6.113  11.431  0.00  0.00    +0.000 S 
BRANCH  13  14
ATOM     14  C   UNL     1      46.366   5.783  12.958  0.00  0.00    +0.000 A 
ATOM     15  C   UNL     1      46.008   4.663  13.717  0.00  0.00    +0.000 A 
ATOM     16  N   UNL     1      46.604   4.317  14.892  0.00  0.00    +0.000 NA
ATOM     17  C   UNL     1      47.600   5.156  15.287  0.00  0.00    +0.000 A 
ATOM     18  C   UNL     1      47.962   6.272  14.543  0.00  0.00    +0.000 A 
ATOM     19  N   UNL     1      47.356   6.608  13.368  0.00  0.00    +0.000 NA
BRANCH  17  20
ATOM     20  C   UNL     1      48.310   4.841  16.560  0.00  0.00    +0.000 C 
ATOM     21  N   UNL     1      47.999   5.617  17.647  0.00  0.00    +0.000 N 
ATOM     22  O   UNL     1      49.132   3.935  16.637  0.00  0.00    +0.000 OA
ATOM     23  H   UNL     1      47.315   6.362  17.573  0.00  0.00    +0.000 HD
ATOM     24  H   UNL     1      48.454   5.433  18.529  0.00  0.00    +0.000 HD
ENDBRANCH  17  20
ENDBRANCH  13  14
ENDBRANCH   1  13
TORSDOF 7
ENDMDL
MODEL 4
REMARK VINA RESULT:    -6.826      2.957      6.321
REMARK INTER + INTRA:          -9.876
REMARK INTER:                  -9.396
REMARK INTRA:                  -0.480
REMARK UNBOUND:                -0.456
REMARK  Name = 
REMARK  7 active torsions:
REMARK  status: ('A' for Active; 'I' for Inactive)
REMARK    1  A    between atoms: N_1  and  C_2
REMARK    2  A    between atoms: C_2  and  C_3
REMARK    3  A    between atoms: C_6  and  C_7
REMARK    4  A    between atoms: C_7  and  C_8
REMARK    5  A    between atoms: C_8  and  S_9
REMARK    6  A    between atoms: S_9  and  C_10
REMARK    7  A    between atoms: C_13  and  C_14
REMARK                            x       y       z     vdW  Elec       q    Type
REMARK                         _______ _______ _______ _____ _____    ______ ____
ROOT
ATOM      1  C   UNL     1      43.291   4.992  10.978  0.00  0.00    +0.000 C 
ENDROOT
BRANCH   1   2
ATOM      2  C   UNL     1      43.550   5.612  12.358  0.00  0.00    +0.000 C 
BRANCH   2   6
ATOM      3  C   UNL     1      47.554   7.240  12.780  0.00  0.00    +0.000 A 
ATOM      4  C   UNL     1      47.263   5.937  13.210  0.00  0.00    +0.000 A 
ATOM      5  C   UNL     1      45.976   5.408  13.075  0.00  0.00    +0.000 A 
ATOM      6  C   UNL     1      44.950   6.170  12.502  0.00  0.00    +0.000 A 
ATOM      7  C   UNL     1      45.243   7.466  12.059  0.00  0.00    +0.000 A 
ATOM      8  C   UNL     1      46.530   7.995  12.195  0.00  0.00    +0.000 A 
BRANCH   3   9
ATOM      9  C   UNL     1      48.928   7.827  12.986  0.00  0.00    +0.000 C 
BRANCH   9  10
ATOM     10  N   UNL     1      49.981   6.903  12.580  0.00  0.00    +0.000 NA
ATOM     11  H   UNL     1      50.101   6.958  11.571  0.00  0.00    +0.000 HD
ATOM     12  H   UNL     1      49.677   5.952  12.785  0.00  0.00    +0.000 HD
ENDBRANCH   9  10
ENDBRANCH   3   9
ENDBRANCH   2   6
ENDBRANCH   1   2
BRANCH   1  13
ATOM     13  S   UNL     1      43.716   3.208  11.017  0.00  0.00    +0.000 S 
BRANCH  13  14
ATOM     14  C   UNL     1      44.773   3.044   9.589  0.00  0.00    +0.000 A 
ATOM     15  C   UNL     1      45.129   4.188   8.867  0.00  0.00    +0.000 A 
ATOM     16  N   UNL     1      45.934   4.175   7.767  0.00  0.00    +0.000 NA
ATOM     17  C   UNL     1      46.382   2.940   7.412  0.00  0.00    +0.000 A 
ATOM     18  C   UNL     1      46.033   1.797   8.120  0.00  0.00    +0.000 A 
ATOM     19  N   UNL     1      45.225   1.824   9.219  0.00  0.00    +0.000 NA
BRANCH  17  20
ATOM     20  C   UNL     1      47.277   2.842   6.223  0.00  0.00    +0.000 C 
ATOM     21  N   UNL     1      48.593   2.539   6.466  0.00  0.00    +0.000 N 
ATOM     22  O   UNL     1      46.865   3.021   5.084  0.00  0.00    +0.000 OA
ATOM     23  H   UNL     1      48.923   2.389   7.413  0.00  0.00    +0.000 HD
ATOM     24  H   UNL     1      49.231   2.460   5.688  0.00  0.00    +0.000 HD
ENDBRANCH  17  20
ENDBRANCH  13  14
ENDBRANCH   1  13
TORSDOF 7
ENDMDL
MODEL 5
REMARK VINA RESULT:    -6.350      2.968      6.693
REMARK INTER + INTRA:          -9.218
REMARK INTER:                  -8.824
REMARK INTRA:                  -0.394
REMARK UNBOUND:                -0.456
REMARK  Name = 
REMARK  7 active torsions:
REMARK  status: ('A' for Active; 'I' for Inactive)
REMARK    1  A    between atoms: N_1  and  C_2
REMARK    2  A    between atoms: C_2  and  C_3
REMARK    3  A    between atoms: C_6  and  C_7
REMARK    4  A    between atoms: C_7  and  C_8
REMARK    5  A    between atoms: C_8  and  S_9
REMARK    6  A    between atoms: S_9  and  C_10
REMARK    7  A    between atoms: C_13  and  C_14
REMARK                            x       y       z     vdW  Elec       q    Type
REMARK                         _______ _______ _______ _____ _____    ______ ____
ROOT
ATOM      1  C   UNL     1      44.393   5.987  11.280  0.00  0.00    +0.000 C 
ENDROOT
BRANCH   1   2
ATOM      2  C   UNL     1      45.193   5.915  12.589  0.00  0.00    +0.000 C 
BRANCH   2   6
ATOM      3  C   UNL     1      48.927   8.125  12.412  0.00  0.00    +0.000 A 
ATOM      4  C   UNL     1      47.715   8.743  12.074  0.00  0.00    +0.000 A 
ATOM      5  C   UNL     1      46.509   8.036  12.130  0.00  0.00    +0.000 A 
ATOM      6  C   UNL     1      46.490   6.694  12.531  0.00  0.00    +0.000 A 
ATOM      7  C   UNL     1      47.699   6.080  12.884  0.00  0.00    +0.000 A 
ATOM      8  C   UNL     1      48.904   6.788  12.826  0.00  0.00    +0.000 A 
BRANCH   3   9
ATOM      9  C   UNL     1      50.230   8.875  12.288  0.00  0.00    +0.000 C 
BRANCH   9  10
ATOM     10  N   UNL     1      51.382   7.989  12.416  0.00  0.00    +0.000 NA
ATOM     11  H   UNL     1      51.171   7.264  13.099  0.00  0.00    +0.000 HD
ATOM     12  H   UNL     1      52.164   8.523  12.791  0.00  0.00    +0.000 HD
ENDBRANCH   9  10
ENDBRANCH   3   9
ENDBRANCH   2   6
ENDBRANCH   1   2
BRANCH   1  13
ATOM     13  S   UNL     1      43.734   4.325  10.873  0.00  0.00    +0.000 S 
BRANCH  13  14
ATOM     14  C   UNL     1      44.848   3.786   9.587  0.00  0.00    +0.000 A 
ATOM     15  C   UNL     1      45.059   2.416   9.395  0.00  0.00    +0.000 A 
ATOM     16  N   UNL     1      45.883   1.898   8.441  0.00  0.00    +0.000 NA
ATOM     17  C   UNL     1      46.500   2.830   7.664  0.00  0.00    +0.000 A 
ATOM     18  C   UNL     1      46.300   4.192   7.848  0.00  0.00    +0.000 A 
ATOM     19  N   UNL     1      45.474   4.697   8.808  0.00  0.00    +0.000 NA
BRANCH  17  20
ATOM     20  C   UNL     1      47.411   2.343   6.589  0.00  0.00    +0.000 C 
ATOM     21  N   UNL     1      47.295   2.947   5.362  0.00  0.00    +0.000 N 
ATOM     22  O   UNL     1      48.226   1.449   6.784  0.00  0.00    +0.000 OA
ATOM     23  H   UNL     1      46.619   3.688   5.213  0.00  0.00    +0.000 HD
ATOM     24  H   UNL     1      47.896   2.649   4.609  0.00  0.00    +0.000 HD
ENDBRANCH  17  20
ENDBRANCH  13  14
ENDBRANCH   1  13
TORSDOF 7
ENDMDL
MODEL 6
REMARK VINA RESULT:    -6.006      3.494      4.977
REMARK INTER + INTRA:          -8.743
REMARK INTER:                  -8.093
REMARK INTRA:                  -0.650
REMARK UNBOUND:                -0.456
REMARK  Name = 
REMARK  7 active torsions:
REMARK  status: ('A' for Active; 'I' for Inactive)
REMARK    1  A    between atoms: N_1  and  C_2
REMARK    2  A    between atoms: C_2  and  C_3
REMARK    3  A    between atoms: C_6  and  C_7
REMARK    4  A    between atoms: C_7  and  C_8
REMARK    5  A    between atoms: C_8  and  S_9
REMARK    6  A    between atoms: S_9  and  C_10
REMARK    7  A    between atoms: C_13  and  C_14
REMARK                            x       y       z     vdW  Elec       q    Type
REMARK                         _______ _______ _______ _____ _____    ______ ____
ROOT
ATOM      1  C   UNL     1      46.853   8.262  13.385  0.00  0.00    +0.000 C 
ENDROOT
BRANCH   1   2
ATOM      2  C   UNL     1      46.022   8.192  12.096  0.00  0.00    +0.000 C 
BRANCH   2   6
ATOM      3  C   UNL     1      44.292   4.268  11.412  0.00  0.00    +0.000 A 
ATOM      4  C   UNL     1      44.015   4.975  12.591  0.00  0.00    +0.000 A 
ATOM      5  C   UNL     1      44.569   6.240  12.815  0.00  0.00    +0.000 A 
ATOM      6  C   UNL     1      45.409   6.827  11.861  0.00  0.00    +0.000 A 
ATOM      7  C   UNL     1      45.675   6.128  10.677  0.00  0.00    +0.000 A 
ATOM      8  C   UNL     1      45.121   4.863  10.454  0.00  0.00    +0.000 A 
BRANCH   3   9
ATOM      9  C   UNL     1      43.742   2.879  11.204  0.00  0.00    +0.000 C 
BRANCH   9  10
ATOM     10  N   UNL     1      43.486   2.200  12.469  0.00  0.00    +0.000 NA
ATOM     11  H   UNL     1      43.989   2.680  13.213  0.00  0.00    +0.000 HD
ATOM     12  H   UNL     1      43.871   1.258  12.419  0.00  0.00    +0.000 HD
ENDBRANCH   9  10
ENDBRANCH   3   9
ENDBRANCH   2   6
ENDBRANCH   1   2
BRANCH   1  13
ATOM     13  S   UNL     1      48.350   7.218  13.206  0.00  0.00    +0.000 S 
BRANCH  13  14
ATOM     14  C   UNL     1      48.113   6.002  14.491  0.00  0.00    +0.000 A 
ATOM     15  C   UNL     1      48.670   6.226  15.755  0.00  0.00    +0.000 A 
ATOM     16  N   UNL     1      48.545   5.367  16.806  0.00  0.00    +0.000 NA
ATOM     17  C   UNL     1      47.820   4.248  16.534  0.00  0.00    +0.000 A 
ATOM     18  C   UNL     1      47.265   4.014  15.283  0.00  0.00    +0.000 A 
ATOM     19  N   UNL     1      47.399   4.882  14.239  0.00  0.00    +0.000 NA
BRANCH  17  20
ATOM     20  C   UNL     1      47.628   3.261  17.636  0.00  0.00    +0.000 C 
ATOM     21  N   UNL     1      48.628   3.182  18.573  0.00  0.00    +0.000 N 
ATOM     22  O   UNL     1      46.631   2.553  17.707  0.00  0.00    +0.000 OA
ATOM     23  H   UNL     1      49.448   3.775  18.506  0.00  0.00    +0.000 HD
ATOM     24  H   UNL     1      48.535   2.529  19.337  0.00  0.00    +0.000 HD
ENDBRANCH  17  20
ENDBRANCH  13  14
ENDBRANCH   1  13
TORSDOF 7
ENDMDL
MODEL 7
REMARK VINA RESULT:    -6.003      3.490      6.906
REMARK INTER + INTRA:          -8.739
REMARK INTER:                  -8.137
REMARK INTRA:                  -0.602
REMARK UNBOUND:                -0.456
REMARK  Name = 
REMARK  7 active torsions:
REMARK  status: ('A' for Active; 'I' for Inactive)
REMARK    1  A    between atoms: N_1  and  C_2
REMARK    2  A    between atoms: C_2  and  C_3
REMARK    3  A    between atoms: C_6  and  C_7
REMARK    4  A    between atoms: C_7  and  C_8
REMARK    5  A    between atoms: C_8  and  S_9
REMARK    6  A    between atoms: S_9  and  C_10
REMARK    7  A    between atoms: C_13  and  C_14
REMARK                            x       y       z     vdW  Elec       q    Type
REMARK                         _______ _______ _______ _____ _____    ______ ____
ROOT
ATOM      1  C   UNL     1      46.779   8.405  13.549  0.00  0.00    +0.000 C 
ENDROOT
BRANCH   1   2
ATOM      2  C   UNL     1      47.778   7.273  13.269  0.00  0.00    +0.000 C 
BRANCH   2   6
ATOM      3  C   UNL     1      47.960   4.368  16.491  0.00  0.00    +0.000 A 
ATOM      4  C   UNL     1      47.196   4.114  15.342  0.00  0.00    +0.000 A 
ATOM      5  C   UNL     1      47.135   5.046  14.301  0.00  0.00    +0.000 A 
ATOM      6  C   UNL     1      47.842   6.252  14.385  0.00  0.00    +0.000 A 
ATOM      7  C   UNL     1      48.617   6.501  15.525  0.00  0.00    +0.000 A 
ATOM      8  C   UNL     1      48.676   5.568  16.566  0.00  0.00    +0.000 A 
BRANCH   3   9
ATOM      9  C   UNL     1      47.970   3.387  17.637  0.00  0.00    +0.000 C 
BRANCH   9  10
ATOM     10  N   UNL     1      46.684   2.719  17.793  0.00  0.00    +0.000 NA
ATOM     11  H   UNL     1      46.683   1.864  17.241  0.00  0.00    +0.000 HD
ATOM     12  H   UNL     1      45.956   3.317  17.405  0.00  0.00    +0.000 HD
ENDBRANCH   9  10
ENDBRANCH   3   9
ENDBRANCH   2   6
ENDBRANCH   1   2
BRANCH   1  13
ATOM     13  S   UNL     1      45.673   8.618  12.101  0.00  0.00    +0.000 S 
BRANCH  13  14
ATOM     14  C   UNL     1      45.190   6.937  11.749  0.00  0.00    +0.000 A 
ATOM     15  C   UNL     1      44.295   6.289  12.607  0.00  0.00    +0.000 A 
ATOM     16  N   UNL     1      43.856   5.012  12.429  0.00  0.00    +0.000 NA
ATOM     17  C   UNL     1      44.361   4.393  11.326  0.00  0.00    +0.000 A 
ATOM     18  C   UNL     1      45.252   5.025  10.469  0.00  0.00    +0.000 A 
ATOM     19  N   UNL     1      45.684   6.305  10.660  0.00  0.00    +0.000 NA
BRANCH  17  20
ATOM     20  C   UNL     1      43.922   2.994  11.054  0.00  0.00    +0.000 C 
ATOM     21  N   UNL     1      44.643   2.292  10.121  0.00  0.00    +0.000 N 
ATOM     22  O   UNL     1      42.966   2.490  11.630  0.00  0.00    +0.000 OA
ATOM     23  H   UNL     1      45.435   2.718   9.652  0.00  0.00    +0.000 HD
ATOM     24  H   UNL     1      44.381   1.341   9.911  0.00  0.00    +0.000 HD
ENDBRANCH  17  20
ENDBRANCH  13  14
ENDBRANCH   1  13
TORSDOF 7
ENDMDL
MODEL 8
REMARK VINA RESULT:    -5.603      3.710      5.388
REMARK INTER + INTRA:          -8.188
REMARK INTER:                  -7.773
REMARK INTRA:                  -0.414
REMARK UNBOUND:                -0.456
REMARK  Name = 
REMARK  7 active torsions:
REMARK  status: ('A' for Active; 'I' for Inactive)
REMARK    1  A    between atoms: N_1  and  C_2
REMARK    2  A    between atoms: C_2  and  C_3
REMARK    3  A    between atoms: C_6  and  C_7
REMARK    4  A    between atoms: C_7  and  C_8
REMARK    5  A    between atoms: C_8  and  S_9
REMARK    6  A    between atoms: S_9  and  C_10
REMARK    7  A    between atoms: C_13  and  C_14
REMARK                            x       y       z     vdW  Elec       q    Type
REMARK                         _______ _______ _______ _____ _____    ______ ____
ROOT
ATOM      1  C   UNL     1      48.719   6.640  13.029  0.00  0.00    +0.000 C 
ENDROOT
BRANCH   1   2
ATOM      2  C   UNL     1      47.302   7.127  12.692  0.00  0.00    +0.000 C 
BRANCH   2   6
ATOM      3  C   UNL     1      44.746   3.964  11.170  0.00  0.00    +0.000 A 
ATOM      4  C   UNL     1      45.261   3.902  12.473  0.00  0.00    +0.000 A 
ATOM      5  C   UNL     1      46.084   4.918  12.968  0.00  0.00    +0.000 A 
ATOM      6  C   UNL     1      46.406   6.024  12.170  0.00  0.00    +0.000 A 
ATOM      7  C   UNL     1      45.880   6.095  10.874  0.00  0.00    +0.000 A 
ATOM      8  C   UNL     1      45.059   5.077  10.380  0.00  0.00    +0.000 A 
BRANCH   3   9
ATOM      9  C   UNL     1      43.912   2.834  10.621  0.00  0.00    +0.000 C 
BRANCH   9  10
ATOM     10  N   UNL     1      43.054   2.245  11.642  0.00  0.00    +0.000 NA
ATOM     11  H   UNL     1      43.612   1.633  12.234  0.00  0.00    +0.000 HD
ATOM     12  H   UNL     1      42.361   1.654  11.185  0.00  0.00    +0.000 HD
ENDBRANCH   9  10
ENDBRANCH   3   9
ENDBRANCH   2   6
ENDBRANCH   1   2
BRANCH   1  13
ATOM     13  S   UNL     1      49.424   7.682  14.363  0.00  0.00    +0.000 S 
BRANCH  13  14
ATOM     14  C   UNL     1      49.152   6.673  15.809  0.00  0.00    +0.000 A 
ATOM     15  C   UNL     1      49.726   7.054  17.027  0.00  0.00    +0.000 A 
ATOM     16  N   UNL     1      49.578   6.360  18.190  0.00  0.00    +0.000 NA
ATOM     17  C   UNL     1      48.809   5.242  18.084  0.00  0.00    +0.000 A 
ATOM     18  C   UNL     1      48.236   4.852  16.880  0.00  0.00    +0.000 A 
ATOM     19  N   UNL     1      48.394   5.556  15.722  0.00  0.00    +0.000 NA
BRANCH  17  20
ATOM     20  C   UNL     1      48.589   4.431  19.316  0.00  0.00    +0.000 C 
ATOM     21  N   UNL     1      48.439   3.078  19.145  0.00  0.00    +0.000 N 
ATOM     22  O   UNL     1      48.544   4.941  20.429  0.00  0.00    +0.000 OA
ATOM     23  H   UNL     1      48.482   2.666  18.219  0.00  0.00    +0.000 HD
ATOM     24  H   UNL     1      48.293   2.493  19.954  0.00  0.00    +0.000 HD
ENDBRANCH  17  20
ENDBRANCH  13  14
ENDBRANCH   1  13
TORSDOF 7
ENDMDL
MODEL 9
REMARK VINA RESULT:    -5.230      2.621      3.515
REMARK INTER + INTRA:          -7.673
REMARK INTER:                  -7.217
REMARK INTRA:                  -0.456
REMARK UNBOUND:                -0.456
REMARK  Name = 
REMARK  7 active torsions:
REMARK  status: ('A' for Active; 'I' for Inactive)
REMARK    1  A    between atoms: N_1  and  C_2
REMARK    2  A    between atoms: C_2  and  C_3
REMARK    3  A    between atoms: C_6  and  C_7
REMARK    4  A    between atoms: C_7  and  C_8
REMARK    5  A    between atoms: C_8  and  S_9
REMARK    6  A    between atoms: S_9  and  C_10
REMARK    7  A    between atoms: C_13  and  C_14
REMARK                            x       y       z     vdW  Elec       q    Type
REMARK                         _______ _______ _______ _____ _____    ______ ____
ROOT
ATOM      1  C   UNL     1      45.365   6.244  12.986  0.00  0.00    +0.000 C 
ENDROOT
BRANCH   1   2
ATOM      2  C   UNL     1      44.199   5.721  12.134  0.00  0.00    +0.000 C 
BRANCH   2   6
ATOM      3  C   UNL     1      45.475   3.832   8.438  0.00  0.00    +0.000 A 
ATOM      4  C   UNL     1      46.048   5.041   8.858  0.00  0.00    +0.000 A 
ATOM      5  C   UNL     1      45.642   5.653  10.048  0.00  0.00    +0.000 A 
ATOM      6  C   UNL     1      44.654   5.065  10.848  0.00  0.00    +0.000 A 
ATOM      7  C   UNL     1      44.092   3.850  10.438  0.00  0.00    +0.000 A 
ATOM      8  C   UNL     1      44.498   3.239   9.247  0.00  0.00    +0.000 A 
BRANCH   3   9
ATOM      9  C   UNL     1      45.873   3.210   7.123  0.00  0.00    +0.000 C 
BRANCH   9  10
ATOM     10  N   UNL     1      46.893   3.994   6.437  0.00  0.00    +0.000 NA
ATOM     11  H   UNL     1      47.810   3.730   6.790  0.00  0.00    +0.000 HD
ATOM     12  H   UNL     1      46.763   4.977   6.673  0.00  0.00    +0.000 HD
ENDBRANCH   9  10
ENDBRANCH   3   9
ENDBRANCH   2   6
ENDBRANCH   1   2
BRANCH   1  13
ATOM     13  S   UNL     1      45.517   8.058  12.769  0.00  0.00    +0.000 S 
BRANCH  13  14
ATOM     14  C   UNL     1      47.240   8.240  12.338  0.00  0.00    +0.000 A 
ATOM     15  C   UNL     1      47.732   9.508  12.011  0.00  0.00    +0.000 A 
ATOM     16  N   UNL     1      49.028   9.759  11.673  0.00  0.00    +0.000 NA
ATOM     17  C   UNL     1      49.833   8.662  11.681  0.00  0.00    +0.000 A 
ATOM     18  C   UNL     1      49.355   7.398  12.001  0.00  0.00    +0.000 A 
ATOM     19  N   UNL     1      48.054   7.161  12.336  0.00  0.00    +0.000 NA
BRANCH  17  20
ATOM     20  C   UNL     1      51.271   8.854  11.332  0.00  0.00    +0.000 C 
ATOM     21  N   UNL     1      52.104   7.784  11.542  0.00  0.00    +0.000 N 
ATOM     22  O   UNL     1      51.693   9.912  10.880  0.00  0.00    +0.000 OA
ATOM     23  H   UNL     1      51.743   6.912  11.913  0.00  0.00    +0.000 HD
ATOM     24  H   UNL     1      53.083   7.872  11.315  0.00  0.00    +0.000 HD
ENDBRANCH  17  20
ENDBRANCH  13  14
ENDBRANCH   1  13
TORSDOF 7
ENDMDL
