MODEL 1
REMARK VINA RESULT:    -7.112      0.000      0.000
REMARK INTER + INTRA:          -9.683
REMARK INTER:                  -9.191
REMARK INTRA:                  -0.492
REMARK UNBOUND:                -0.492
REMARK  Name = 
REMARK  6 active torsions:
REMARK  status: ('A' for Active; 'I' for Inactive)
REMARK    1  A    between atoms: N_1  and  C_2
REMARK    2  A    between atoms: C_2  and  C_3
REMARK    3  A    between atoms: C_3  and  N_4
REMARK    4  A    between atoms: C_3  and  C_5
REMARK    5  A    between atoms: N_7  and  C_8
REMARK    6  A    between atoms: C_8  and  C_9
REMARK                            x       y       z     vdW  Elec       q    Type
REMARK                         _______ _______ _______ _____ _____    ______ ____
ROOT
ATOM      1  C   UNL     1      45.979   6.004  11.066  0.00  0.00    +0.000 A 
ATOM      2  C   UNL     1      45.917   5.732   9.712  0.00  0.00    +0.000 A 
ATOM      3  N   UNL     1      45.022   4.712   9.501  0.00  0.00    +0.000 N 
ATOM      4  C   UNL     1      44.511   4.277  10.706  0.00  0.00    +0.000 A 
ATOM      5  C   UNL     1      43.604   3.248  11.012  0.00  0.00    +0.000 A 
ATOM      6  C   UNL     1      43.281   3.025  12.354  0.00  0.00    +0.000 A 
ATOM      7  C   UNL     1      43.838   3.803  13.361  0.00  0.00    +0.000 A 
ATOM      8  C   UNL     1      44.738   4.827  13.050  0.00  0.00    +0.000 A 
ATOM      9  C   UNL     1      45.088   5.073  11.703  0.00  0.00    +0.000 A 
ENDROOT
BRANCH   1  10
ATOM     10  C   UNL     1      46.840   7.011  11.773  0.00  0.00    +0.000 C 
BRANCH  10  11
ATOM     11  N   UNL     1      47.642   6.357  12.821  0.00  0.00    +0.000 NA
ATOM     12  H   UNL     1      47.782   7.027  13.573  0.00  0.00    +0.000 HD
ATOM     13  H   UNL     1      48.581   6.254  12.421  0.00  0.00    +0.000 HD
ENDBRANCH  10  11
BRANCH  10  14
ATOM     14  C   UNL     1      45.998   8.171  12.375  0.00  0.00    +0.000 C 
BRANCH  14  15
ATOM     15  N   UNL     1      46.442   8.537  13.732  0.00  0.00    +0.000 NA
ATOM     16  H   UNL     1      46.570   7.683  14.275  0.00  0.00    +0.000 HD
ATOM     17  H   UNL     1      45.690   9.050  14.195  0.00  0.00    +0.000 HD
ENDBRANCH  14  15
ENDBRANCH  10  14
ENDBRANCH   1  10
BRANCH   3  18
ATOM     18  C   UNL     1      44.804   4.083   8.204  0.00  0.00    +0.000 C 
BRANCH  18  19
ATOM     19  C   UNL     1      45.827   3.041   7.851  0.00  0.00    +0.000 A 
ATOM     20  C   UNL     1      46.800   3.283   6.875  0.00  0.00    +0.000 A 
ATOM     21  C   UNL     1      47.646   2.255   6.468  0.00  0.00    +0.000 A 
ATOM     22  C   UNL     1      47.495   1.011   7.053  0.00  0.00    +0.000 A 
ATOM     23  N   UNL     1      46.590   0.743   8.016  0.00  0.00    +0.000 NA
ATOM     24  C   UNL     1      45.785   1.762   8.398  0.00  0.00    +0.000 A 
ENDBRANCH  18  19
ENDBRANCH   3  18
TORSDOF 6
ENDMDL
MODEL 2
REMARK VINA RESULT:    -6.762      1.708      2.598
REMARK INTER + INTRA:          -9.230
REMARK INTER:                  -8.808
REMARK INTRA:                  -0.422
REMARK UNBOUND:                -0.492
REMARK  Name = 
REMARK  6 active torsions:
REMARK  status: ('A' for Active; 'I' for Inactive)
REMARK    1  A    between atoms: N_1  and  C_2
REMARK    2  A    between atoms: C_2  and  C_3
REMARK    3  A    between atoms: C_3  and  N_4
REMARK    4  A    between atoms: C_3  and  C_5
REMARK    5  A    between atoms: N_7  and  C_8
REMARK    6  A    between atoms: C_8  and  C_9
REMARK                            x       y       z     vdW  Elec       q    Type
REMARK                         _______ _______ _______ _____ _____    ______ ____
ROOT
ATOM      1  C   UNL     1      45.558   7.176  12.016  0.00  0.00    +0.000 A 
ATOM      2  C   UNL     1      44.665   6.672  11.088  0.00  0.00    +0.000 A 
ATOM      3  N   UNL     1      44.607   5.306  11.220  0.00  0.00    +0.000 N 
ATOM      4  C   UNL     1      45.478   4.891  12.206  0.00  0.00    +0.000 A 
ATOM      5  C   UNL     1      45.799   3.607  12.679  0.00  0.00    +0.000 A 
ATOM      6  C   UNL     1      46.752   3.494  13.696  0.00  0.00    +0.000 A 
ATOM      7  C   UNL     1      47.364   4.622  14.230  0.00  0.00    +0.000 A 
ATOM      8  C   UNL     1      47.037   5.896  13.756  0.00  0.00    +0.000 A 
ATOM      9  C   UNL     1      46.082   6.042  12.725  0.00  0.00    +0.000 A 
ENDROOT
BRANCH   1  10
ATOM     10  C   UNL     1      45.973   8.604  12.223  0.00  0.00    +0.000 C 
BRANCH  10  11
ATOM     11  N   UNL     1      46.066   8.909  13.661  0.00  0.00    +0.000 NA
ATOM     12  H   UNL     1      46.807   9.593  13.790  0.00  0.00    +0.000 HD
ATOM     13  H   UNL     1      46.448   8.063  14.095  0.00  0.00    +0.000 HD
ENDBRANCH  10  11
BRANCH  10  14
ATOM     14  C   UNL     1      45.006   9.596  11.517  0.00  0.00    +0.000 C 
BRANCH  14  15
ATOM     15  N   UNL     1      44.119  10.287  12.471  0.00  0.00    +0.000 NA
ATOM     16  H   UNL     1      43.959   9.673  13.270  0.00  0.00    +0.000 HD
ATOM     17  H   UNL     1      43.206  10.418  12.033  0.00  0.00    +0.000 HD
ENDBRANCH  14  15
ENDBRANCH  10  14
ENDBRANCH   1  10
BRANCH   3  18
ATOM     18  C   UNL     1      43.863   4.437  10.317  0.00  0.00    +0.000 C 
BRANCH  18  19
ATOM     19  C   UNL     1      44.719   3.745   9.294  0.00  0.00    +0.000 A 
ATOM     20  C   UNL     1      44.879   2.355   9.304  0.00  0.00    +0.000 A 
ATOM     21  C   UNL     1      45.786   1.754   8.435  0.00  0.00    +0.000 A 
ATOM     22  C   UNL     1      46.506   2.563   7.575  0.00  0.00    +0.000 A 
ATOM     23  N   UNL     1      46.361   3.903   7.515  0.00  0.00    +0.000 NA
ATOM     24  C   UNL     1      45.469   4.461   8.366  0.00  0.00    +0.000 A 
ENDBRANCH  18  19
ENDBRANCH   3  18
TORSDOF 6
ENDMDL
MODEL 3
REMARK VINA RESULT:    -6.737      2.548      4.395
REMARK INTER + INTRA:          -9.198
REMARK INTER:                  -8.560
REMARK INTRA:                  -0.639
REMARK UNBOUND:                -0.492
REMARK  Name = 
REMARK  6 active torsions:
REMARK  status: ('A' for Active; 'I' for Inactive)
REMARK    1  A    between atoms: N_1  and  C_2
REMARK    2  A    between atoms: C_2  and  C_3
REMARK    3  A    between atoms: C_3  and  N_4
REMARK    4  A    between atoms: C_3  and  C_5
REMARK    5  A    between atoms: N_7  and  C_8
REMARK    6  A    between atoms: C_8  and  C_9
REMARK                            x       y       z     vdW  Elec       q    Type
REMARK                         _______ _______ _______ _____ _____    ______ ____
ROOT
ATOM      1  C   UNL     1      47.051   4.665  14.187  0.00  0.00    +0.000 A 
ATOM      2  C   UNL     1      46.007   4.161  13.434  0.00  0.00    +0.000 A 
ATOM      3  N   UNL     1      45.706   5.053  12.434  0.00  0.00    +0.000 N 
ATOM      4  C   UNL     1      46.519   6.163  12.533  0.00  0.00    +0.000 A 
ATOM      5  C   UNL     1      46.571   7.345  11.775  0.00  0.00    +0.000 A 
ATOM      6  C   UNL     1      47.507   8.321  12.131  0.00  0.00    +0.000 A 
ATOM      7  C   UNL     1      48.370   8.126  13.202  0.00  0.00    +0.000 A 
ATOM      8  C   UNL     1      48.315   6.946  13.951  0.00  0.00    +0.000 A 
ATOM      9  C   UNL     1      47.375   5.944  13.619  0.00  0.00    +0.000 A 
ENDROOT
BRANCH   1  10
ATOM     10  C   UNL     1      47.696   4.061  15.402  0.00  0.00    +0.000 C 
BRANCH  10  11
ATOM     11  N   UNL     1      47.903   2.616  15.209  0.00  0.00    +0.000 NA
ATOM     12  H   UNL     1      47.030   2.216  14.873  0.00  0.00    +0.000 HD
ATOM     13  H   UNL     1      47.993   2.225  16.153  0.00  0.00    +0.000 HD
ENDBRANCH  10  11
BRANCH  10  14
ATOM     14  C   UNL     1      46.867   4.326  16.690  0.00  0.00    +0.000 C 
BRANCH  14  15
ATOM     15  N   UNL     1      46.639   3.097  17.471  0.00  0.00    +0.000 NA
ATOM     16  H   UNL     1      46.499   2.320  16.824  0.00  0.00    +0.000 HD
ATOM     17  H   UNL     1      45.761   3.193  17.984  0.00  0.00    +0.000 HD
ENDBRANCH  14  15
ENDBRANCH  10  14
ENDBRANCH   1  10
BRANCH   3  18
ATOM     18  C   UNL     1      44.573   4.903  11.530  0.00  0.00    +0.000 C 
BRANCH  18  19
ATOM     19  C   UNL     1      44.914   4.232  10.230  0.00  0.00    +0.000 A 
ATOM     20  C   UNL     1      44.784   2.848  10.073  0.00  0.00    +0.000 A 
ATOM     21  C   UNL     1      45.239   2.235   8.908  0.00  0.00    +0.000 A 
ATOM     22  C   UNL     1      45.810   3.028   7.929  0.00  0.00    +0.000 A 
ATOM     23  N   UNL     1      45.929   4.368   8.030  0.00  0.00    +0.000 NA
ATOM     24  C   UNL     1      45.473   4.939   9.169  0.00  0.00    +0.000 A 
ENDBRANCH  18  19
ENDBRANCH   3  18
TORSDOF 6
ENDMDL
MODEL 4
REMARK VINA RESULT:    -6.315      1.857      3.317
REMARK INTER + INTRA:          -8.652
REMARK INTER:                  -8.574
REMARK INTRA:                  -0.078
REMARK UNBOUND:                -0.492
REMARK  Name = 
REMARK  6 active torsions:
REMARK  status: ('A' for Active; 'I' for Inactive)
REMARK    1  A    between atoms: N_1  and  C_2
REMARK    2  A    between atoms: C_2  and  C_3
REMARK    3  A    between atoms: C_3  and  N_4
REMARK    4  A    between atoms: C_3  and  C_5
REMARK    5  A    between atoms: N_7  and  C_8
REMARK    6  A    between atoms: C_8  and  C_9
REMARK                            x       y       z     vdW  Elec       q    Type
REMARK                         _______ _______ _______ _____ _____    ______ ____
ROOT
ATOM      1  C   UNL     1      43.834   5.204  11.040  0.00  0.00    +0.000 A 
ATOM      2  C   UNL     1      44.115   4.660   9.800  0.00  0.00    +0.000 A 
ATOM      3  N   UNL     1      45.388   5.020   9.433  0.00  0.00    +0.000 N 
ATOM      4  C   UNL     1      45.947   5.827  10.402  0.00  0.00    +0.000 A 
ATOM      5  C   UNL     1      47.197   6.468  10.467  0.00  0.00    +0.000 A 
ATOM      6  C   UNL     1      47.482   7.251  11.589  0.00  0.00    +0.000 A 
ATOM      7  C   UNL     1      46.558   7.390  12.618  0.00  0.00    +0.000 A 
ATOM      8  C   UNL     1      45.318   6.748  12.547  0.00  0.00    +0.000 A 
ATOM      9  C   UNL     1      44.998   5.954  11.423  0.00  0.00    +0.000 A 
ENDROOT
BRANCH   1  10
ATOM     10  C   UNL     1      42.559   5.110  11.828  0.00  0.00    +0.000 C 
BRANCH  10  11
ATOM     11  N   UNL     1      41.879   6.416  11.864  0.00  0.00    +0.000 NA
ATOM     12  H   UNL     1      41.159   6.415  11.147  0.00  0.00    +0.000 HD
ATOM     13  H   UNL     1      42.564   7.090  11.509  0.00  0.00    +0.000 HD
ENDBRANCH  10  11
BRANCH  10  14
ATOM     14  C   UNL     1      42.807   4.584  13.270  0.00  0.00    +0.000 C 
BRANCH  14  15
ATOM     15  N   UNL     1      43.595   3.339  13.283  0.00  0.00    +0.000 NA
ATOM     16  H   UNL     1      43.071   2.616  12.790  0.00  0.00    +0.000 HD
ATOM     17  H   UNL     1      43.677   3.014  14.248  0.00  0.00    +0.000 HD
ENDBRANCH  14  15
ENDBRANCH  10  14
ENDBRANCH   1  10
BRANCH   3  18
ATOM     18  C   UNL     1      45.966   4.728   8.127  0.00  0.00    +0.000 C 
BRANCH  18  19
ATOM     19  C   UNL     1      46.372   3.293   7.947  0.00  0.00    +0.000 A 
ATOM     20  C   UNL     1      47.341   2.927   7.005  0.00  0.00    +0.000 A 
ATOM     21  C   UNL     1      47.596   1.581   6.760  0.00  0.00    +0.000 A 
ATOM     22  C   UNL     1      46.877   0.636   7.469  0.00  0.00    +0.000 A 
ATOM     23  N   UNL     1      45.955   0.947   8.404  0.00  0.00    +0.000 NA
ATOM     24  C   UNL     1      45.730   2.263   8.627  0.00  0.00    +0.000 A 
ENDBRANCH  18  19
ENDBRANCH   3  18
TORSDOF 6
ENDMDL
MODEL 5
REMARK VINA RESULT:    -6.302      1.888      3.642
REMARK INTER + INTRA:          -8.636
REMARK INTER:                  -8.020
REMARK INTRA:                  -0.616
REMARK UNBOUND:                -0.492
REMARK  Name = 
REMARK  6 active torsions:
REMARK  status: ('A' for Active; 'I' for Inactive)
REMARK    1  A    between atoms: N_1  and  C_2
REMARK    2  A    between atoms: C_2  and  C_3
REMARK    3  A    between atoms: C_3  and  N_4
REMARK    4  A    between atoms: C_3  and  C_5
REMARK    5  A    between atoms: N_7  and  C_8
REMARK    6  A    between atoms: C_8  and  C_9
REMARK                            x       y       z     vdW  Elec       q    Type
REMARK                         _______ _______ _______ _____ _____    ______ ____
ROOT
ATOM      1  C   UNL     1      46.604   6.340  12.988  0.00  0.00    +0.000 A 
ATOM      2  C   UNL     1      45.998   5.256  12.378  0.00  0.00    +0.000 A 
ATOM      3  N   UNL     1      45.010   5.711  11.540  0.00  0.00    +0.000 N 
ATOM      4  C   UNL     1      44.929   7.086  11.609  0.00  0.00    +0.000 A 
ATOM      5  C   UNL     1      44.066   7.997  10.977  0.00  0.00    +0.000 A 
ATOM      6  C   UNL     1      44.213   9.358  11.262  0.00  0.00    +0.000 A 
ATOM      7  C   UNL     1      45.191   9.801  12.143  0.00  0.00    +0.000 A 
ATOM      8  C   UNL     1      46.048   8.889  12.767  0.00  0.00    +0.000 A 
ATOM      9  C   UNL     1      45.920   7.507  12.504  0.00  0.00    +0.000 A 
ENDROOT
BRANCH   1  10
ATOM     10  C   UNL     1      47.709   6.335  14.005  0.00  0.00    +0.000 C 
BRANCH  10  11
ATOM     11  N   UNL     1      49.022   6.293  13.340  0.00  0.00    +0.000 NA
ATOM     12  H   UNL     1      48.864   6.234  12.337  0.00  0.00    +0.000 HD
ATOM     13  H   UNL     1      49.415   5.375  13.571  0.00  0.00    +0.000 HD
ENDBRANCH  10  11
BRANCH  10  14
ATOM     14  C   UNL     1      47.567   5.154  15.006  0.00  0.00    +0.000 C 
BRANCH  14  15
ATOM     15  N   UNL     1      48.604   5.182  16.054  0.00  0.00    +0.000 NA
ATOM     16  H   UNL     1      49.500   4.935  15.632  0.00  0.00    +0.000 HD
ATOM     17  H   UNL     1      48.404   4.444  16.732  0.00  0.00    +0.000 HD
ENDBRANCH  14  15
ENDBRANCH  10  14
ENDBRANCH   1  10
BRANCH   3  18
ATOM     18  C   UNL     1      44.082   4.835  10.834  0.00  0.00    +0.000 C 
BRANCH  18  19
ATOM     19  C   UNL     1      44.714   4.046   9.723  0.00  0.00    +0.000 A 
ATOM     20  C   UNL     1      44.667   2.648   9.711  0.00  0.00    +0.000 A 
ATOM     21  C   UNL     1      45.380   1.938   8.748  0.00  0.00    +0.000 A 
ATOM     22  C   UNL     1      46.117   2.650   7.819  0.00  0.00    +0.000 A 
ATOM     23  N   UNL     1      46.166   3.997   7.780  0.00  0.00    +0.000 NA
ATOM     24  C   UNL     1      45.460   4.663   8.723  0.00  0.00    +0.000 A 
ENDBRANCH  18  19
ENDBRANCH   3  18
TORSDOF 6
ENDMDL
MODEL 6
REMARK VINA RESULT:    -5.986      3.454      5.666
REMARK INTER + INTRA:          -8.228
REMARK INTER:                  -7.735
REMARK INTRA:                  -0.493
REMARK UNBOUND:                -0.492
REMARK  Name = 
REMARK  6 active torsions:
REMARK  status: ('A' for Active; 'I' for Inactive)
REMARK    1  A    between atoms: N_1  and  C_2
REMARK    2  A    between atoms: C_2  and  C_3
REMARK    3  A    between atoms: C_3  and  N_4
REMARK    4  A    between atoms: C_3  and  C_5
REMARK    5  A    between atoms: N_7  and  C_8
REMARK    6  A    between atoms: C_8  and  C_9
REMARK                            x       y       z     vdW  Elec       q    Type
REMARK                         _______ _______ _______ _____ _____    ______ ____
ROOT
ATOM      1  C   UNL     1      47.828   5.065  15.495  0.00  0.00    +0.000 A 
ATOM      2  C   UNL     1      47.160   3.981  14.954  0.00  0.00    +0.000 A 
ATOM      3  N   UNL     1      46.825   4.267  13.653  0.00  0.00    +0.000 N 
ATOM      4  C   UNL     1      47.235   5.544  13.332  0.00  0.00    +0.000 A 
ATOM      5  C   UNL     1      47.092   6.294  12.151  0.00  0.00    +0.000 A 
ATOM      6  C   UNL     1      47.603   7.595  12.126  0.00  0.00    +0.000 A 
ATOM      7  C   UNL     1      48.242   8.133  13.236  0.00  0.00    +0.000 A 
ATOM      8  C   UNL     1      48.383   7.381  14.406  0.00  0.00    +0.000 A 
ATOM      9  C   UNL     1      47.871   6.065  14.464  0.00  0.00    +0.000 A 
ENDROOT
BRANCH   1  10
ATOM     10  C   UNL     1      48.355   5.227  16.892  0.00  0.00    +0.000 C 
BRANCH  10  11
ATOM     11  N   UNL     1      49.755   4.776  16.970  0.00  0.00    +0.000 NA
ATOM     12  H   UNL     1      50.285   5.481  17.475  0.00  0.00    +0.000 HD
ATOM     13  H   UNL     1      50.118   4.848  16.014  0.00  0.00    +0.000 HD
ENDBRANCH  10  11
BRANCH  10  14
ATOM     14  C   UNL     1      47.480   4.472  17.932  0.00  0.00    +0.000 C 
BRANCH  14  15
ATOM     15  N   UNL     1      46.488   5.354  18.573  0.00  0.00    +0.000 NA
ATOM     16  H   UNL     1      46.831   5.609  19.500  0.00  0.00    +0.000 HD
ATOM     17  H   UNL     1      45.631   4.822  18.731  0.00  0.00    +0.000 HD
ENDBRANCH  14  15
ENDBRANCH  10  14
ENDBRANCH   1  10
BRANCH   3  18
ATOM     18  C   UNL     1      46.001   3.400  12.821  0.00  0.00    +0.000 C 
BRANCH  18  19
ATOM     19  C   UNL     1      44.708   4.025  12.381  0.00  0.00    +0.000 A 
ATOM     20  C   UNL     1      44.474   4.337  11.037  0.00  0.00    +0.000 A 
ATOM     21  C   UNL     1      43.330   5.043  10.677  0.00  0.00    +0.000 A 
ATOM     22  C   UNL     1      42.446   5.415  11.674  0.00  0.00    +0.000 A 
ATOM     23  N   UNL     1      42.620   5.110  12.977  0.00  0.00    +0.000 NA
ATOM     24  C   UNL     1      43.738   4.418  13.299  0.00  0.00    +0.000 A 
ENDBRANCH  18  19
ENDBRANCH   3  18
TORSDOF 6
ENDMDL
MODEL 7
REMARK VINA RESULT:    -5.792      3.154      6.680
REMARK INTER + INTRA:          -7.977
REMARK INTER:                  -7.521
REMARK INTRA:                  -0.456
REMARK UNBOUND:                -0.492
REMARK  Name = 
REMARK  6 active torsions:
REMARK  status: ('A' for Active; 'I' for Inactive)
REMARK    1  A    between atoms: N_1  and  C_2
REMARK    2  A    between atoms: C_2  and  C_3
REMARK    3  A    between atoms: C_3  and  N_4
REMARK    4  A    between atoms: C_3  and  C_5
REMARK    5  A    between atoms: N_7  and  C_8
REMARK    6  A    between atoms: C_8  and  C_9
REMARK                            x       y       z     vdW  Elec       q    Type
REMARK                         _______ _______ _______ _____ _____    ______ ____
ROOT
ATOM      1  C   UNL     1      44.593   6.391  11.675  0.00  0.00    +0.000 A 
ATOM      2  C   UNL     1      45.590   5.635  12.263  0.00  0.00    +0.000 A 
ATOM      3  N   UNL     1      46.579   6.474  12.715  0.00  0.00    +0.000 N 
ATOM      4  C   UNL     1      46.266   7.781  12.404  0.00  0.00    +0.000 A 
ATOM      5  C   UNL     1      46.968   8.979  12.622  0.00  0.00    +0.000 A 
ATOM      6  C   UNL     1      46.397  10.173  12.171  0.00  0.00    +0.000 A 
ATOM      7  C   UNL     1      45.164  10.178  11.529  0.00  0.00    +0.000 A 
ATOM      8  C   UNL     1      44.470   8.982  11.319  0.00  0.00    +0.000 A 
ATOM      9  C   UNL     1      45.025   7.759  11.758  0.00  0.00    +0.000 A 
ENDROOT
BRANCH   1  10
ATOM     10  C   UNL     1      43.334   5.912  11.011  0.00  0.00    +0.000 C 
BRANCH  10  11
ATOM     11  N   UNL     1      42.208   5.942  11.960  0.00  0.00    +0.000 NA
ATOM     12  H   UNL     1      42.562   5.677  12.876  0.00  0.00    +0.000 HD
ATOM     13  H   UNL     1      41.611   5.150  11.700  0.00  0.00    +0.000 HD
ENDBRANCH  10  11
BRANCH  10  14
ATOM     14  C   UNL     1      43.502   4.487  10.411  0.00  0.00    +0.000 C 
BRANCH  14  15
ATOM     15  N   UNL     1      43.855   4.522   8.980  0.00  0.00    +0.000 NA
ATOM     16  H   UNL     1      44.446   5.336   8.810  0.00  0.00    +0.000 HD
ATOM     17  H   UNL     1      43.004   4.677   8.437  0.00  0.00    +0.000 HD
ENDBRANCH  14  15
ENDBRANCH  10  14
ENDBRANCH   1  10
BRANCH   3  18
ATOM     18  C   UNL     1      47.842   6.008  13.274  0.00  0.00    +0.000 C 
BRANCH  18  19
ATOM     19  C   UNL     1      47.745   5.543  14.699  0.00  0.00    +0.000 A 
ATOM     20  C   UNL     1      48.451   6.187  15.721  0.00  0.00    +0.000 A 
ATOM     21  C   UNL     1      48.455   5.652  17.006  0.00  0.00    +0.000 A 
ATOM     22  C   UNL     1      47.746   4.486  17.234  0.00  0.00    +0.000 A 
ATOM     23  N   UNL     1      47.030   3.850  16.284  0.00  0.00    +0.000 NA
ATOM     24  C   UNL     1      47.038   4.395  15.045  0.00  0.00    +0.000 A 
ENDBRANCH  18  19
ENDBRANCH   3  18
TORSDOF 6
ENDMDL
MODEL 8
REMARK VINA RESULT:    -5.681      2.468      4.557
REMARK INTER + INTRA:          -7.834
REMARK INTER:                  -7.360
REMARK INTRA:                  -0.474
REMARK UNBOUND:                -0.492
REMARK  Name = 
REMARK  6 active torsions:
REMARK  status: ('A' for Active; 'I' for Inactive)
REMARK    1  A    between atoms: N_1  and  C_2
REMARK    2  A    between atoms: C_2  and  C_3
REMARK    3  A    between atoms: C_3  and  N_4
REMARK    4  A    between atoms: C_3  and  C_5
REMARK    5  A    between atoms: N_7  and  C_8
REMARK    6  A    between atoms: C_8  and  C_9
REMARK                            x       y       z     vdW  Elec       q    Type
REMARK                         _______ _______ _______ _____ _____    ______ ____
ROOT
ATOM      1  C   UNL     1      44.537   8.905  11.434  0.00  0.00    +0.000 A 
ATOM      2  C   UNL     1      43.968   7.649  11.335  0.00  0.00    +0.000 A 
ATOM      3  N   UNL     1      44.904   6.705  11.681  0.00  0.00    +0.000 N 
ATOM      4  C   UNL     1      46.103   7.319  11.978  0.00  0.00    +0.000 A 
ATOM      5  C   UNL     1      47.351   6.786  12.345  0.00  0.00    +0.000 A 
ATOM      6  C   UNL     1      48.409   7.671  12.570  0.00  0.00    +0.000 A 
ATOM      7  C   UNL     1      48.233   9.043  12.440  0.00  0.00    +0.000 A 
ATOM      8  C   UNL     1      46.988   9.567  12.077  0.00  0.00    +0.000 A 
ATOM      9  C   UNL     1      45.900   8.697  11.838  0.00  0.00    +0.000 A 
ENDROOT
BRANCH   1  10
ATOM     10  C   UNL     1      43.912  10.235  11.125  0.00  0.00    +0.000 C 
BRANCH  10  11
ATOM     11  N   UNL     1      43.158  10.733  12.288  0.00  0.00    +0.000 NA
ATOM     12  H   UNL     1      42.256  11.065  11.958  0.00  0.00    +0.000 HD
ATOM     13  H   UNL     1      43.636  11.594  12.574  0.00  0.00    +0.000 HD
ENDBRANCH  10  11
BRANCH  10  14
ATOM     14  C   UNL     1      42.996  10.166   9.871  0.00  0.00    +0.000 C 
BRANCH  14  15
ATOM     15  N   UNL     1      43.738  10.415   8.622  0.00  0.00    +0.000 NA
ATOM     16  H   UNL     1      43.254   9.946   7.855  0.00  0.00    +0.000 HD
ATOM     17  H   UNL     1      44.653   9.965   8.689  0.00  0.00    +0.000 HD
ENDBRANCH  14  15
ENDBRANCH  10  14
ENDBRANCH   1  10
BRANCH   3  18
ATOM     18  C   UNL     1      44.685   5.269  11.565  0.00  0.00    +0.000 C 
BRANCH  18  19
ATOM     19  C   UNL     1      44.922   4.724  10.186  0.00  0.00    +0.000 A 
ATOM     20  C   UNL     1      44.328   3.529   9.767  0.00  0.00    +0.000 A 
ATOM     21  C   UNL     1      44.675   2.975   8.537  0.00  0.00    +0.000 A 
ATOM     22  C   UNL     1      45.605   3.638   7.758  0.00  0.00    +0.000 A 
ATOM     23  N   UNL     1      46.180   4.805   8.112  0.00  0.00    +0.000 NA
ATOM     24  C   UNL     1      45.820   5.325   9.309  0.00  0.00    +0.000 A 
ENDBRANCH  18  19
ENDBRANCH   3  18
TORSDOF 6
ENDMDL
MODEL 9
REMARK VINA RESULT:    -5.563      4.098      6.598
REMARK INTER + INTRA:          -7.680
REMARK INTER:                  -7.629
REMARK INTRA:                  -0.051
REMARK UNBOUND:                -0.492
REMARK  Name = 
REMARK  6 active torsions:
REMARK  status: ('A' for Active; 'I' for Inactive)
REMARK    1  A    between atoms: N_1  and  C_2
REMARK    2  A    between atoms: C_2  and  C_3
REMARK    3  A    between atoms: C_3  and  N_4
REMARK    4  A    between atoms: C_3  and  C_5
REMARK    5  A    between atoms: N_7  and  C_8
REMARK    6  A    between atoms: C_8  and  C_9
REMARK                            x       y       z     vdW  Elec       q    Type
REMARK                         _______ _______ _______ _____ _____    ______ ____
ROOT
ATOM      1  C   UNL     1      47.916   4.847  16.295  0.00  0.00    +0.000 A 
ATOM      2  C   UNL     1      47.216   4.659  15.117  0.00  0.00    +0.000 A 
ATOM      3  N   UNL     1      47.585   5.631  14.220  0.00  0.00    +0.000 N 
ATOM      4  C   UNL     1      48.500   6.485  14.800  0.00  0.00    +0.000 A 
ATOM      5  C   UNL     1      49.137   7.636  14.305  0.00  0.00    +0.000 A 
ATOM      6  C   UNL     1      50.020   8.319  15.147  0.00  0.00    +0.000 A 
ATOM      7  C   UNL     1      50.267   7.870  16.438  0.00  0.00    +0.000 A 
ATOM      8  C   UNL     1      49.632   6.722  16.923  0.00  0.00    +0.000 A 
ATOM      9  C   UNL     1      48.730   6.013  16.097  0.00  0.00    +0.000 A 
ENDROOT
BRANCH   1  10
ATOM     10  C   UNL     1      47.820   4.055  17.568  0.00  0.00    +0.000 C 
BRANCH  10  11
ATOM     11  N   UNL     1      46.709   3.091  17.492  0.00  0.00    +0.000 NA
ATOM     12  H   UNL     1      46.126   3.345  16.698  0.00  0.00    +0.000 HD
ATOM     13  H   UNL     1      46.112   3.299  18.299  0.00  0.00    +0.000 HD
ENDBRANCH  10  11
BRANCH  10  14
ATOM     14  C   UNL     1      47.659   4.975  18.811  0.00  0.00    +0.000 C 
BRANCH  14  15
ATOM     15  N   UNL     1      46.322   5.594  18.879  0.00  0.00    +0.000 NA
ATOM     16  H   UNL     1      46.312   6.262  19.651  0.00  0.00    +0.000 HD
ATOM     17  H   UNL     1      45.641   4.874  19.125  0.00  0.00    +0.000 HD
ENDBRANCH  14  15
ENDBRANCH  10  14
ENDBRANCH   1  10
BRANCH   3  18
ATOM     18  C   UNL     1      46.951   5.814  12.920  0.00  0.00    +0.000 C 
BRANCH  18  19
ATOM     19  C   UNL     1      45.632   5.109  12.780  0.00  0.00    +0.000 A 
ATOM     20  C   UNL     1      44.424   5.787  12.979  0.00  0.00    +0.000 A 
ATOM     21  C   UNL     1      43.224   5.081  12.982  0.00  0.00    +0.000 A 
ATOM     22  C   UNL     1      43.267   3.713  12.781  0.00  0.00    +0.000 A 
ATOM     23  N   UNL     1      44.406   3.027  12.558  0.00  0.00    +0.000 NA
ATOM     24  C   UNL     1      45.558   3.738  12.554  0.00  0.00    +0.000 A 
ENDBRANCH  18  19
ENDBRANCH   3  18
TORSDOF 6
ENDMDL
