MODEL 1
REMARK VINA RESULT:    -6.591      0.000      0.000
REMARK INTER + INTRA:          -8.106
REMARK INTER:                  -7.940
REMARK INTRA:                  -0.166
REMARK UNBOUND:                -0.166
REMARK  Name = 
REMARK  4 active torsions:
REMARK  status: ('A' for Active; 'I' for Inactive)
REMARK    1  A    between atoms: N_1  and  C_2
REMARK    2  A    between atoms: C_2  and  C_3
REMARK    3  A    between atoms: N_6  and  C_7
REMARK    4  A    between atoms: C_7  and  C_8
REMARK                            x       y       z     vdW  Elec       q    Type
REMARK                         _______ _______ _______ _____ _____    ______ ____
ROOT
ATOM      1  C   UNL     1      44.050   6.193  11.383  0.00  0.00    +0.000 C 
ENDROOT
BRANCH   1   2
ATOM      2  C   UNL     1      44.115   4.718  11.097  0.00  0.00    +0.000 A 
ATOM      3  N   UNL     1      43.451   3.855  11.886  0.00  0.00    +0.000 NA
ATOM      4  N   UNL     1      43.615   2.670  11.279  0.00  0.00    +0.000 N 
ATOM      5  C   UNL     1      44.332   2.727  10.116  0.00  0.00    +0.000 A 
ATOM      6  C   UNL     1      44.656   1.742   9.177  0.00  0.00    +0.000 A 
ATOM      7  C   UNL     1      45.416   2.144   8.074  0.00  0.00    +0.000 A 
ATOM      8  C   UNL     1      45.844   3.465   7.942  0.00  0.00    +0.000 A 
ATOM      9 CL   UNL     1      46.787   3.914   6.571  0.00  0.00    +0.000 Cl
ATOM     10  C   UNL     1      45.512   4.437   8.892  0.00  0.00    +0.000 A 
ATOM     11  C   UNL     1      44.718   4.057   9.990  0.00  0.00    +0.000 A 
ATOM     12  H   UNL     1      43.187   1.857  11.699  0.00  0.00    +0.000 HD
ENDBRANCH   1   2
BRANCH   1  16
ATOM     13  C   UNL     1      47.642   7.617  13.303  0.00  0.00    +0.000 C 
ATOM     14  C   UNL     1      47.185   6.166  13.511  0.00  0.00    +0.000 C 
ATOM     15  C   UNL     1      46.119   5.747  12.496  0.00  0.00    +0.000 C 
ATOM     16  N   UNL     1      44.947   6.645  12.477  0.00  0.00    +0.000 NA
ATOM     17  C   UNL     1      45.346   8.052  12.285  0.00  0.00    +0.000 C 
ATOM     18  C   UNL     1      46.392   8.507  13.306  0.00  0.00    +0.000 C 
BRANCH  13  19
ATOM     19  C   UNL     1      48.500   7.750  12.028  0.00  0.00    +0.000 C 
BRANCH  19  20
ATOM     20  N   UNL     1      49.807   7.119  12.171  0.00  0.00    +0.000 NA
ATOM     21  H   UNL     1      50.344   7.253  11.314  0.00  0.00    +0.000 HD
ATOM     22  H   UNL     1      49.692   6.111  12.280  0.00  0.00    +0.000 HD
ENDBRANCH  19  20
ENDBRANCH  13  19
ENDBRANCH   1  16
TORSDOF 4
ENDMDL
MODEL 2
REMARK VINA RESULT:    -6.125      4.396      7.150
REMARK INTER + INTRA:          -7.545
REMARK INTER:                  -7.198
REMARK INTRA:                  -0.347
REMARK UNBOUND:                -0.166
REMARK  Name = 
REMARK  4 active torsions:
REMARK  status: ('A' for Active; 'I' for Inactive)
REMARK    1  A    between atoms: N_1  and  C_2
REMARK    2  A    between atoms: C_2  and  C_3
REMARK    3  A    between atoms: N_6  and  C_7
REMARK    4  A    between atoms: C_7  and  C_8
REMARK                            x       y       z     vdW  Elec       q    Type
REMARK                         _______ _______ _______ _____ _____    ______ ____
ROOT
ATOM      1  C   UNL     1      47.157   3.704  14.416  0.00  0.00    +0.000 C 
ENDROOT
BRANCH   1   2
ATOM      2  C   UNL     1      47.278   4.108  15.860  0.00  0.00    +0.000 A 
ATOM      3  N   UNL     1      46.709   3.350  16.814  0.00  0.00    +0.000 NA
ATOM      4  N   UNL     1      47.117   3.914  17.961  0.00  0.00    +0.000 N 
ATOM      5  C   UNL     1      47.947   4.989  17.796  0.00  0.00    +0.000 A 
ATOM      6  C   UNL     1      48.621   5.790  18.724  0.00  0.00    +0.000 A 
ATOM      7  C   UNL     1      49.408   6.826  18.210  0.00  0.00    +0.000 A 
ATOM      8  C   UNL     1      49.488   7.053  16.837  0.00  0.00    +0.000 A 
ATOM      9 CL   UNL     1      50.462   8.348  16.249  0.00  0.00    +0.000 Cl
ATOM     10  C   UNL     1      48.804   6.243  15.924  0.00  0.00    +0.000 A 
ATOM     11  C   UNL     1      48.035   5.174  16.421  0.00  0.00    +0.000 A 
ATOM     12  H   UNL     1      46.812   3.499  18.831  0.00  0.00    +0.000 HD
ENDBRANCH   1   2
BRANCH   1  16
ATOM     13  C   UNL     1      44.626   5.435  11.381  0.00  0.00    +0.000 C 
ATOM     14  C   UNL     1      44.886   6.196  12.689  0.00  0.00    +0.000 C 
ATOM     15  C   UNL     1      46.060   5.608  13.474  0.00  0.00    +0.000 C 
ATOM     16  N   UNL     1      45.912   4.167  13.753  0.00  0.00    +0.000 NA
ATOM     17  C   UNL     1      45.654   3.400  12.520  0.00  0.00    +0.000 C 
ATOM     18  C   UNL     1      44.465   3.949  11.727  0.00  0.00    +0.000 C 
BRANCH  13  19
ATOM     19  C   UNL     1      45.735   5.719  10.347  0.00  0.00    +0.000 C 
BRANCH  19  20
ATOM     20  N   UNL     1      45.425   5.165   9.034  0.00  0.00    +0.000 NA
ATOM     21  H   UNL     1      45.555   5.884   8.323  0.00  0.00    +0.000 HD
ATOM     22  H   UNL     1      44.441   4.900   8.996  0.00  0.00    +0.000 HD
ENDBRANCH  19  20
ENDBRANCH  13  19
ENDBRANCH   1  16
TORSDOF 4
ENDMDL
MODEL 3
REMARK VINA RESULT:    -6.060      2.796      5.812
REMARK INTER + INTRA:          -7.466
REMARK INTER:                  -7.358
REMARK INTRA:                  -0.108
REMARK UNBOUND:                -0.166
REMARK  Name = 
REMARK  4 active torsions:
REMARK  status: ('A' for Active; 'I' for Inactive)
REMARK    1  A    between atoms: N_1  and  C_2
REMARK    2  A    between atoms: C_2  and  C_3
REMARK    3  A    between atoms: N_6  and  C_7
REMARK    4  A    between atoms: C_7  and  C_8
REMARK                            x       y       z     vdW  Elec       q    Type
REMARK                         _______ _______ _______ _____ _____    ______ ____
ROOT
ATOM      1  C   UNL     1      46.299   3.287  13.052  0.00  0.00    +0.000 C 
ENDROOT
BRANCH   1   2
ATOM      2  C   UNL     1      46.830   4.286  14.043  0.00  0.00    +0.000 A 
ATOM      3  N   UNL     1      46.820   3.995  15.356  0.00  0.00    +0.000 NA
ATOM      4  N   UNL     1      47.471   5.023  15.921  0.00  0.00    +0.000 N 
ATOM      5  C   UNL     1      47.928   5.957  15.032  0.00  0.00    +0.000 A 
ATOM      6  C   UNL     1      48.692   7.114  15.215  0.00  0.00    +0.000 A 
ATOM      7  C   UNL     1      48.997   7.859  14.071  0.00  0.00    +0.000 A 
ATOM      8  C   UNL     1      48.532   7.466  12.816  0.00  0.00    +0.000 A 
ATOM      9 CL   UNL     1      48.923   8.420  11.435  0.00  0.00    +0.000 Cl
ATOM     10  C   UNL     1      47.767   6.306  12.653  0.00  0.00    +0.000 A 
ATOM     11  C   UNL     1      47.481   5.526  13.788  0.00  0.00    +0.000 A 
ATOM     12  H   UNL     1      47.593   5.015  16.924  0.00  0.00    +0.000 HD
ENDBRANCH   1   2
BRANCH   1  16
ATOM     13  C   UNL     1      42.950   5.508  11.482  0.00  0.00    +0.000 C 
ATOM     14  C   UNL     1      42.985   5.122  12.968  0.00  0.00    +0.000 C 
ATOM     15  C   UNL     1      44.377   4.663  13.410  0.00  0.00    +0.000 C 
ATOM     16  N   UNL     1      44.914   3.559  12.591  0.00  0.00    +0.000 NA
ATOM     17  C   UNL     1      44.891   3.889  11.155  0.00  0.00    +0.000 C 
ATOM     18  C   UNL     1      43.503   4.324  10.677  0.00  0.00    +0.000 C 
BRANCH  13  19
ATOM     19  C   UNL     1      43.698   6.834  11.237  0.00  0.00    +0.000 C 
BRANCH  19  20
ATOM     20  N   UNL     1      42.789   7.949  10.998  0.00  0.00    +0.000 NA
ATOM     21  H   UNL     1      42.577   8.007  10.003  0.00  0.00    +0.000 HD
ATOM     22  H   UNL     1      43.248   8.826  11.244  0.00  0.00    +0.000 HD
ENDBRANCH  19  20
ENDBRANCH  13  19
ENDBRANCH   1  16
TORSDOF 4
ENDMDL
MODEL 4
REMARK VINA RESULT:    -6.007      4.340      5.502
REMARK INTER + INTRA:          -7.402
REMARK INTER:                  -7.425
REMARK INTRA:                   0.023
REMARK UNBOUND:                -0.166
REMARK  Name = 
REMARK  4 active torsions:
REMARK  status: ('A' for Active; 'I' for Inactive)
REMARK    1  A    between atoms: N_1  and  C_2
REMARK    2  A    between atoms: C_2  and  C_3
REMARK    3  A    between atoms: N_6  and  C_7
REMARK    4  A    between atoms: C_7  and  C_8
REMARK                            x       y       z     vdW  Elec       q    Type
REMARK                         _______ _______ _______ _____ _____    ______ ____
ROOT
ATOM      1  C   UNL     1      47.193   5.318  15.142  0.00  0.00    +0.000 C 
ENDROOT
BRANCH   1   2
ATOM      2  C   UNL     1      46.590   4.558  13.993  0.00  0.00    +0.000 A 
ATOM      3  N   UNL     1      46.804   3.235  13.883  0.00  0.00    +0.000 NA
ATOM      4  N   UNL     1      46.032   2.867  12.849  0.00  0.00    +0.000 N 
ATOM      5  C   UNL     1      45.305   3.886  12.299  0.00  0.00    +0.000 A 
ATOM      6  C   UNL     1      44.355   3.897  11.272  0.00  0.00    +0.000 A 
ATOM      7  C   UNL     1      43.786   5.134  10.950  0.00  0.00    +0.000 A 
ATOM      8  C   UNL     1      44.175   6.297  11.614  0.00  0.00    +0.000 A 
ATOM      9 CL   UNL     1      43.455   7.800  11.178  0.00  0.00    +0.000 Cl
ATOM     10  C   UNL     1      45.128   6.266  12.638  0.00  0.00    +0.000 A 
ATOM     11  C   UNL     1      45.686   5.026  12.999  0.00  0.00    +0.000 A 
ATOM     12  H   UNL     1      46.026   1.892  12.583  0.00  0.00    +0.000 HD
ENDBRANCH   1   2
BRANCH   1  16
ATOM     13  C   UNL     1      49.519   3.965  18.514  0.00  0.00    +0.000 C 
ATOM     14  C   UNL     1      50.143   4.920  17.486  0.00  0.00    +0.000 C 
ATOM     15  C   UNL     1      49.087   5.559  16.580  0.00  0.00    +0.000 C 
ATOM     16  N   UNL     1      48.232   4.571  15.894  0.00  0.00    +0.000 NA
ATOM     17  C   UNL     1      47.619   3.630  16.848  0.00  0.00    +0.000 C 
ATOM     18  C   UNL     1      48.655   2.953  17.750  0.00  0.00    +0.000 C 
BRANCH  13  19
ATOM     19  C   UNL     1      48.752   4.746  19.601  0.00  0.00    +0.000 C 
BRANCH  19  20
ATOM     20  N   UNL     1      48.357   3.899  20.719  0.00  0.00    +0.000 NA
ATOM     21  H   UNL     1      49.115   3.858  21.399  0.00  0.00    +0.000 HD
ATOM     22  H   UNL     1      48.215   2.943  20.393  0.00  0.00    +0.000 HD
ENDBRANCH  19  20
ENDBRANCH  13  19
ENDBRANCH   1  16
TORSDOF 4
ENDMDL
MODEL 5
REMARK VINA RESULT:    -5.951      1.252      1.793
REMARK INTER + INTRA:          -7.335
REMARK INTER:                  -6.995
REMARK INTRA:                  -0.340
REMARK UNBOUND:                -0.166
REMARK  Name = 
REMARK  4 active torsions:
REMARK  status: ('A' for Active; 'I' for Inactive)
REMARK    1  A    between atoms: N_1  and  C_2
REMARK    2  A    between atoms: C_2  and  C_3
REMARK    3  A    between atoms: N_6  and  C_7
REMARK    4  A    between atoms: C_7  and  C_8
REMARK                            x       y       z     vdW  Elec       q    Type
REMARK                         _______ _______ _______ _____ _____    ______ ____
ROOT
ATOM      1  C   UNL     1      45.408   7.517  11.763  0.00  0.00    +0.000 C 
ENDROOT
BRANCH   1   2
ATOM      2  C   UNL     1      44.904   6.102  11.835  0.00  0.00    +0.000 A 
ATOM      3  N   UNL     1      44.219   5.692  12.918  0.00  0.00    +0.000 NA
ATOM      4  N   UNL     1      43.817   4.453  12.597  0.00  0.00    +0.000 N 
ATOM      5  C   UNL     1      44.187   4.047  11.344  0.00  0.00    +0.000 A 
ATOM      6  C   UNL     1      43.913   2.877  10.630  0.00  0.00    +0.000 A 
ATOM      7  C   UNL     1      44.451   2.780   9.342  0.00  0.00    +0.000 A 
ATOM      8  C   UNL     1      45.243   3.800   8.818  0.00  0.00    +0.000 A 
ATOM      9 CL   UNL     1      45.895   3.634   7.231  0.00  0.00    +0.000 Cl
ATOM     10  C   UNL     1      45.509   4.964   9.548  0.00  0.00    +0.000 A 
ATOM     11  C   UNL     1      44.947   5.094  10.831  0.00  0.00    +0.000 A 
ATOM     12  H   UNL     1      43.268   3.941  13.273  0.00  0.00    +0.000 HD
ENDBRANCH   1   2
BRANCH   1  16
ATOM     13  C   UNL     1      49.450   8.406  12.982  0.00  0.00    +0.000 C 
ATOM     14  C   UNL     1      48.857   7.015  13.249  0.00  0.00    +0.000 C 
ATOM     15  C   UNL     1      47.574   6.773  12.450  0.00  0.00    +0.000 C 
ATOM     16  N   UNL     1      46.546   7.809  12.671  0.00  0.00    +0.000 NA
ATOM     17  C   UNL     1      47.080   9.162  12.430  0.00  0.00    +0.000 C 
ATOM     18  C   UNL     1      48.349   9.443  13.239  0.00  0.00    +0.000 C 
BRANCH  13  19
ATOM     19  C   UNL     1      50.063   8.483  11.568  0.00  0.00    +0.000 C 
BRANCH  19  20
ATOM     20  N   UNL     1      50.963   7.369  11.292  0.00  0.00    +0.000 NA
ATOM     21  H   UNL     1      50.525   6.498  11.590  0.00  0.00    +0.000 HD
ATOM     22  H   UNL     1      51.812   7.467  11.847  0.00  0.00    +0.000 HD
ENDBRANCH  19  20
ENDBRANCH  13  19
ENDBRANCH   1  16
TORSDOF 4
ENDMDL
MODEL 6
REMARK VINA RESULT:    -5.849      2.712      6.550
REMARK INTER + INTRA:          -7.212
REMARK INTER:                  -6.897
REMARK INTRA:                  -0.315
REMARK UNBOUND:                -0.166
REMARK  Name = 
REMARK  4 active torsions:
REMARK  status: ('A' for Active; 'I' for Inactive)
REMARK    1  A    between atoms: N_1  and  C_2
REMARK    2  A    between atoms: C_2  and  C_3
REMARK    3  A    between atoms: N_6  and  C_7
REMARK    4  A    between atoms: C_7  and  C_8
REMARK                            x       y       z     vdW  Elec       q    Type
REMARK                         _______ _______ _______ _____ _____    ______ ____
ROOT
ATOM      1  C   UNL     1      46.654   6.306  12.567  0.00  0.00    +0.000 C 
ENDROOT
BRANCH   1   2
ATOM      2  C   UNL     1      47.072   7.749  12.501  0.00  0.00    +0.000 A 
ATOM      3  N   UNL     1      46.256   8.703  12.982  0.00  0.00    +0.000 NA
ATOM      4  N   UNL     1      46.981   9.828  12.887  0.00  0.00    +0.000 N 
ATOM      5  C   UNL     1      48.242   9.645  12.390  0.00  0.00    +0.000 A 
ATOM      6  C   UNL     1      49.303  10.537  12.202  0.00  0.00    +0.000 A 
ATOM      7  C   UNL     1      50.483  10.012  11.665  0.00  0.00    +0.000 A 
ATOM      8  C   UNL     1      50.575   8.665  11.315  0.00  0.00    +0.000 A 
ATOM      9 CL   UNL     1      52.045   8.064  10.647  0.00  0.00    +0.000 Cl
ATOM     10  C   UNL     1      49.502   7.788  11.508  0.00  0.00    +0.000 A 
ATOM     11  C   UNL     1      48.319   8.291  12.080  0.00  0.00    +0.000 A 
ATOM     12  H   UNL     1      46.563  10.692  13.204  0.00  0.00    +0.000 HD
ENDBRANCH   1   2
BRANCH   1  16
ATOM     13  C   UNL     1      42.999   4.255  11.540  0.00  0.00    +0.000 C 
ATOM     14  C   UNL     1      43.502   5.411  10.664  0.00  0.00    +0.000 C 
ATOM     15  C   UNL     1      44.958   5.774  10.968  0.00  0.00    +0.000 C 
ATOM     16  N   UNL     1      45.196   6.081  12.392  0.00  0.00    +0.000 NA
ATOM     17  C   UNL     1      44.720   4.996  13.268  0.00  0.00    +0.000 C 
ATOM     18  C   UNL     1      43.257   4.631  13.005  0.00  0.00    +0.000 C 
BRANCH  13  19
ATOM     19  C   UNL     1      43.643   2.919  11.116  0.00  0.00    +0.000 C 
BRANCH  19  20
ATOM     20  N   UNL     1      42.994   1.769  11.733  0.00  0.00    +0.000 NA
ATOM     21  H   UNL     1      42.604   2.042  12.635  0.00  0.00    +0.000 HD
ATOM     22  H   UNL     1      43.687   1.047  11.929  0.00  0.00    +0.000 HD
ENDBRANCH  19  20
ENDBRANCH  13  19
ENDBRANCH   1  16
TORSDOF 4
ENDMDL
MODEL 7
REMARK VINA RESULT:    -5.813      3.467      5.066
REMARK INTER + INTRA:          -7.169
REMARK INTER:                  -6.975
REMARK INTRA:                  -0.194
REMARK UNBOUND:                -0.166
REMARK  Name = 
REMARK  4 active torsions:
REMARK  status: ('A' for Active; 'I' for Inactive)
REMARK    1  A    between atoms: N_1  and  C_2
REMARK    2  A    between atoms: C_2  and  C_3
REMARK    3  A    between atoms: N_6  and  C_7
REMARK    4  A    between atoms: C_7  and  C_8
REMARK                            x       y       z     vdW  Elec       q    Type
REMARK                         _______ _______ _______ _____ _____    ______ ____
ROOT
ATOM      1  C   UNL     1      47.708   5.808  13.884  0.00  0.00    +0.000 C 
ENDROOT
BRANCH   1   2
ATOM      2  C   UNL     1      46.430   6.337  13.294  0.00  0.00    +0.000 A 
ATOM      3  N   UNL     1      46.275   7.661  13.116  0.00  0.00    +0.000 NA
ATOM      4  N   UNL     1      45.107   7.765  12.463  0.00  0.00    +0.000 N 
ATOM      5  C   UNL     1      44.508   6.567  12.186  0.00  0.00    +0.000 A 
ATOM      6  C   UNL     1      43.341   6.256  11.480  0.00  0.00    +0.000 A 
ATOM      7  C   UNL     1      43.007   4.902  11.375  0.00  0.00    +0.000 A 
ATOM      8  C   UNL     1      43.798   3.921  11.972  0.00  0.00    +0.000 A 
ATOM      9 CL   UNL     1      43.343   2.265  11.826  0.00  0.00    +0.000 Cl
ATOM     10  C   UNL     1      44.961   4.251  12.676  0.00  0.00    +0.000 A 
ATOM     11  C   UNL     1      45.331   5.606  12.762  0.00  0.00    +0.000 A 
ATOM     12  H   UNL     1      44.783   8.689  12.212  0.00  0.00    +0.000 HD
ENDBRANCH   1   2
BRANCH   1  16
ATOM     13  C   UNL     1      48.669   3.676  17.510  0.00  0.00    +0.000 C 
ATOM     14  C   UNL     1      47.450   3.258  16.674  0.00  0.00    +0.000 C 
ATOM     15  C   UNL     1      47.471   3.879  15.275  0.00  0.00    +0.000 C 
ATOM     16  N   UNL     1      47.589   5.350  15.291  0.00  0.00    +0.000 NA
ATOM     17  C   UNL     1      48.747   5.792  16.090  0.00  0.00    +0.000 C 
ATOM     18  C   UNL     1      48.737   5.209  17.506  0.00  0.00    +0.000 C 
BRANCH  13  19
ATOM     19  C   UNL     1      49.952   2.993  16.995  0.00  0.00    +0.000 C 
BRANCH  19  20
ATOM     20  N   UNL     1      49.672   1.754  16.277  0.00  0.00    +0.000 NA
ATOM     21  H   UNL     1      50.443   1.548  15.643  0.00  0.00    +0.000 HD
ATOM     22  H   UNL     1      48.845   1.875  15.693  0.00  0.00    +0.000 HD
ENDBRANCH  19  20
ENDBRANCH  13  19
ENDBRANCH   1  16
TORSDOF 4
ENDMDL
MODEL 8
REMARK VINA RESULT:    -5.709      4.571      7.132
REMARK INTER + INTRA:          -7.043
REMARK INTER:                  -7.304
REMARK INTRA:                   0.261
REMARK UNBOUND:                -0.166
REMARK  Name = 
REMARK  4 active torsions:
REMARK  status: ('A' for Active; 'I' for Inactive)
REMARK    1  A    between atoms: N_1  and  C_2
REMARK    2  A    between atoms: C_2  and  C_3
REMARK    3  A    between atoms: N_6  and  C_7
REMARK    4  A    between atoms: C_7  and  C_8
REMARK                            x       y       z     vdW  Elec       q    Type
REMARK                         _______ _______ _______ _____ _____    ______ ____
ROOT
ATOM      1  C   UNL     1      47.268   5.614  13.855  0.00  0.00    +0.000 C 
ENDROOT
BRANCH   1   2
ATOM      2  C   UNL     1      47.456   4.517  14.866  0.00  0.00    +0.000 A 
ATOM      3  N   UNL     1      47.469   3.234  14.464  0.00  0.00    +0.000 NA
ATOM      4  N   UNL     1      47.782   2.550  15.575  0.00  0.00    +0.000 N 
ATOM      5  C   UNL     1      48.000   3.332  16.676  0.00  0.00    +0.000 A 
ATOM      6  C   UNL     1      48.402   3.011  17.976  0.00  0.00    +0.000 A 
ATOM      7  C   UNL     1      48.536   4.072  18.877  0.00  0.00    +0.000 A 
ATOM      8  C   UNL     1      48.256   5.382  18.489  0.00  0.00    +0.000 A 
ATOM      9 CL   UNL     1      48.425   6.658  19.635  0.00  0.00    +0.000 Cl
ATOM     10  C   UNL     1      47.852   5.684  17.184  0.00  0.00    +0.000 A 
ATOM     11  C   UNL     1      47.746   4.633  16.254  0.00  0.00    +0.000 A 
ATOM     12  H   UNL     1      47.858   1.544  15.509  0.00  0.00    +0.000 HD
ENDBRANCH   1   2
BRANCH   1  16
ATOM     13  C   UNL     1      43.823   5.300  11.276  0.00  0.00    +0.000 C 
ATOM     14  C   UNL     1      44.532   6.651  11.448  0.00  0.00    +0.000 C 
ATOM     15  C   UNL     1      45.909   6.501  12.099  0.00  0.00    +0.000 C 
ATOM     16  N   UNL     1      45.869   5.786  13.390  0.00  0.00    +0.000 NA
ATOM     17  C   UNL     1      45.189   4.484  13.267  0.00  0.00    +0.000 C 
ATOM     18  C   UNL     1      43.796   4.608  12.645  0.00  0.00    +0.000 C 
BRANCH  13  19
ATOM     19  C   UNL     1      44.492   4.463  10.166  0.00  0.00    +0.000 C 
BRANCH  19  20
ATOM     20  N   UNL     1      43.770   4.541   8.901  0.00  0.00    +0.000 NA
ATOM     21  H   UNL     1      43.633   5.519   8.648  0.00  0.00    +0.000 HD
ATOM     22  H   UNL     1      42.839   4.140   9.011  0.00  0.00    +0.000 HD
ENDBRANCH  19  20
ENDBRANCH  13  19
ENDBRANCH   1  16
TORSDOF 4
ENDMDL
MODEL 9
REMARK VINA RESULT:    -5.406      3.139      6.990
REMARK INTER + INTRA:          -6.679
REMARK INTER:                  -6.293
REMARK INTRA:                  -0.386
REMARK UNBOUND:                -0.166
REMARK  Name = 
REMARK  4 active torsions:
REMARK  status: ('A' for Active; 'I' for Inactive)
REMARK    1  A    between atoms: N_1  and  C_2
REMARK    2  A    between atoms: C_2  and  C_3
REMARK    3  A    between atoms: N_6  and  C_7
REMARK    4  A    between atoms: C_7  and  C_8
REMARK                            x       y       z     vdW  Elec       q    Type
REMARK                         _______ _______ _______ _____ _____    ______ ____
ROOT
ATOM      1  C   UNL     1      45.400   7.392  12.886  0.00  0.00    +0.000 C 
ENDROOT
BRANCH   1   2
ATOM      2  C   UNL     1      46.548   8.350  13.051  0.00  0.00    +0.000 A 
ATOM      3  N   UNL     1      46.475   9.577  12.506  0.00  0.00    +0.000 NA
ATOM      4  N   UNL     1      47.581  10.194  12.950  0.00  0.00    +0.000 N 
ATOM      5  C   UNL     1      48.356   9.432  13.781  0.00  0.00    +0.000 A 
ATOM      6  C   UNL     1      49.527   9.728  14.486  0.00  0.00    +0.000 A 
ATOM      7  C   UNL     1      50.074   8.702  15.264  0.00  0.00    +0.000 A 
ATOM      8  C   UNL     1      49.481   7.440  15.305  0.00  0.00    +0.000 A 
ATOM      9 CL   UNL     1      50.195   6.202  16.268  0.00  0.00    +0.000 Cl
ATOM     10  C   UNL     1      48.311   7.162  14.590  0.00  0.00    +0.000 A 
ATOM     11  C   UNL     1      47.728   8.192  13.830  0.00  0.00    +0.000 A 
ATOM     12  H   UNL     1      47.738  11.152  12.668  0.00  0.00    +0.000 HD
ENDBRANCH   1   2
BRANCH   1  16
ATOM     13  C   UNL     1      44.885   3.448  11.214  0.00  0.00    +0.000 C 
ATOM     14  C   UNL     1      45.668   3.630  12.522  0.00  0.00    +0.000 C 
ATOM     15  C   UNL     1      45.449   5.015  13.136  0.00  0.00    +0.000 C 
ATOM     16  N   UNL     1      45.757   6.120  12.208  0.00  0.00    +0.000 NA
ATOM     17  C   UNL     1      45.028   5.977  10.935  0.00  0.00    +0.000 C 
ATOM     18  C   UNL     1      45.251   4.611  10.282  0.00  0.00    +0.000 C 
BRANCH  13  19
ATOM     19  C   UNL     1      43.372   3.321  11.489  0.00  0.00    +0.000 C 
BRANCH  19  20
ATOM     20  N   UNL     1      42.971   1.946  11.764  0.00  0.00    +0.000 NA
ATOM     21  H   UNL     1      42.334   1.931  12.560  0.00  0.00    +0.000 HD
ATOM     22  H   UNL     1      43.786   1.399  12.041  0.00  0.00    +0.000 HD
ENDBRANCH  19  20
ENDBRANCH  13  19
ENDBRANCH   1  16
TORSDOF 4
ENDMDL
