MODEL 1
REMARK VINA RESULT:    -8.758      0.000      0.000
REMARK INTER + INTRA:         -12.941
REMARK INTER:                 -11.830
REMARK INTRA:                  -1.111
REMARK UNBOUND:                -1.111
REMARK  Name = 
REMARK  7 active torsions:
REMARK  status: ('A' for Active; 'I' for Inactive)
REMARK    1  A    between atoms: C_1  and  C_2
REMARK    2  A    between atoms: C_2  and  C_3
REMARK    3  A    between atoms: C_7  and  C_8
REMARK    4  A    between atoms: C_8  and  C_9
REMARK    5  A    between atoms: C_9  and  N_10
REMARK    6  A    between atoms: N_10  and  C_11
REMARK    7  A    between atoms: C_14  and  C_15
REMARK                            x       y       z     vdW  Elec       q    Type
REMARK                         _______ _______ _______ _____ _____    ______ ____
ROOT
ATOM      1  C   UNL     1      43.107   4.372  11.128  0.00  0.00    +0.000 C 
ENDROOT
BRANCH   1   2
ATOM      2  N   UNL     1      43.766   4.918   9.946  0.00  0.00    +0.000 N 
ATOM      3  H   UNL     1      43.241   5.588   9.390  0.00  0.00    +0.000 HD
BRANCH   2   4
ATOM      4  C   UNL     1      44.731   4.181   9.264  0.00  0.00    +0.000 A 
ATOM      5  C   UNL     1      45.675   4.759   8.404  0.00  0.00    +0.000 A 
ATOM      6  C   UNL     1      46.551   3.976   7.639  0.00  0.00    +0.000 A 
ATOM      7  C   UNL     1      46.486   2.582   7.703  0.00  0.00    +0.000 A 
ATOM      8  C   UNL     1      45.543   2.000   8.548  0.00  0.00    +0.000 A 
ATOM      9  F   UNL     1      45.426   0.665   8.640  0.00  0.00    +0.000 F 
ATOM     10  C   UNL     1      44.677   2.785   9.315  0.00  0.00    +0.000 A 
BRANCH   7  11
ATOM     11  C   UNL     1      47.416   1.796   6.852  0.00  0.00    +0.000 C 
ATOM     12  N   UNL     1      48.577   2.388   6.450  0.00  0.00    +0.000 N 
ATOM     13  O   UNL     1      47.158   0.645   6.516  0.00  0.00    +0.000 OA
ATOM     14  H   UNL     1      48.833   3.336   6.713  0.00  0.00    +0.000 HD
ATOM     15  H   UNL     1      49.215   1.852   5.881  0.00  0.00    +0.000 HD
ENDBRANCH   7  11
ENDBRANCH   2   4
ENDBRANCH   1   2
BRANCH   1  16
ATOM     16  C   UNL     1      43.300   5.272  12.356  0.00  0.00    +0.000 C 
BRANCH  16  21
ATOM     17  C   UNL     1      46.753   6.783  13.006  0.00  0.00    +0.000 A 
ATOM     18  C   UNL     1      47.414   5.677  13.574  0.00  0.00    +0.000 A 
ATOM     19  C   UNL     1      46.774   4.442  13.705  0.00  0.00    +0.000 A 
ATOM     20  C   UNL     1      45.451   4.298  13.284  0.00  0.00    +0.000 A 
ATOM     21  C   UNL     1      44.768   5.376  12.721  0.00  0.00    +0.000 A 
ATOM     22  C   UNL     1      45.432   6.604  12.565  0.00  0.00    +0.000 A 
BRANCH  17  24
ATOM     23  C   UNL     1      46.616   9.173  12.216  0.00  0.00    +0.000 C 
ATOM     24  C   UNL     1      47.466   8.127  12.941  0.00  0.00    +0.000 C 
ATOM     25  C   UNL     1      47.952   8.591  14.292  0.00  0.00    +0.000 C 
ATOM     26  C   UNL     1      49.282   8.722  14.283  0.00  0.00    +0.000 C 
ATOM     27  N   UNL     1      49.855   8.436  13.076  0.00  0.00    +0.000 NA
ATOM     28  C   UNL     1      48.850   8.109  12.322  0.00  0.00    +0.000 C 
ATOM     29  F   UNL     1      49.051   7.792  11.039  0.00  0.00    +0.000 F 
ENDBRANCH  17  24
ENDBRANCH  16  21
ENDBRANCH   1  16
TORSDOF 6
ENDMDL
MODEL 2
REMARK VINA RESULT:    -8.389      1.470      2.131
REMARK INTER + INTRA:         -12.442
REMARK INTER:                 -11.126
REMARK INTRA:                  -1.316
REMARK UNBOUND:                -1.111
REMARK  Name = 
REMARK  7 active torsions:
REMARK  status: ('A' for Active; 'I' for Inactive)
REMARK    1  A    between atoms: C_1  and  C_2
REMARK    2  A    between atoms: C_2  and  C_3
REMARK    3  A    between atoms: C_7  and  C_8
REMARK    4  A    between atoms: C_8  and  C_9
REMARK    5  A    between atoms: C_9  and  N_10
REMARK    6  A    between atoms: N_10  and  C_11
REMARK    7  A    between atoms: C_14  and  C_15
REMARK                            x       y       z     vdW  Elec       q    Type
REMARK                         _______ _______ _______ _____ _____    ______ ____
ROOT
ATOM      1  C   UNL     1      44.168   3.165  12.022  0.00  0.00    +0.000 C 
ENDROOT
BRANCH   1   2
ATOM      2  N   UNL     1      43.768   3.113  10.619  0.00  0.00    +0.000 N 
ATOM      3  H   UNL     1      42.868   2.690  10.409  0.00  0.00    +0.000 HD
BRANCH   2   4
ATOM      4  C   UNL     1      44.723   3.052   9.608  0.00  0.00    +0.000 A 
ATOM      5  C   UNL     1      45.147   4.173   8.881  0.00  0.00    +0.000 A 
ATOM      6  C   UNL     1      46.017   4.056   7.788  0.00  0.00    +0.000 A 
ATOM      7  C   UNL     1      46.471   2.799   7.382  0.00  0.00    +0.000 A 
ATOM      8  C   UNL     1      46.046   1.678   8.093  0.00  0.00    +0.000 A 
ATOM      9  F   UNL     1      46.438   0.443   7.740  0.00  0.00    +0.000 F 
ATOM     10  C   UNL     1      45.183   1.800   9.187  0.00  0.00    +0.000 A 
BRANCH   7  11
ATOM     11  C   UNL     1      47.369   2.724   6.201  0.00  0.00    +0.000 C 
ATOM     12  N   UNL     1      48.692   2.469   6.413  0.00  0.00    +0.000 N 
ATOM     13  O   UNL     1      46.942   2.882   5.061  0.00  0.00    +0.000 OA
ATOM     14  H   UNL     1      49.084   2.324   7.339  0.00  0.00    +0.000 HD
ATOM     15  H   UNL     1      49.301   2.408   5.611  0.00  0.00    +0.000 HD
ENDBRANCH   7  11
ENDBRANCH   2   4
ENDBRANCH   1   2
BRANCH   1  16
ATOM     16  C   UNL     1      43.542   4.362  12.750  0.00  0.00    +0.000 C 
BRANCH  16  21
ATOM     17  C   UNL     1      46.451   6.837  12.956  0.00  0.00    +0.000 A 
ATOM     18  C   UNL     1      46.032   7.803  12.021  0.00  0.00    +0.000 A 
ATOM     19  C   UNL     1      44.804   7.688  11.364  0.00  0.00    +0.000 A 
ATOM     20  C   UNL     1      43.981   6.590  11.620  0.00  0.00    +0.000 A 
ATOM     21  C   UNL     1      44.370   5.614  12.537  0.00  0.00    +0.000 A 
ATOM     22  C   UNL     1      45.591   5.757  13.215  0.00  0.00    +0.000 A 
BRANCH  17  24
ATOM     23  C   UNL     1      47.974   6.013  14.789  0.00  0.00    +0.000 C 
ATOM     24  C   UNL     1      47.824   6.967  13.601  0.00  0.00    +0.000 C 
ATOM     25  C   UNL     1      48.948   6.850  12.601  0.00  0.00    +0.000 C 
ATOM     26  C   UNL     1      49.668   7.976  12.584  0.00  0.00    +0.000 C 
ATOM     27  N   UNL     1      49.236   8.920  13.472  0.00  0.00    +0.000 NA
ATOM     28  C   UNL     1      48.213   8.364  14.046  0.00  0.00    +0.000 C 
ATOM     29  F   UNL     1      47.552   9.012  15.011  0.00  0.00    +0.000 F 
ENDBRANCH  17  24
ENDBRANCH  16  21
ENDBRANCH   1  16
TORSDOF 6
ENDMDL
MODEL 3
REMARK VINA RESULT:    -8.204      2.958      3.766
REMARK INTER + INTRA:         -12.193
REMARK INTER:                 -11.349
REMARK INTRA:                  -0.844
REMARK UNBOUND:                -1.111
REMARK  Name = 
REMARK  7 active torsions:
REMARK  status: ('A' for Active; 'I' for Inactive)
REMARK    1  A    between atoms: C_1  and  C_2
REMARK    2  A    between atoms: C_2  and  C_3
REMARK    3  A    between atoms: C_7  and  C_8
REMARK    4  A    between atoms: C_8  and  C_9
REMARK    5  A    between atoms: C_9  and  N_10
REMARK    6  A    between atoms: N_10  and  C_11
REMARK    7  A    between atoms: C_14  and  C_15
REMARK                            x       y       z     vdW  Elec       q    Type
REMARK                         _______ _______ _______ _____ _____    ______ ____
ROOT
ATOM      1  C   UNL     1      44.421   4.423  12.013  0.00  0.00    +0.000 C 
ENDROOT
BRANCH   1   2
ATOM      2  N   UNL     1      43.963   3.873  10.742  0.00  0.00    +0.000 N 
ATOM      3  H   UNL     1      43.095   3.345  10.752  0.00  0.00    +0.000 HD
BRANCH   2   4
ATOM      4  C   UNL     1      44.871   3.535   9.742  0.00  0.00    +0.000 A 
ATOM      5  C   UNL     1      45.485   4.481   8.909  0.00  0.00    +0.000 A 
ATOM      6  C   UNL     1      46.299   4.096   7.834  0.00  0.00    +0.000 A 
ATOM      7  C   UNL     1      46.501   2.743   7.553  0.00  0.00    +0.000 A 
ATOM      8  C   UNL     1      45.886   1.797   8.371  0.00  0.00    +0.000 A 
ATOM      9  F   UNL     1      46.033   0.481   8.141  0.00  0.00    +0.000 F 
ATOM     10  C   UNL     1      45.081   2.184   9.447  0.00  0.00    +0.000 A 
BRANCH   7  11
ATOM     11  C   UNL     1      47.348   2.386   6.386  0.00  0.00    +0.000 C 
ATOM     12  N   UNL     1      47.159   3.070   5.221  0.00  0.00    +0.000 N 
ATOM     13  O   UNL     1      48.199   1.506   6.458  0.00  0.00    +0.000 OA
ATOM     14  H   UNL     1      46.471   3.811   5.122  0.00  0.00    +0.000 HD
ATOM     15  H   UNL     1      47.741   2.836   4.430  0.00  0.00    +0.000 HD
ENDBRANCH   7  11
ENDBRANCH   2   4
ENDBRANCH   1   2
BRANCH   1  16
ATOM     16  C   UNL     1      45.630   3.656  12.565  0.00  0.00    +0.000 C 
BRANCH  16  21
ATOM     17  C   UNL     1      47.590   4.810  15.641  0.00  0.00    +0.000 A 
ATOM     18  C   UNL     1      48.129   6.020  15.162  0.00  0.00    +0.000 A 
ATOM     19  C   UNL     1      47.829   6.487  13.880  0.00  0.00    +0.000 A 
ATOM     20  C   UNL     1      46.996   5.739  13.046  0.00  0.00    +0.000 A 
ATOM     21  C   UNL     1      46.450   4.535  13.490  0.00  0.00    +0.000 A 
ATOM     22  C   UNL     1      46.732   4.091  14.792  0.00  0.00    +0.000 A 
BRANCH  17  24
ATOM     23  C   UNL     1      47.238   3.026  17.387  0.00  0.00    +0.000 C 
ATOM     24  C   UNL     1      47.993   4.306  17.020  0.00  0.00    +0.000 C 
ATOM     25  C   UNL     1      49.488   4.178  17.176  0.00  0.00    +0.000 C 
ATOM     26  C   UNL     1      49.918   4.977  18.157  0.00  0.00    +0.000 C 
ATOM     27  N   UNL     1      48.921   5.674  18.778  0.00  0.00    +0.000 NA
ATOM     28  C   UNL     1      47.845   5.302  18.154  0.00  0.00    +0.000 C 
ATOM     29  F   UNL     1      46.654   5.778  18.532  0.00  0.00    +0.000 F 
ENDBRANCH  17  24
ENDBRANCH  16  21
ENDBRANCH   1  16
TORSDOF 6
ENDMDL
MODEL 4
REMARK VINA RESULT:    -8.120      1.509      2.023
REMARK INTER + INTRA:         -12.079
REMARK INTER:                 -11.249
REMARK INTRA:                  -0.830
REMARK UNBOUND:                -1.111
REMARK  Name = 
REMARK  7 active torsions:
REMARK  status: ('A' for Active; 'I' for Inactive)
REMARK    1  A    between atoms: C_1  and  C_2
REMARK    2  A    between atoms: C_2  and  C_3
REMARK    3  A    between atoms: C_7  and  C_8
REMARK    4  A    between atoms: C_8  and  C_9
REMARK    5  A    between atoms: C_9  and  N_10
REMARK    6  A    between atoms: N_10  and  C_11
REMARK    7  A    between atoms: C_14  and  C_15
REMARK                            x       y       z     vdW  Elec       q    Type
REMARK                         _______ _______ _______ _____ _____    ______ ____
ROOT
ATOM      1  C   UNL     1      43.548   4.858  11.286  0.00  0.00    +0.000 C 
ENDROOT
BRANCH   1   2
ATOM      2  N   UNL     1      43.857   4.989   9.866  0.00  0.00    +0.000 N 
ATOM      3  H   UNL     1      43.225   5.550   9.303  0.00  0.00    +0.000 HD
BRANCH   2   4
ATOM      4  C   UNL     1      44.547   3.985   9.191  0.00  0.00    +0.000 A 
ATOM      5  C   UNL     1      44.402   2.621   9.484  0.00  0.00    +0.000 A 
ATOM      6  C   UNL     1      45.202   1.648   8.871  0.00  0.00    +0.000 A 
ATOM      7  C   UNL     1      46.190   2.022   7.957  0.00  0.00    +0.000 A 
ATOM      8  C   UNL     1      46.348   3.377   7.669  0.00  0.00    +0.000 A 
ATOM      9  F   UNL     1      47.290   3.797   6.809  0.00  0.00    +0.000 F 
ATOM     10  C   UNL     1      45.542   4.344   8.277  0.00  0.00    +0.000 A 
BRANCH   7  11
ATOM     11  C   UNL     1      47.032   0.956   7.355  0.00  0.00    +0.000 C 
ATOM     12  N   UNL     1      46.751  -0.341   7.671  0.00  0.00    +0.000 N 
ATOM     13  O   UNL     1      47.955   1.223   6.593  0.00  0.00    +0.000 OA
ATOM     14  H   UNL     1      45.991  -0.605   8.291  0.00  0.00    +0.000 HD
ATOM     15  H   UNL     1      47.315  -1.067   7.255  0.00  0.00    +0.000 HD
ENDBRANCH   7  11
ENDBRANCH   2   4
ENDBRANCH   1   2
BRANCH   1  16
ATOM     16  C   UNL     1      43.959   6.106  12.078  0.00  0.00    +0.000 C 
BRANCH  16  21
ATOM     17  C   UNL     1      47.495   6.798  13.362  0.00  0.00    +0.000 A 
ATOM     18  C   UNL     1      47.708   5.654  14.156  0.00  0.00    +0.000 A 
ATOM     19  C   UNL     1      46.744   4.646  14.243  0.00  0.00    +0.000 A 
ATOM     20  C   UNL     1      45.541   4.775  13.547  0.00  0.00    +0.000 A 
ATOM     21  C   UNL     1      45.299   5.896  12.756  0.00  0.00    +0.000 A 
ATOM     22  C   UNL     1      46.288   6.889  12.650  0.00  0.00    +0.000 A 
BRANCH  17  24
ATOM     23  C   UNL     1      48.899   8.352  14.765  0.00  0.00    +0.000 C 
ATOM     24  C   UNL     1      48.543   7.902  13.346  0.00  0.00    +0.000 C 
ATOM     25  C   UNL     1      49.752   7.543  12.517  0.00  0.00    +0.000 C 
ATOM     26  C   UNL     1      49.894   8.411  11.511  0.00  0.00    +0.000 C 
ATOM     27  N   UNL     1      48.951   9.399  11.497  0.00  0.00    +0.000 NA
ATOM     28  C   UNL     1      48.198   9.126  12.519  0.00  0.00    +0.000 C 
ATOM     29  F   UNL     1      47.170   9.924  12.826  0.00  0.00    +0.000 F 
ENDBRANCH  17  24
ENDBRANCH  16  21
ENDBRANCH   1  16
TORSDOF 6
ENDMDL
MODEL 5
REMARK VINA RESULT:    -8.055      1.330      2.275
REMARK INTER + INTRA:         -11.991
REMARK INTER:                 -11.228
REMARK INTRA:                  -0.763
REMARK UNBOUND:                -1.111
REMARK  Name = 
REMARK  7 active torsions:
REMARK  status: ('A' for Active; 'I' for Inactive)
REMARK    1  A    between atoms: C_1  and  C_2
REMARK    2  A    between atoms: C_2  and  C_3
REMARK    3  A    between atoms: C_7  and  C_8
REMARK    4  A    between atoms: C_8  and  C_9
REMARK    5  A    between atoms: C_9  and  N_10
REMARK    6  A    between atoms: N_10  and  C_11
REMARK    7  A    between atoms: C_14  and  C_15
REMARK                            x       y       z     vdW  Elec       q    Type
REMARK                         _______ _______ _______ _____ _____    ______ ____
ROOT
ATOM      1  C   UNL     1      44.067   5.192  11.397  0.00  0.00    +0.000 C 
ENDROOT
BRANCH   1   2
ATOM      2  N   UNL     1      43.886   4.913   9.975  0.00  0.00    +0.000 N 
ATOM      3  H   UNL     1      42.932   4.855   9.632  0.00  0.00    +0.000 HD
BRANCH   2   4
ATOM      4  C   UNL     1      44.836   4.182   9.267  0.00  0.00    +0.000 A 
ATOM      5  C   UNL     1      45.778   4.769   8.410  0.00  0.00    +0.000 A 
ATOM      6  C   UNL     1      46.638   3.995   7.619  0.00  0.00    +0.000 A 
ATOM      7  C   UNL     1      46.558   2.600   7.651  0.00  0.00    +0.000 A 
ATOM      8  C   UNL     1      45.617   2.009   8.492  0.00  0.00    +0.000 A 
ATOM      9  F   UNL     1      45.485   0.673   8.554  0.00  0.00    +0.000 F 
ATOM     10  C   UNL     1      44.767   2.785   9.285  0.00  0.00    +0.000 A 
BRANCH   7  11
ATOM     11  C   UNL     1      47.471   1.824   6.773  0.00  0.00    +0.000 C 
ATOM     12  N   UNL     1      48.562   2.459   6.256  0.00  0.00    +0.000 N 
ATOM     13  O   UNL     1      47.260   0.643   6.515  0.00  0.00    +0.000 OA
ATOM     14  H   UNL     1      48.777   3.433   6.452  0.00  0.00    +0.000 HD
ATOM     15  H   UNL     1      49.188   1.930   5.668  0.00  0.00    +0.000 HD
ENDBRANCH   7  11
ENDBRANCH   2   4
ENDBRANCH   1   2
BRANCH   1  16
ATOM     16  C   UNL     1      45.551   5.263  11.780  0.00  0.00    +0.000 C 
BRANCH  16  21
ATOM     17  C   UNL     1      47.735   8.378  12.177  0.00  0.00    +0.000 A 
ATOM     18  C   UNL     1      46.749   9.352  12.429  0.00  0.00    +0.000 A 
ATOM     19  C   UNL     1      45.398   9.006  12.518  0.00  0.00    +0.000 A 
ATOM     20  C   UNL     1      45.009   7.677  12.338  0.00  0.00    +0.000 A 
ATOM     21  C   UNL     1      45.961   6.691  12.084  0.00  0.00    +0.000 A 
ATOM     22  C   UNL     1      47.319   7.045  12.028  0.00  0.00    +0.000 A 
BRANCH  17  24
ATOM     23  C   UNL     1      50.044   7.678  11.447  0.00  0.00    +0.000 C 
ATOM     24  C   UNL     1      49.187   8.808  12.024  0.00  0.00    +0.000 C 
ATOM     25  C   UNL     1      49.332  10.106  11.268  0.00  0.00    +0.000 C 
ATOM     26  C   UNL     1      49.915  11.026  12.042  0.00  0.00    +0.000 C 
ATOM     27  N   UNL     1      50.251  10.569  13.285  0.00  0.00    +0.000 NA
ATOM     28  C   UNL     1      49.855   9.333  13.280  0.00  0.00    +0.000 C 
ATOM     29  F   UNL     1      50.058   8.561  14.353  0.00  0.00    +0.000 F 
ENDBRANCH  17  24
ENDBRANCH  16  21
ENDBRANCH   1  16
TORSDOF 6
ENDMDL
MODEL 6
REMARK VINA RESULT:    -7.925      1.769      2.762
REMARK INTER + INTRA:         -11.816
REMARK INTER:                 -11.150
REMARK INTRA:                  -0.666
REMARK UNBOUND:                -1.111
REMARK  Name = 
REMARK  7 active torsions:
REMARK  status: ('A' for Active; 'I' for Inactive)
REMARK    1  A    between atoms: C_1  and  C_2
REMARK    2  A    between atoms: C_2  and  C_3
REMARK    3  A    between atoms: C_7  and  C_8
REMARK    4  A    between atoms: C_8  and  C_9
REMARK    5  A    between atoms: C_9  and  N_10
REMARK    6  A    between atoms: N_10  and  C_11
REMARK    7  A    between atoms: C_14  and  C_15
REMARK                            x       y       z     vdW  Elec       q    Type
REMARK                         _______ _______ _______ _____ _____    ______ ____
ROOT
ATOM      1  C   UNL     1      44.298   5.617  11.159  0.00  0.00    +0.000 C 
ENDROOT
BRANCH   1   2
ATOM      2  N   UNL     1      43.705   4.901  10.034  0.00  0.00    +0.000 N 
ATOM      3  H   UNL     1      42.697   4.770  10.047  0.00  0.00    +0.000 HD
BRANCH   2   4
ATOM      4  C   UNL     1      44.435   3.946   9.331  0.00  0.00    +0.000 A 
ATOM      5  C   UNL     1      44.334   2.569   9.573  0.00  0.00    +0.000 A 
ATOM      6  C   UNL     1      45.173   1.646   8.933  0.00  0.00    +0.000 A 
ATOM      7  C   UNL     1      46.157   2.087   8.045  0.00  0.00    +0.000 A 
ATOM      8  C   UNL     1      46.271   3.456   7.808  0.00  0.00    +0.000 A 
ATOM      9  F   UNL     1      47.208   3.939   6.975  0.00  0.00    +0.000 F 
ATOM     10  C   UNL     1      45.427   4.372   8.442  0.00  0.00    +0.000 A 
BRANCH   7  11
ATOM     11  C   UNL     1      47.041   1.073   7.415  0.00  0.00    +0.000 C 
ATOM     12  N   UNL     1      46.782  -0.245   7.655  0.00  0.00    +0.000 N 
ATOM     13  O   UNL     1      47.979   1.400   6.695  0.00  0.00    +0.000 OA
ATOM     14  H   UNL     1      46.011  -0.558   8.238  0.00  0.00    +0.000 HD
ATOM     15  H   UNL     1      47.375  -0.935   7.219  0.00  0.00    +0.000 HD
ENDBRANCH   7  11
ENDBRANCH   2   4
ENDBRANCH   1   2
BRANCH   1  16
ATOM     16  C   UNL     1      43.724   7.032  11.302  0.00  0.00    +0.000 C 
BRANCH  16  21
ATOM     17  C   UNL     1      47.143   8.420  12.310  0.00  0.00    +0.000 A 
ATOM     18  C   UNL     1      46.932   9.797  12.104  0.00  0.00    +0.000 A 
ATOM     19  C   UNL     1      45.689  10.284  11.689  0.00  0.00    +0.000 A 
ATOM     20  C   UNL     1      44.638   9.394  11.458  0.00  0.00    +0.000 A 
ATOM     21  C   UNL     1      44.817   8.024  11.650  0.00  0.00    +0.000 A 
ATOM     22  C   UNL     1      46.061   7.550  12.097  0.00  0.00    +0.000 A 
BRANCH  17  24
ATOM     23  C   UNL     1      49.442   7.808  11.476  0.00  0.00    +0.000 C 
ATOM     24  C   UNL     1      48.530   7.927  12.699  0.00  0.00    +0.000 C 
ATOM     25  C   UNL     1      49.140   8.735  13.818  0.00  0.00    +0.000 C 
ATOM     26  C   UNL     1      49.375   7.953  14.876  0.00  0.00    +0.000 C 
ATOM     27  N   UNL     1      49.039   6.643  14.679  0.00  0.00    +0.000 NA
ATOM     28  C   UNL     1      48.572   6.620  13.467  0.00  0.00    +0.000 C 
ATOM     29  F   UNL     1      48.168   5.465  12.928  0.00  0.00    +0.000 F 
ENDBRANCH  17  24
ENDBRANCH  16  21
ENDBRANCH   1  16
TORSDOF 6
ENDMDL
MODEL 7
REMARK VINA RESULT:    -7.058      3.922      6.036
REMARK INTER + INTRA:         -10.645
REMARK INTER:                  -9.370
REMARK INTRA:                  -1.275
REMARK UNBOUND:                -1.111
REMARK  Name = 
REMARK  7 active torsions:
REMARK  status: ('A' for Active; 'I' for Inactive)
REMARK    1  A    between atoms: C_1  and  C_2
REMARK    2  A    between atoms: C_2  and  C_3
REMARK    3  A    between atoms: C_7  and  C_8
REMARK    4  A    between atoms: C_8  and  C_9
REMARK    5  A    between atoms: C_9  and  N_10
REMARK    6  A    between atoms: N_10  and  C_11
REMARK    7  A    between atoms: C_14  and  C_15
REMARK                            x       y       z     vdW  Elec       q    Type
REMARK                         _______ _______ _______ _____ _____    ______ ____
ROOT
ATOM      1  C   UNL     1      48.200   7.778  13.667  0.00  0.00    +0.000 C 
ENDROOT
BRANCH   1   2
ATOM      2  N   UNL     1      46.757   7.557  13.661  0.00  0.00    +0.000 N 
ATOM      3  H   UNL     1      46.237   7.867  14.477  0.00  0.00    +0.000 HD
BRANCH   2   4
ATOM      4  C   UNL     1      46.202   6.497  12.949  0.00  0.00    +0.000 A 
ATOM      5  C   UNL     1      45.213   6.663  11.968  0.00  0.00    +0.000 A 
ATOM      6  C   UNL     1      44.589   5.565  11.361  0.00  0.00    +0.000 A 
ATOM      7  C   UNL     1      44.928   4.264  11.740  0.00  0.00    +0.000 A 
ATOM      8  C   UNL     1      45.902   4.091  12.721  0.00  0.00    +0.000 A 
ATOM      9  F   UNL     1      46.259   2.864  13.136  0.00  0.00    +0.000 F 
ATOM     10  C   UNL     1      46.528   5.189  13.320  0.00  0.00    +0.000 A 
BRANCH   7  11
ATOM     11  C   UNL     1      44.217   3.134  11.087  0.00  0.00    +0.000 C 
ATOM     12  N   UNL     1      44.891   2.405  10.151  0.00  0.00    +0.000 N 
ATOM     13  O   UNL     1      43.058   2.855  11.375  0.00  0.00    +0.000 OA
ATOM     14  H   UNL     1      45.853   2.598   9.890  0.00  0.00    +0.000 HD
ATOM     15  H   UNL     1      44.413   1.630   9.715  0.00  0.00    +0.000 HD
ENDBRANCH   7  11
ENDBRANCH   2   4
ENDBRANCH   1   2
BRANCH   1  16
ATOM     16  C   UNL     1      48.673   8.426  14.975  0.00  0.00    +0.000 C 
BRANCH  16  21
ATOM     17  C   UNL     1      49.705   5.311  16.941  0.00  0.00    +0.000 A 
ATOM     18  C   UNL     1      51.086   5.544  17.085  0.00  0.00    +0.000 A 
ATOM     19  C   UNL     1      51.676   6.714  16.598  0.00  0.00    +0.000 A 
ATOM     20  C   UNL     1      50.892   7.664  15.940  0.00  0.00    +0.000 A 
ATOM     21  C   UNL     1      49.523   7.459  15.778  0.00  0.00    +0.000 A 
ATOM     22  C   UNL     1      48.935   6.295  16.300  0.00  0.00    +0.000 A 
BRANCH  17  24
ATOM     23  C   UNL     1      48.874   4.020  18.940  0.00  0.00    +0.000 C 
ATOM     24  C   UNL     1      49.115   3.995  17.429  0.00  0.00    +0.000 C 
ATOM     25  C   UNL     1      47.898   3.578  16.640  0.00  0.00    +0.000 C 
ATOM     26  C   UNL     1      48.118   2.403  16.042  0.00  0.00    +0.000 C 
ATOM     27  N   UNL     1      49.348   1.871  16.306  0.00  0.00    +0.000 NA
ATOM     28  C   UNL     1      49.907   2.749  17.082  0.00  0.00    +0.000 C 
ATOM     29  F   UNL     1      51.135   2.530  17.565  0.00  0.00    +0.000 F 
ENDBRANCH  17  24
ENDBRANCH  16  21
ENDBRANCH   1  16
TORSDOF 6
ENDMDL
MODEL 8
REMARK VINA RESULT:    -6.967      5.221      8.468
REMARK INTER + INTRA:         -10.523
REMARK INTER:                  -9.719
REMARK INTRA:                  -0.804
REMARK UNBOUND:                -1.111
REMARK  Name = 
REMARK  7 active torsions:
REMARK  status: ('A' for Active; 'I' for Inactive)
REMARK    1  A    between atoms: C_1  and  C_2
REMARK    2  A    between atoms: C_2  and  C_3
REMARK    3  A    between atoms: C_7  and  C_8
REMARK    4  A    between atoms: C_8  and  C_9
REMARK    5  A    between atoms: C_9  and  N_10
REMARK    6  A    between atoms: N_10  and  C_11
REMARK    7  A    between atoms: C_14  and  C_15
REMARK                            x       y       z     vdW  Elec       q    Type
REMARK                         _______ _______ _______ _____ _____    ______ ____
ROOT
ATOM      1  C   UNL     1      47.201   4.268  16.161  0.00  0.00    +0.000 C 
ENDROOT
BRANCH   1   2
ATOM      2  N   UNL     1      47.628   3.379  17.237  0.00  0.00    +0.000 N 
ATOM      3  H   UNL     1      46.963   3.204  17.985  0.00  0.00    +0.000 HD
BRANCH   2   4
ATOM      4  C   UNL     1      48.973   3.268  17.578  0.00  0.00    +0.000 A 
ATOM      5  C   UNL     1      49.691   4.287  18.220  0.00  0.00    +0.000 A 
ATOM      6  C   UNL     1      51.073   4.189  18.437  0.00  0.00    +0.000 A 
ATOM      7  C   UNL     1      51.777   3.068  17.993  0.00  0.00    +0.000 A 
ATOM      8  C   UNL     1      51.072   2.055  17.344  0.00  0.00    +0.000 A 
ATOM      9  F   UNL     1      51.699   0.960  16.883  0.00  0.00    +0.000 F 
ATOM     10  C   UNL     1      49.693   2.154  17.137  0.00  0.00    +0.000 A 
BRANCH   7  11
ATOM     11  C   UNL     1      53.245   3.024  18.221  0.00  0.00    +0.000 C 
ATOM     12  N   UNL     1      53.724   2.166  19.166  0.00  0.00    +0.000 N 
ATOM     13  O   UNL     1      54.013   3.734  17.580  0.00  0.00    +0.000 OA
ATOM     14  H   UNL     1      53.123   1.556  19.713  0.00  0.00    +0.000 HD
ATOM     15  H   UNL     1      54.721   2.127  19.315  0.00  0.00    +0.000 HD
ENDBRANCH   7  11
ENDBRANCH   2   4
ENDBRANCH   1   2
BRANCH   1  16
ATOM     16  C   UNL     1      47.339   3.605  14.784  0.00  0.00    +0.000 C 
BRANCH  16  21
ATOM     17  C   UNL     1      45.357   4.969  11.810  0.00  0.00    +0.000 A 
ATOM     18  C   UNL     1      45.830   6.295  11.773  0.00  0.00    +0.000 A 
ATOM     19  C   UNL     1      46.812   6.737  12.664  0.00  0.00    +0.000 A 
ATOM     20  C   UNL     1      47.325   5.860  13.622  0.00  0.00    +0.000 A 
ATOM     21  C   UNL     1      46.874   4.542  13.686  0.00  0.00    +0.000 A 
ATOM     22  C   UNL     1      45.910   4.100  12.765  0.00  0.00    +0.000 A 
BRANCH  17  24
ATOM     23  C   UNL     1      42.989   5.405  11.062  0.00  0.00    +0.000 C 
ATOM     24  C   UNL     1      44.241   4.548  10.864  0.00  0.00    +0.000 C 
ATOM     25  C   UNL     1      44.694   4.482   9.426  0.00  0.00    +0.000 C 
ATOM     26  C   UNL     1      44.556   3.239   8.956  0.00  0.00    +0.000 C 
ATOM     27  N   UNL     1      44.028   2.363   9.861  0.00  0.00    +0.000 NA
ATOM     28  C   UNL     1      43.844   3.085  10.924  0.00  0.00    +0.000 C 
ATOM     29  F   UNL     1      43.302   2.540  12.019  0.00  0.00    +0.000 F 
ENDBRANCH  17  24
ENDBRANCH  16  21
ENDBRANCH   1  16
TORSDOF 6
ENDMDL
MODEL 9
REMARK VINA RESULT:    -6.884      3.950      6.603
REMARK INTER + INTRA:         -10.410
REMARK INTER:                  -8.899
REMARK INTRA:                  -1.510
REMARK UNBOUND:                -1.111
REMARK  Name = 
REMARK  7 active torsions:
REMARK  status: ('A' for Active; 'I' for Inactive)
REMARK    1  A    between atoms: C_1  and  C_2
REMARK    2  A    between atoms: C_2  and  C_3
REMARK    3  A    between atoms: C_7  and  C_8
REMARK    4  A    between atoms: C_8  and  C_9
REMARK    5  A    between atoms: C_9  and  N_10
REMARK    6  A    between atoms: N_10  and  C_11
REMARK    7  A    between atoms: C_14  and  C_15
REMARK                            x       y       z     vdW  Elec       q    Type
REMARK                         _______ _______ _______ _____ _____    ______ ____
ROOT
ATOM      1  C   UNL     1      49.450   7.992  12.936  0.00  0.00    +0.000 C 
ENDROOT
BRANCH   1   2
ATOM      2  N   UNL     1      49.065   6.626  12.598  0.00  0.00    +0.000 N 
ATOM      3  H   UNL     1      49.594   6.163  11.865  0.00  0.00    +0.000 HD
BRANCH   2   4
ATOM      4  C   UNL     1      47.753   6.192  12.770  0.00  0.00    +0.000 A 
ATOM      5  C   UNL     1      47.382   5.219  13.710  0.00  0.00    +0.000 A 
ATOM      6  C   UNL     1      46.074   4.717  13.772  0.00  0.00    +0.000 A 
ATOM      7  C   UNL     1      45.105   5.166  12.872  0.00  0.00    +0.000 A 
ATOM      8  C   UNL     1      45.469   6.125  11.928  0.00  0.00    +0.000 A 
ATOM      9  F   UNL     1      44.583   6.584  11.029  0.00  0.00    +0.000 F 
ATOM     10  C   UNL     1      46.772   6.629  11.875  0.00  0.00    +0.000 A 
BRANCH   7  11
ATOM     11  C   UNL     1      43.741   4.583  12.959  0.00  0.00    +0.000 C 
ATOM     12  N   UNL     1      42.686   5.433  13.116  0.00  0.00    +0.000 N 
ATOM     13  O   UNL     1      43.558   3.372  12.890  0.00  0.00    +0.000 OA
ATOM     14  H   UNL     1      42.794   6.442  13.169  0.00  0.00    +0.000 HD
ATOM     15  H   UNL     1      41.759   5.039  13.165  0.00  0.00    +0.000 HD
ENDBRANCH   7  11
ENDBRANCH   2   4
ENDBRANCH   1   2
BRANCH   1  16
ATOM     16  C   UNL     1      49.062   8.354  14.376  0.00  0.00    +0.000 C 
BRANCH  16  21
ATOM     17  C   UNL     1      49.842   5.733  17.051  0.00  0.00    +0.000 A 
ATOM     18  C   UNL     1      51.249   5.799  17.072  0.00  0.00    +0.000 A 
ATOM     19  C   UNL     1      51.942   6.710  16.270  0.00  0.00    +0.000 A 
ATOM     20  C   UNL     1      51.235   7.560  15.417  0.00  0.00    +0.000 A 
ATOM     21  C   UNL     1      49.842   7.516  15.371  0.00  0.00    +0.000 A 
ATOM     22  C   UNL     1      49.155   6.619  16.205  0.00  0.00    +0.000 A 
BRANCH  17  24
ATOM     23  C   UNL     1      49.662   4.666  19.328  0.00  0.00    +0.000 C 
ATOM     24  C   UNL     1      49.130   4.683  17.892  0.00  0.00    +0.000 C 
ATOM     25  C   UNL     1      47.628   4.800  17.817  0.00  0.00    +0.000 C 
ATOM     26  C   UNL     1      47.103   3.680  17.311  0.00  0.00    +0.000 C 
ATOM     27  N   UNL     1      48.030   2.720  17.019  0.00  0.00    +0.000 NA
ATOM     28  C   UNL     1      49.161   3.269  17.345  0.00  0.00    +0.000 C 
ATOM     29  F   UNL     1      50.301   2.581  17.214  0.00  0.00    +0.000 F 
ENDBRANCH  17  24
ENDBRANCH  16  21
ENDBRANCH   1  16
TORSDOF 6
ENDMDL
