MODEL 1
REMARK VINA RESULT:    -7.819      0.000      0.000
REMARK INTER + INTRA:         -10.230
REMARK INTER:                  -9.648
REMARK INTRA:                  -0.583
REMARK UNBOUND:                -0.583
REMARK  Name = 
REMARK  5 active torsions:
REMARK  status: ('A' for Active; 'I' for Inactive)
REMARK    1  A    between atoms: C_1  and  C_2
REMARK    2  A    between atoms: C_2  and  O_3
REMARK    3  A    between atoms: C_2  and  C_13
REMARK    4  A    between atoms: O_3  and  C_4
REMARK    5  A    between atoms: C_7  and  C_8
REMARK                            x       y       z     vdW  Elec       q    Type
REMARK                         _______ _______ _______ _____ _____    ______ ____
ROOT
ATOM      1  C   UNL     1      44.519   3.676   9.269  0.00  0.00    +0.000 A 
ATOM      2  C   UNL     1      45.345   4.285   8.321  0.00  0.00    +0.000 A 
ATOM      3  C   UNL     1      46.240   3.514   7.573  0.00  0.00    +0.000 A 
ATOM      4  C   UNL     1      46.318   2.154   7.835  0.00  0.00    +0.000 A 
ATOM      5  N   UNL     1      45.556   1.524   8.770  0.00  0.00    +0.000 NA
ATOM      6  C   UNL     1      44.682   2.307   9.457  0.00  0.00    +0.000 A 
ENDROOT
BRANCH   4   7
ATOM      7  C   UNL     1      47.320   1.324   7.096  0.00  0.00    +0.000 C 
ATOM      8  N   UNL     1      48.400   1.993   6.589  0.00  0.00    +0.000 N 
ATOM      9  O   UNL     1      47.182   0.110   6.937  0.00  0.00    +0.000 OA
ATOM     10  H   UNL     1      48.471   2.997   6.705  0.00  0.00    +0.000 HD
ATOM     11  H   UNL     1      49.085   1.492   6.048  0.00  0.00    +0.000 HD
ENDBRANCH   4   7
BRANCH   1  12
ATOM     12  O   UNL     1      43.657   4.476   9.969  0.00  0.00    +0.000 OA
BRANCH  12  14
ATOM     13  C   UNL     1      42.714   5.446  12.011  0.00  0.00    +0.000 C 
ATOM     14  C   UNL     1      43.758   4.498  11.411  0.00  0.00    +0.000 C 
BRANCH  14  15
ATOM     15  C   UNL     1      45.176   4.980  11.835  0.00  0.00    +0.000 C 
ATOM     16  C   UNL     1      45.442   4.806  13.343  0.00  0.00    +0.000 C 
ATOM     17  C   UNL     1      46.845   5.269  13.726  0.00  0.00    +0.000 C 
ATOM     18  C   UNL     1      47.085   6.711  13.301  0.00  0.00    +0.000 C 
ATOM     19  C   UNL     1      46.842   6.895  11.808  0.00  0.00    +0.000 C 
ATOM     20  C   UNL     1      45.441   6.431  11.399  0.00  0.00    +0.000 C 
ENDBRANCH  14  15
ENDBRANCH  12  14
ENDBRANCH   1  12
TORSDOF 4
ENDMDL
MODEL 2
REMARK VINA RESULT:    -6.479      3.535      6.062
REMARK INTER + INTRA:          -8.577
REMARK INTER:                  -7.938
REMARK INTRA:                  -0.638
REMARK UNBOUND:                -0.583
REMARK  Name = 
REMARK  5 active torsions:
REMARK  status: ('A' for Active; 'I' for Inactive)
REMARK    1  A    between atoms: C_1  and  C_2
REMARK    2  A    between atoms: C_2  and  O_3
REMARK    3  A    between atoms: C_2  and  C_13
REMARK    4  A    between atoms: O_3  and  C_4
REMARK    5  A    between atoms: C_7  and  C_8
REMARK                            x       y       z     vdW  Elec       q    Type
REMARK                         _______ _______ _______ _____ _____    ______ ____
ROOT
ATOM      1  C   UNL     1      45.979   5.361  12.709  0.00  0.00    +0.000 A 
ATOM      2  C   UNL     1      46.349   6.563  12.100  0.00  0.00    +0.000 A 
ATOM      3  C   UNL     1      47.515   7.222  12.502  0.00  0.00    +0.000 A 
ATOM      4  C   UNL     1      48.254   6.678  13.542  0.00  0.00    +0.000 A 
ATOM      5  N   UNL     1      47.915   5.527  14.184  0.00  0.00    +0.000 NA
ATOM      6  C   UNL     1      46.787   4.908  13.745  0.00  0.00    +0.000 A 
ENDROOT
BRANCH   4   7
ATOM      7  C   UNL     1      49.466   7.405  14.035  0.00  0.00    +0.000 C 
ATOM      8  N   UNL     1      50.493   7.540  13.141  0.00  0.00    +0.000 N 
ATOM      9  O   UNL     1      49.549   7.846  15.182  0.00  0.00    +0.000 OA
ATOM     10  H   UNL     1      50.411   7.137  12.215  0.00  0.00    +0.000 HD
ATOM     11  H   UNL     1      51.348   7.984  13.432  0.00  0.00    +0.000 HD
ENDBRANCH   4   7
BRANCH   1  12
ATOM     12  O   UNL     1      44.831   4.755  12.274  0.00  0.00    +0.000 OA
BRANCH  12  14
ATOM     13  C   UNL     1      42.670   5.488  11.383  0.00  0.00    +0.000 C 
ATOM     14  C   UNL     1      44.166   5.298  11.110  0.00  0.00    +0.000 C 
BRANCH  14  15
ATOM     15  C   UNL     1      44.337   4.328   9.904  0.00  0.00    +0.000 C 
ATOM     16  C   UNL     1      44.444   2.852  10.333  0.00  0.00    +0.000 C 
ATOM     17  C   UNL     1      44.591   1.923   9.131  0.00  0.00    +0.000 C 
ATOM     18  C   UNL     1      45.783   2.320   8.271  0.00  0.00    +0.000 C 
ATOM     19  C   UNL     1      45.682   3.774   7.824  0.00  0.00    +0.000 C 
ATOM     20  C   UNL     1      45.527   4.725   9.015  0.00  0.00    +0.000 C 
ENDBRANCH  14  15
ENDBRANCH  12  14
ENDBRANCH   1  12
TORSDOF 4
ENDMDL
MODEL 3
REMARK VINA RESULT:    -6.246      3.164      6.486
REMARK INTER + INTRA:          -8.289
REMARK INTER:                  -7.661
REMARK INTRA:                  -0.628
REMARK UNBOUND:                -0.583
REMARK  Name = 
REMARK  5 active torsions:
REMARK  status: ('A' for Active; 'I' for Inactive)
REMARK    1  A    between atoms: C_1  and  C_2
REMARK    2  A    between atoms: C_2  and  O_3
REMARK    3  A    between atoms: C_2  and  C_13
REMARK    4  A    between atoms: O_3  and  C_4
REMARK    5  A    between atoms: C_7  and  C_8
REMARK                            x       y       z     vdW  Elec       q    Type
REMARK                         _______ _______ _______ _____ _____    ______ ____
ROOT
ATOM      1  C   UNL     1      45.357   4.594  11.585  0.00  0.00    +0.000 A 
ATOM      2  C   UNL     1      44.464   5.537  11.071  0.00  0.00    +0.000 A 
ATOM      3  C   UNL     1      44.567   6.879  11.451  0.00  0.00    +0.000 A 
ATOM      4  C   UNL     1      45.537   7.229  12.379  0.00  0.00    +0.000 A 
ATOM      5  N   UNL     1      46.406   6.339  12.929  0.00  0.00    +0.000 NA
ATOM      6  C   UNL     1      46.287   5.050  12.513  0.00  0.00    +0.000 A 
ENDROOT
BRANCH   4   7
ATOM      7  C   UNL     1      45.616   8.646  12.853  0.00  0.00    +0.000 C 
ATOM      8  N   UNL     1      46.493   8.892  13.874  0.00  0.00    +0.000 N 
ATOM      9  O   UNL     1      44.926   9.543  12.367  0.00  0.00    +0.000 OA
ATOM     10  H   UNL     1      47.023   8.129  14.278  0.00  0.00    +0.000 HD
ATOM     11  H   UNL     1      46.557   9.819  14.260  0.00  0.00    +0.000 HD
ENDBRANCH   4   7
BRANCH   1  12
ATOM     12  O   UNL     1      45.216   3.295  11.176  0.00  0.00    +0.000 OA
BRANCH  12  14
ATOM     13  C   UNL     1      43.850   1.755   9.848  0.00  0.00    +0.000 C 
ATOM     14  C   UNL     1      44.678   3.045   9.857  0.00  0.00    +0.000 C 
BRANCH  14  15
ATOM     15  C   UNL     1      45.840   2.902   8.831  0.00  0.00    +0.000 C 
ATOM     16  C   UNL     1      45.703   3.864   7.635  0.00  0.00    +0.000 C 
ATOM     17  C   UNL     1      46.864   3.716   6.655  0.00  0.00    +0.000 C 
ATOM     18  C   UNL     1      47.000   2.278   6.175  0.00  0.00    +0.000 C 
ATOM     19  C   UNL     1      47.154   1.316   7.347  0.00  0.00    +0.000 C 
ATOM     20  C   UNL     1      46.001   1.451   8.347  0.00  0.00    +0.000 C 
ENDBRANCH  14  15
ENDBRANCH  12  14
ENDBRANCH   1  12
TORSDOF 4
ENDMDL
MODEL 4
REMARK VINA RESULT:    -6.165      2.991      6.157
REMARK INTER + INTRA:          -8.190
REMARK INTER:                  -8.896
REMARK INTRA:                   0.706
REMARK UNBOUND:                -0.583
REMARK  Name = 
REMARK  5 active torsions:
REMARK  status: ('A' for Active; 'I' for Inactive)
REMARK    1  A    between atoms: C_1  and  C_2
REMARK    2  A    between atoms: C_2  and  O_3
REMARK    3  A    between atoms: C_2  and  C_13
REMARK    4  A    between atoms: O_3  and  C_4
REMARK    5  A    between atoms: C_7  and  C_8
REMARK                            x       y       z     vdW  Elec       q    Type
REMARK                         _______ _______ _______ _____ _____    ______ ____
ROOT
ATOM      1  C   UNL     1      45.396   4.955  11.383  0.00  0.00    +0.000 A 
ATOM      2  C   UNL     1      46.306   5.974  11.675  0.00  0.00    +0.000 A 
ATOM      3  C   UNL     1      47.008   5.961  12.884  0.00  0.00    +0.000 A 
ATOM      4  C   UNL     1      46.739   4.947  13.791  0.00  0.00    +0.000 A 
ATOM      5  N   UNL     1      45.839   3.953  13.563  0.00  0.00    +0.000 NA
ATOM      6  C   UNL     1      45.197   3.991  12.365  0.00  0.00    +0.000 A 
ENDROOT
BRANCH   4   7
ATOM      7  C   UNL     1      47.428   4.955  15.121  0.00  0.00    +0.000 C 
ATOM      8  N   UNL     1      46.837   4.217  16.110  0.00  0.00    +0.000 N 
ATOM      9  O   UNL     1      48.458   5.598  15.325  0.00  0.00    +0.000 OA
ATOM     10  H   UNL     1      45.970   3.726  15.923  0.00  0.00    +0.000 HD
ATOM     11  H   UNL     1      47.234   4.220  17.034  0.00  0.00    +0.000 HD
ENDBRANCH   4   7
BRANCH   1  12
ATOM     12  O   UNL     1      44.740   5.013  10.183  0.00  0.00    +0.000 OA
BRANCH  12  14
ATOM     13  C   UNL     1      43.818   2.777  10.573  0.00  0.00    +0.000 C 
ATOM     14  C   UNL     1      44.366   3.772   9.543  0.00  0.00    +0.000 C 
BRANCH  14  15
ATOM     15  C   UNL     1      45.608   3.140   8.847  0.00  0.00    +0.000 C 
ATOM     16  C   UNL     1      45.999   3.869   7.547  0.00  0.00    +0.000 C 
ATOM     17  C   UNL     1      47.229   3.241   6.897  0.00  0.00    +0.000 C 
ATOM     18  C   UNL     1      47.019   1.756   6.638  0.00  0.00    +0.000 C 
ATOM     19  C   UNL     1      46.648   1.019   7.920  0.00  0.00    +0.000 C 
ATOM     20  C   UNL     1      45.418   1.636   8.593  0.00  0.00    +0.000 C 
ENDBRANCH  14  15
ENDBRANCH  12  14
ENDBRANCH   1  12
TORSDOF 4
ENDMDL
MODEL 5
REMARK VINA RESULT:    -6.064      3.878      6.662
REMARK INTER + INTRA:          -8.065
REMARK INTER:                  -7.578
REMARK INTRA:                  -0.486
REMARK UNBOUND:                -0.583
REMARK  Name = 
REMARK  5 active torsions:
REMARK  status: ('A' for Active; 'I' for Inactive)
REMARK    1  A    between atoms: C_1  and  C_2
REMARK    2  A    between atoms: C_2  and  O_3
REMARK    3  A    between atoms: C_2  and  C_13
REMARK    4  A    between atoms: O_3  and  C_4
REMARK    5  A    between atoms: C_7  and  C_8
REMARK                            x       y       z     vdW  Elec       q    Type
REMARK                         _______ _______ _______ _____ _____    ______ ____
ROOT
ATOM      1  C   UNL     1      45.681   5.938  12.593  0.00  0.00    +0.000 A 
ATOM      2  C   UNL     1      46.964   5.662  13.073  0.00  0.00    +0.000 A 
ATOM      3  C   UNL     1      47.730   6.679  13.650  0.00  0.00    +0.000 A 
ATOM      4  C   UNL     1      47.204   7.963  13.684  0.00  0.00    +0.000 A 
ATOM      5  N   UNL     1      45.973   8.283  13.200  0.00  0.00    +0.000 NA
ATOM      6  C   UNL     1      45.253   7.259  12.670  0.00  0.00    +0.000 A 
ENDROOT
BRANCH   4   7
ATOM      7  C   UNL     1      48.037   9.079  14.232  0.00  0.00    +0.000 C 
ATOM      8  N   UNL     1      47.797   9.427  15.533  0.00  0.00    +0.000 N 
ATOM      9  O   UNL     1      48.880   9.666  13.553  0.00  0.00    +0.000 OA
ATOM     10  H   UNL     1      47.073   8.950  16.057  0.00  0.00    +0.000 HD
ATOM     11  H   UNL     1      48.299  10.198  15.940  0.00  0.00    +0.000 HD
ENDBRANCH   4   7
BRANCH   1  12
ATOM     12  O   UNL     1      44.971   4.905  12.043  0.00  0.00    +0.000 OA
BRANCH  12  14
ATOM     13  C   UNL     1      42.600   5.021  11.439  0.00  0.00    +0.000 C 
ATOM     14  C   UNL     1      44.048   5.200  10.970  0.00  0.00    +0.000 C 
BRANCH  14  15
ATOM     15  C   UNL     1      44.309   4.241   9.771  0.00  0.00    +0.000 C 
ATOM     16  C   UNL     1      44.425   2.766  10.199  0.00  0.00    +0.000 C 
ATOM     17  C   UNL     1      44.662   1.848   9.002  0.00  0.00    +0.000 C 
ATOM     18  C   UNL     1      45.891   2.277   8.213  0.00  0.00    +0.000 C 
ATOM     19  C   UNL     1      45.782   3.730   7.768  0.00  0.00    +0.000 C 
ATOM     20  C   UNL     1      45.538   4.670   8.953  0.00  0.00    +0.000 C 
ENDBRANCH  14  15
ENDBRANCH  12  14
ENDBRANCH   1  12
TORSDOF 4
ENDMDL
MODEL 6
REMARK VINA RESULT:    -5.602      3.094      5.232
REMARK INTER + INTRA:          -7.495
REMARK INTER:                  -6.933
REMARK INTRA:                  -0.562
REMARK UNBOUND:                -0.583
REMARK  Name = 
REMARK  5 active torsions:
REMARK  status: ('A' for Active; 'I' for Inactive)
REMARK    1  A    between atoms: C_1  and  C_2
REMARK    2  A    between atoms: C_2  and  O_3
REMARK    3  A    between atoms: C_2  and  C_13
REMARK    4  A    between atoms: O_3  and  C_4
REMARK    5  A    between atoms: C_7  and  C_8
REMARK                            x       y       z     vdW  Elec       q    Type
REMARK                         _______ _______ _______ _____ _____    ______ ____
ROOT
ATOM      1  C   UNL     1      46.360   5.908  12.864  0.00  0.00    +0.000 A 
ATOM      2  C   UNL     1      45.810   6.098  11.593  0.00  0.00    +0.000 A 
ATOM      3  C   UNL     1      45.005   5.107  11.023  0.00  0.00    +0.000 A 
ATOM      4  C   UNL     1      44.816   3.926  11.726  0.00  0.00    +0.000 A 
ATOM      5  N   UNL     1      45.357   3.685  12.951  0.00  0.00    +0.000 NA
ATOM      6  C   UNL     1      46.112   4.685  13.478  0.00  0.00    +0.000 A 
ENDROOT
BRANCH   4   7
ATOM      7  C   UNL     1      44.017   2.825  11.101  0.00  0.00    +0.000 C 
ATOM      8  N   UNL     1      44.534   2.279   9.958  0.00  0.00    +0.000 N 
ATOM      9  O   UNL     1      42.948   2.436  11.575  0.00  0.00    +0.000 OA
ATOM     10  H   UNL     1      45.398   2.642   9.573  0.00  0.00    +0.000 HD
ATOM     11  H   UNL     1      44.018   1.563   9.474  0.00  0.00    +0.000 HD
ENDBRANCH   4   7
BRANCH   1  12
ATOM     12  O   UNL     1      47.135   6.912  13.378  0.00  0.00    +0.000 OA
BRANCH  12  14
ATOM     13  C   UNL     1      49.298   7.101  14.512  0.00  0.00    +0.000 C 
ATOM     14  C   UNL     1      48.567   6.839  13.191  0.00  0.00    +0.000 C 
BRANCH  14  15
ATOM     15  C   UNL     1      49.019   7.903  12.148  0.00  0.00    +0.000 C 
ATOM     16  C   UNL     1      50.539   8.153  12.169  0.00  0.00    +0.000 C 
ATOM     17  C   UNL     1      50.956   9.186  11.124  0.00  0.00    +0.000 C 
ATOM     18  C   UNL     1      50.193  10.491  11.305  0.00  0.00    +0.000 C 
ATOM     19  C   UNL     1      48.687  10.261  11.269  0.00  0.00    +0.000 C 
ATOM     20  C   UNL     1      48.246   9.223  12.306  0.00  0.00    +0.000 C 
ENDBRANCH  14  15
ENDBRANCH  12  14
ENDBRANCH   1  12
TORSDOF 4
ENDMDL
MODEL 7
REMARK VINA RESULT:    -5.587      4.023      6.301
REMARK INTER + INTRA:          -7.476
REMARK INTER:                  -7.005
REMARK INTRA:                  -0.471
REMARK UNBOUND:                -0.583
REMARK  Name = 
REMARK  5 active torsions:
REMARK  status: ('A' for Active; 'I' for Inactive)
REMARK    1  A    between atoms: C_1  and  C_2
REMARK    2  A    between atoms: C_2  and  O_3
REMARK    3  A    between atoms: C_2  and  C_13
REMARK    4  A    between atoms: O_3  and  C_4
REMARK    5  A    between atoms: C_7  and  C_8
REMARK                            x       y       z     vdW  Elec       q    Type
REMARK                         _______ _______ _______ _____ _____    ______ ____
ROOT
ATOM      1  C   UNL     1      46.913   5.564  13.490  0.00  0.00    +0.000 A 
ATOM      2  C   UNL     1      46.225   6.653  12.949  0.00  0.00    +0.000 A 
ATOM      3  C   UNL     1      44.954   6.473  12.395  0.00  0.00    +0.000 A 
ATOM      4  C   UNL     1      44.428   5.189  12.354  0.00  0.00    +0.000 A 
ATOM      5  N   UNL     1      45.075   4.096  12.840  0.00  0.00    +0.000 NA
ATOM      6  C   UNL     1      46.298   4.320  13.392  0.00  0.00    +0.000 A 
ENDROOT
BRANCH   4   7
ATOM      7  C   UNL     1      43.100   4.965  11.701  0.00  0.00    +0.000 C 
ATOM      8  N   UNL     1      42.202   5.993  11.793  0.00  0.00    +0.000 N 
ATOM      9  O   UNL     1      42.818   3.913  11.126  0.00  0.00    +0.000 OA
ATOM     10  H   UNL     1      42.448   6.833  12.302  0.00  0.00    +0.000 HD
ATOM     11  H   UNL     1      41.279   5.880  11.407  0.00  0.00    +0.000 HD
ENDBRANCH   4   7
BRANCH   1  12
ATOM     12  O   UNL     1      48.152   5.796  14.024  0.00  0.00    +0.000 OA
BRANCH  12  14
ATOM     13  C   UNL     1      49.421   7.040  15.710  0.00  0.00    +0.000 C 
ATOM     14  C   UNL     1      48.246   6.095  15.435  0.00  0.00    +0.000 C 
BRANCH  14  15
ATOM     15  C   UNL     1      48.462   4.779  16.240  0.00  0.00    +0.000 C 
ATOM     16  C   UNL     1      47.169   4.260  16.897  0.00  0.00    +0.000 C 
ATOM     17  C   UNL     1      47.406   2.962  17.663  0.00  0.00    +0.000 C 
ATOM     18  C   UNL     1      48.507   3.127  18.702  0.00  0.00    +0.000 C 
ATOM     19  C   UNL     1      49.799   3.624  18.063  0.00  0.00    +0.000 C 
ATOM     20  C   UNL     1      49.583   4.925  17.283  0.00  0.00    +0.000 C 
ENDBRANCH  14  15
ENDBRANCH  12  14
ENDBRANCH   1  12
TORSDOF 4
ENDMDL
MODEL 8
REMARK VINA RESULT:    -5.388      3.860      5.755
REMARK INTER + INTRA:          -7.230
REMARK INTER:                  -6.712
REMARK INTRA:                  -0.518
REMARK UNBOUND:                -0.583
REMARK  Name = 
REMARK  5 active torsions:
REMARK  status: ('A' for Active; 'I' for Inactive)
REMARK    1  A    between atoms: C_1  and  C_2
REMARK    2  A    between atoms: C_2  and  O_3
REMARK    3  A    between atoms: C_2  and  C_13
REMARK    4  A    between atoms: O_3  and  C_4
REMARK    5  A    between atoms: C_7  and  C_8
REMARK                            x       y       z     vdW  Elec       q    Type
REMARK                         _______ _______ _______ _____ _____    ______ ____
ROOT
ATOM      1  C   UNL     1      47.077   5.458  13.050  0.00  0.00    +0.000 A 
ATOM      2  C   UNL     1      46.464   6.110  11.977  0.00  0.00    +0.000 A 
ATOM      3  C   UNL     1      45.183   5.731  11.565  0.00  0.00    +0.000 A 
ATOM      4  C   UNL     1      44.571   4.668  12.213  0.00  0.00    +0.000 A 
ATOM      5  N   UNL     1      45.142   3.984  13.241  0.00  0.00    +0.000 NA
ATOM      6  C   UNL     1      46.377   4.402  13.624  0.00  0.00    +0.000 A 
ENDROOT
BRANCH   4   7
ATOM      7  C   UNL     1      43.230   4.199  11.740  0.00  0.00    +0.000 C 
ATOM      8  N   UNL     1      42.228   5.131  11.750  0.00  0.00    +0.000 N 
ATOM      9  O   UNL     1      43.028   3.040  11.376  0.00  0.00    +0.000 OA
ATOM     10  H   UNL     1      42.415   6.068  12.088  0.00  0.00    +0.000 HD
ATOM     11  H   UNL     1      41.297   4.861  11.481  0.00  0.00    +0.000 HD
ENDBRANCH   4   7
BRANCH   1  12
ATOM     12  O   UNL     1      48.329   5.873  13.416  0.00  0.00    +0.000 OA
BRANCH  12  14
ATOM     13  C   UNL     1      49.802   7.563  12.429  0.00  0.00    +0.000 C 
ATOM     14  C   UNL     1      48.625   7.287  13.371  0.00  0.00    +0.000 C 
BRANCH  14  15
ATOM     15  C   UNL     1      48.993   7.795  14.796  0.00  0.00    +0.000 C 
ATOM     16  C   UNL     1      48.994   6.671  15.850  0.00  0.00    +0.000 C 
ATOM     17  C   UNL     1      49.376   7.194  17.233  0.00  0.00    +0.000 C 
ATOM     18  C   UNL     1      48.462   8.333  17.663  0.00  0.00    +0.000 C 
ATOM     19  C   UNL     1      48.464   9.460  16.637  0.00  0.00    +0.000 C 
ATOM     20  C   UNL     1      48.089   8.957  15.240  0.00  0.00    +0.000 C 
ENDBRANCH  14  15
ENDBRANCH  12  14
ENDBRANCH   1  12
TORSDOF 4
ENDMDL
MODEL 9
REMARK VINA RESULT:    -5.237      4.303      6.899
REMARK INTER + INTRA:          -7.044
REMARK INTER:                  -6.836
REMARK INTRA:                  -0.208
REMARK UNBOUND:                -0.583
REMARK  Name = 
REMARK  5 active torsions:
REMARK  status: ('A' for Active; 'I' for Inactive)
REMARK    1  A    between atoms: C_1  and  C_2
REMARK    2  A    between atoms: C_2  and  O_3
REMARK    3  A    between atoms: C_2  and  C_13
REMARK    4  A    between atoms: O_3  and  C_4
REMARK    5  A    between atoms: C_7  and  C_8
REMARK                            x       y       z     vdW  Elec       q    Type
REMARK                         _______ _______ _______ _____ _____    ______ ____
ROOT
ATOM      1  C   UNL     1      47.484   5.902  13.341  0.00  0.00    +0.000 A 
ATOM      2  C   UNL     1      46.864   4.763  13.861  0.00  0.00    +0.000 A 
ATOM      3  C   UNL     1      47.090   4.387  15.189  0.00  0.00    +0.000 A 
ATOM      4  C   UNL     1      47.976   5.140  15.945  0.00  0.00    +0.000 A 
ATOM      5  N   UNL     1      48.626   6.237  15.471  0.00  0.00    +0.000 NA
ATOM      6  C   UNL     1      48.358   6.581  14.183  0.00  0.00    +0.000 A 
ENDROOT
BRANCH   4   7
ATOM      7  C   UNL     1      48.286   4.712  17.346  0.00  0.00    +0.000 C 
ATOM      8  N   UNL     1      47.259   4.136  18.042  0.00  0.00    +0.000 N 
ATOM      9  O   UNL     1      49.395   4.880  17.855  0.00  0.00    +0.000 OA
ATOM     10  H   UNL     1      46.348   4.042  17.609  0.00  0.00    +0.000 HD
ATOM     11  H   UNL     1      47.400   3.866  19.001  0.00  0.00    +0.000 HD
ENDBRANCH   4   7
BRANCH   1  12
ATOM     12  O   UNL     1      47.224   6.228  12.037  0.00  0.00    +0.000 OA
BRANCH  12  14
ATOM     13  C   UNL     1      45.827   7.994  13.002  0.00  0.00    +0.000 C 
ATOM     14  C   UNL     1      46.147   7.152  11.762  0.00  0.00    +0.000 C 
BRANCH  14  15
ATOM     15  C   UNL     1      44.869   6.366  11.346  0.00  0.00    +0.000 C 
ATOM     16  C   UNL     1      43.957   6.031  12.542  0.00  0.00    +0.000 C 
ATOM     17  C   UNL     1      42.704   5.277  12.103  0.00  0.00    +0.000 C 
ATOM     18  C   UNL     1      43.062   4.015  11.332  0.00  0.00    +0.000 C 
ATOM     19  C   UNL     1      43.951   4.333  10.135  0.00  0.00    +0.000 C 
ATOM     20  C   UNL     1      45.213   5.095  10.551  0.00  0.00    +0.000 C 
ENDBRANCH  14  15
ENDBRANCH  12  14
ENDBRANCH   1  12
TORSDOF 4
ENDMDL
