MODEL 1
REMARK VINA RESULT:    -8.369      0.000      0.000
REMARK INTER + INTRA:         -14.837
REMARK INTER:                 -13.506
REMARK INTRA:                  -1.331
REMARK UNBOUND:                -1.331
REMARK  Name = 
REMARK  11 active torsions:
REMARK  status: ('A' for Active; 'I' for Inactive)
REMARK    1  A    between atoms: N_1  and  C_2
REMARK    2  A    between atoms: C_2  and  C_3
REMARK    3  A    between atoms: C_3  and  O_4
REMARK    4  A    between atoms: O_4  and  C_5
REMARK    5  A    between atoms: C_5  and  C_6
REMARK    6  A    between atoms: C_6  and  N_7
REMARK    7  A    between atoms: C_6  and  C_20
REMARK    8  A    between atoms: C_8  and  C_10
REMARK    9  A    between atoms: C_23  and  O_24
REMARK   10  A    between atoms: O_24  and  C_25
REMARK   11  A    between atoms: C_25  and  C_26
REMARK                            x       y       z     vdW  Elec       q    Type
REMARK                         _______ _______ _______ _____ _____    ______ ____
ROOT
ATOM      1  C   UNL     1      46.642   7.736  12.766  0.00  0.00    +0.000 C 
ENDROOT
BRANCH   1   2
ATOM      2  C   UNL     1      45.993   6.639  11.933  0.00  0.00    +0.000 A 
ATOM      3  C   UNL     1      46.410   6.456  10.608  0.00  0.00    +0.000 A 
ATOM      4  C   UNL     1      45.787   5.518   9.778  0.00  0.00    +0.000 A 
ATOM      5  C   UNL     1      44.739   4.736  10.261  0.00  0.00    +0.000 A 
ATOM      6  C   UNL     1      44.310   4.914  11.575  0.00  0.00    +0.000 A 
ATOM      7  C   UNL     1      44.930   5.855  12.403  0.00  0.00    +0.000 A 
BRANCH   5   8
ATOM      8  O   UNL     1      44.037   3.809   9.536  0.00  0.00    +0.000 OA
BRANCH   8   9
ATOM      9  C   UNL     1      44.590   2.489   9.530  0.00  0.00    +0.000 C 
BRANCH   9  10
ATOM     10  C   UNL     1      45.563   2.324   8.385  0.00  0.00    +0.000 A 
ATOM     11  C   UNL     1      45.629   3.268   7.362  0.00  0.00    +0.000 A 
ATOM     12  C   UNL     1      46.502   3.048   6.299  0.00  0.00    +0.000 A 
ATOM     13  C   UNL     1      47.284   1.900   6.284  0.00  0.00    +0.000 A 
ATOM     14  C   UNL     1      47.161   1.012   7.338  0.00  0.00    +0.000 A 
ATOM     15  N   UNL     1      46.320   1.195   8.379  0.00  0.00    +0.000 NA
ENDBRANCH   9  10
ENDBRANCH   8   9
ENDBRANCH   5   8
ENDBRANCH   1   2
BRANCH   1  16
ATOM     16  N   UNL     1      47.144   7.233  14.037  0.00  0.00    +0.000 N 
ATOM     17  C   UNL     1      48.397   6.715  14.209  0.00  0.00    +0.000 C 
ATOM     18  O   UNL     1      49.218   6.645  13.300  0.00  0.00    +0.000 OA
ATOM     19  H   UNL     1      46.483   7.210  14.804  0.00  0.00    +0.000 HD
BRANCH  17  20
ATOM     20  C   UNL     1      48.728   6.279  15.574  0.00  0.00    +0.000 A 
ATOM     21  C   UNL     1      49.672   6.980  16.313  0.00  0.00    +0.000 A 
ATOM     22  S   UNL     1      49.957   6.317  17.860  0.00  0.00    +0.000 S 
ATOM     23  C   UNL     1      48.862   5.044  17.579  0.00  0.00    +0.000 A 
ATOM     24  N   UNL     1      48.673   4.065  18.502  0.00  0.00    +0.000 NA
ATOM     25  C   UNL     1      47.854   3.135  18.136  0.00  0.00    +0.000 A 
ATOM     26  N   UNL     1      47.189   3.109  16.940  0.00  0.00    +0.000 N 
ATOM     27  C   UNL     1      47.260   4.137  16.031  0.00  0.00    +0.000 A 
ATOM     28  O   UNL     1      46.503   4.177  15.069  0.00  0.00    +0.000 OA
ATOM     29  C   UNL     1      48.242   5.157  16.345  0.00  0.00    +0.000 A 
ATOM     30  H   UNL     1      46.516   2.384  16.736  0.00  0.00    +0.000 HD
ENDBRANCH  17  20
ENDBRANCH   1  16
BRANCH   1  31
ATOM     31  C   UNL     1      45.630   8.880  13.000  0.00  0.00    +0.000 C 
BRANCH  31  32
ATOM     32  O   UNL     1      45.485   9.661  11.804  0.00  0.00    +0.000 OA
BRANCH  32  33
ATOM     33  C   UNL     1      44.177  10.238  11.712  0.00  0.00    +0.000 C 
BRANCH  33  34
ATOM     34  C   UNL     1      43.422   9.593  10.544  0.00  0.00    +0.000 C 
BRANCH  34  35
ATOM     35  N   UNL     1      42.667   8.415  10.981  0.00  0.00    +0.000 NA
ATOM     36  H   UNL     1      41.879   8.271  10.351  0.00  0.00    +0.000 HD
ATOM     37  H   UNL     1      42.261   8.640  11.894  0.00  0.00    +0.000 HD
ENDBRANCH  34  35
ENDBRANCH  33  34
ENDBRANCH  32  33
ENDBRANCH  31  32
ENDBRANCH   1  31
TORSDOF 11
ENDMDL
MODEL 2
REMARK VINA RESULT:    -7.513      1.578      2.060
REMARK INTER + INTRA:         -13.456
REMARK INTER:                 -12.048
REMARK INTRA:                  -1.408
REMARK UNBOUND:                -1.331
REMARK  Name = 
REMARK  11 active torsions:
REMARK  status: ('A' for Active; 'I' for Inactive)
REMARK    1  A    between atoms: N_1  and  C_2
REMARK    2  A    between atoms: C_2  and  C_3
REMARK    3  A    between atoms: C_3  and  O_4
REMARK    4  A    between atoms: O_4  and  C_5
REMARK    5  A    between atoms: C_5  and  C_6
REMARK    6  A    between atoms: C_6  and  N_7
REMARK    7  A    between atoms: C_6  and  C_20
REMARK    8  A    between atoms: C_8  and  C_10
REMARK    9  A    between atoms: C_23  and  O_24
REMARK   10  A    between atoms: O_24  and  C_25
REMARK   11  A    between atoms: C_25  and  C_26
REMARK                            x       y       z     vdW  Elec       q    Type
REMARK                         _______ _______ _______ _____ _____    ______ ____
ROOT
ATOM      1  C   UNL     1      47.266   7.273  13.012  0.00  0.00    +0.000 C 
ENDROOT
BRANCH   1   2
ATOM      2  C   UNL     1      46.493   6.268  12.170  0.00  0.00    +0.000 A 
ATOM      3  C   UNL     1      46.367   6.489  10.792  0.00  0.00    +0.000 A 
ATOM      4  C   UNL     1      45.597   5.639   9.992  0.00  0.00    +0.000 A 
ATOM      5  C   UNL     1      44.943   4.542  10.553  0.00  0.00    +0.000 A 
ATOM      6  C   UNL     1      45.054   4.316  11.923  0.00  0.00    +0.000 A 
ATOM      7  C   UNL     1      45.821   5.168  12.725  0.00  0.00    +0.000 A 
BRANCH   5   8
ATOM      8  O   UNL     1      44.143   3.661   9.877  0.00  0.00    +0.000 OA
BRANCH   8   9
ATOM      9  C   UNL     1      44.683   2.347   9.707  0.00  0.00    +0.000 C 
BRANCH   9  10
ATOM     10  C   UNL     1      45.577   2.291   8.488  0.00  0.00    +0.000 A 
ATOM     11  C   UNL     1      45.573   3.324   7.552  0.00  0.00    +0.000 A 
ATOM     12  C   UNL     1      46.371   3.205   6.417  0.00  0.00    +0.000 A 
ATOM     13  C   UNL     1      47.150   2.068   6.246  0.00  0.00    +0.000 A 
ATOM     14  C   UNL     1      47.099   1.088   7.221  0.00  0.00    +0.000 A 
ATOM     15  N   UNL     1      46.331   1.171   8.328  0.00  0.00    +0.000 NA
ENDBRANCH   9  10
ENDBRANCH   8   9
ENDBRANCH   5   8
ENDBRANCH   1   2
BRANCH   1  16
ATOM     16  N   UNL     1      47.494   6.792  14.367  0.00  0.00    +0.000 N 
ATOM     17  C   UNL     1      48.730   6.690  14.940  0.00  0.00    +0.000 C 
ATOM     18  O   UNL     1      49.762   7.015  14.360  0.00  0.00    +0.000 OA
ATOM     19  H   UNL     1      46.682   6.451  14.866  0.00  0.00    +0.000 HD
BRANCH  17  20
ATOM     20  C   UNL     1      48.755   6.204  16.328  0.00  0.00    +0.000 A 
ATOM     21  C   UNL     1      49.197   7.039  17.346  0.00  0.00    +0.000 A 
ATOM     22  S   UNL     1      49.191   6.302  18.885  0.00  0.00    +0.000 S 
ATOM     23  C   UNL     1      48.639   4.827  18.239  0.00  0.00    +0.000 A 
ATOM     24  N   UNL     1      48.475   3.733  19.030  0.00  0.00    +0.000 NA
ATOM     25  C   UNL     1      48.103   2.668  18.399  0.00  0.00    +0.000 A 
ATOM     26  N   UNL     1      47.856   2.605  17.054  0.00  0.00    +0.000 N 
ATOM     27  C   UNL     1      47.895   3.713  16.242  0.00  0.00    +0.000 A 
ATOM     28  O   UNL     1      47.476   3.662  15.091  0.00  0.00    +0.000 OA
ATOM     29  C   UNL     1      48.406   4.913  16.877  0.00  0.00    +0.000 A 
ATOM     30  H   UNL     1      47.510   1.757  16.630  0.00  0.00    +0.000 HD
ENDBRANCH  17  20
ENDBRANCH   1  16
BRANCH   1  31
ATOM     31  C   UNL     1      46.512   8.622  13.036  0.00  0.00    +0.000 C 
BRANCH  31  32
ATOM     32  O   UNL     1      47.140   9.553  12.145  0.00  0.00    +0.000 OA
BRANCH  32  33
ATOM     33  C   UNL     1      48.505   9.791  12.514  0.00  0.00    +0.000 C 
BRANCH  33  34
ATOM     34  C   UNL     1      49.426   9.261  11.408  0.00  0.00    +0.000 C 
BRANCH  34  35
ATOM     35  N   UNL     1      50.682   8.746  11.961  0.00  0.00    +0.000 NA
ATOM     36  H   UNL     1      50.674   7.728  11.917  0.00  0.00    +0.000 HD
ATOM     37  H   UNL     1      50.693   8.985  12.956  0.00  0.00    +0.000 HD
ENDBRANCH  34  35
ENDBRANCH  33  34
ENDBRANCH  32  33
ENDBRANCH  31  32
ENDBRANCH   1  31
TORSDOF 11
ENDMDL
MODEL 3
REMARK VINA RESULT:    -7.416      1.752      2.276
REMARK INTER + INTRA:         -13.299
REMARK INTER:                 -12.535
REMARK INTRA:                  -0.764
REMARK UNBOUND:                -1.331
REMARK  Name = 
REMARK  11 active torsions:
REMARK  status: ('A' for Active; 'I' for Inactive)
REMARK    1  A    between atoms: N_1  and  C_2
REMARK    2  A    between atoms: C_2  and  C_3
REMARK    3  A    between atoms: C_3  and  O_4
REMARK    4  A    between atoms: O_4  and  C_5
REMARK    5  A    between atoms: C_5  and  C_6
REMARK    6  A    between atoms: C_6  and  N_7
REMARK    7  A    between atoms: C_6  and  C_20
REMARK    8  A    between atoms: C_8  and  C_10
REMARK    9  A    between atoms: C_23  and  O_24
REMARK   10  A    between atoms: O_24  and  C_25
REMARK   11  A    between atoms: C_25  and  C_26
REMARK                            x       y       z     vdW  Elec       q    Type
REMARK                         _______ _______ _______ _____ _____    ______ ____
ROOT
ATOM      1  C   UNL     1      48.188   7.009  13.378  0.00  0.00    +0.000 C 
ENDROOT
BRANCH   1   2
ATOM      2  C   UNL     1      47.094   6.217  12.675  0.00  0.00    +0.000 A 
ATOM      3  C   UNL     1      46.547   5.097  13.316  0.00  0.00    +0.000 A 
ATOM      4  C   UNL     1      45.600   4.291  12.677  0.00  0.00    +0.000 A 
ATOM      5  C   UNL     1      45.171   4.594  11.385  0.00  0.00    +0.000 A 
ATOM      6  C   UNL     1      45.714   5.701  10.734  0.00  0.00    +0.000 A 
ATOM      7  C   UNL     1      46.664   6.505  11.371  0.00  0.00    +0.000 A 
BRANCH   5   8
ATOM      8  O   UNL     1      44.274   3.865  10.651  0.00  0.00    +0.000 OA
BRANCH   8   9
ATOM      9  C   UNL     1      44.221   4.182   9.257  0.00  0.00    +0.000 C 
BRANCH   9  10
ATOM     10  C   UNL     1      45.199   3.331   8.478  0.00  0.00    +0.000 A 
ATOM     11  C   UNL     1      45.402   1.993   8.810  0.00  0.00    +0.000 A 
ATOM     12  C   UNL     1      46.351   1.261   8.102  0.00  0.00    +0.000 A 
ATOM     13  C   UNL     1      47.069   1.878   7.084  0.00  0.00    +0.000 A 
ATOM     14  C   UNL     1      46.808   3.209   6.815  0.00  0.00    +0.000 A 
ATOM     15  N   UNL     1      45.899   3.946   7.489  0.00  0.00    +0.000 NA
ENDBRANCH   9  10
ENDBRANCH   8   9
ENDBRANCH   5   8
ENDBRANCH   1   2
BRANCH   1  16
ATOM     16  N   UNL     1      48.039   6.983  14.826  0.00  0.00    +0.000 N 
ATOM     17  C   UNL     1      49.082   6.837  15.695  0.00  0.00    +0.000 C 
ATOM     18  O   UNL     1      50.248   6.731  15.325  0.00  0.00    +0.000 OA
ATOM     19  H   UNL     1      47.091   7.003  15.180  0.00  0.00    +0.000 HD
BRANCH  17  20
ATOM     20  C   UNL     1      48.733   6.858  17.124  0.00  0.00    +0.000 A 
ATOM     21  C   UNL     1      48.331   8.046  17.720  0.00  0.00    +0.000 A 
ATOM     22  S   UNL     1      47.998   7.895  19.387  0.00  0.00    +0.000 S 
ATOM     23  C   UNL     1      48.424   6.247  19.381  0.00  0.00    +0.000 A 
ATOM     24  N   UNL     1      48.417   5.517  20.527  0.00  0.00    +0.000 NA
ATOM     25  C   UNL     1      48.812   4.295  20.386  0.00  0.00    +0.000 A 
ATOM     26  N   UNL     1      49.190   3.731  19.197  0.00  0.00    +0.000 N 
ATOM     27  C   UNL     1      49.098   4.398  17.999  0.00  0.00    +0.000 A 
ATOM     28  O   UNL     1      49.251   3.805  16.938  0.00  0.00    +0.000 OA
ATOM     29  C   UNL     1      48.757   5.803  18.112  0.00  0.00    +0.000 A 
ATOM     30  H   UNL     1      49.433   2.752  19.141  0.00  0.00    +0.000 HD
ENDBRANCH  17  20
ENDBRANCH   1  16
BRANCH   1  31
ATOM     31  C   UNL     1      48.190   8.465  12.860  0.00  0.00    +0.000 C 
BRANCH  31  32
ATOM     32  O   UNL     1      46.849   8.973  12.812  0.00  0.00    +0.000 OA
BRANCH  32  33
ATOM     33  C   UNL     1      46.794  10.242  12.150  0.00  0.00    +0.000 C 
BRANCH  33  34
ATOM     34  C   UNL     1      45.337  10.567  11.802  0.00  0.00    +0.000 C 
BRANCH  34  35
ATOM     35  N   UNL     1      44.405   9.817  12.651  0.00  0.00    +0.000 NA
ATOM     36  H   UNL     1      44.247  10.336  13.513  0.00  0.00    +0.000 HD
ATOM     37  H   UNL     1      44.878   8.952  12.924  0.00  0.00    +0.000 HD
ENDBRANCH  34  35
ENDBRANCH  33  34
ENDBRANCH  32  33
ENDBRANCH  31  32
ENDBRANCH   1  31
TORSDOF 11
ENDMDL
MODEL 4
REMARK VINA RESULT:    -6.257      2.973      8.181
REMARK INTER + INTRA:         -11.429
REMARK INTER:                 -10.111
REMARK INTRA:                  -1.317
REMARK UNBOUND:                -1.331
REMARK  Name = 
REMARK  11 active torsions:
REMARK  status: ('A' for Active; 'I' for Inactive)
REMARK    1  A    between atoms: N_1  and  C_2
REMARK    2  A    between atoms: C_2  and  C_3
REMARK    3  A    between atoms: C_3  and  O_4
REMARK    4  A    between atoms: O_4  and  C_5
REMARK    5  A    between atoms: C_5  and  C_6
REMARK    6  A    between atoms: C_6  and  N_7
REMARK    7  A    between atoms: C_6  and  C_20
REMARK    8  A    between atoms: C_8  and  C_10
REMARK    9  A    between atoms: C_23  and  O_24
REMARK   10  A    between atoms: O_24  and  C_25
REMARK   11  A    between atoms: C_25  and  C_26
REMARK                            x       y       z     vdW  Elec       q    Type
REMARK                         _______ _______ _______ _____ _____    ______ ____
ROOT
ATOM      1  C   UNL     1      46.257   5.274  13.032  0.00  0.00    +0.000 C 
ENDROOT
BRANCH   1   2
ATOM      2  C   UNL     1      47.028   5.200  14.343  0.00  0.00    +0.000 A 
ATOM      3  C   UNL     1      47.896   6.247  14.681  0.00  0.00    +0.000 A 
ATOM      4  C   UNL     1      48.687   6.185  15.833  0.00  0.00    +0.000 A 
ATOM      5  C   UNL     1      48.617   5.078  16.679  0.00  0.00    +0.000 A 
ATOM      6  C   UNL     1      47.763   4.027  16.349  0.00  0.00    +0.000 A 
ATOM      7  C   UNL     1      46.976   4.086  15.195  0.00  0.00    +0.000 A 
BRANCH   5   8
ATOM      8  O   UNL     1      49.360   4.895  17.814  0.00  0.00    +0.000 OA
BRANCH   8   9
ATOM      9  C   UNL     1      50.777   4.998  17.642  0.00  0.00    +0.000 C 
BRANCH   9  10
ATOM     10  C   UNL     1      51.432   3.641  17.782  0.00  0.00    +0.000 A 
ATOM     11  C   UNL     1      52.653   3.503  18.440  0.00  0.00    +0.000 A 
ATOM     12  C   UNL     1      53.245   2.244  18.498  0.00  0.00    +0.000 A 
ATOM     13  C   UNL     1      52.608   1.161  17.905  0.00  0.00    +0.000 A 
ATOM     14  C   UNL     1      51.398   1.381  17.273  0.00  0.00    +0.000 A 
ATOM     15  N   UNL     1      50.802   2.591  17.194  0.00  0.00    +0.000 NA
ENDBRANCH   9  10
ENDBRANCH   8   9
ENDBRANCH   5   8
ENDBRANCH   1   2
BRANCH   1  16
ATOM     16  N   UNL     1      45.826   6.630  12.726  0.00  0.00    +0.000 N 
ATOM     17  C   UNL     1      46.531   7.492  11.934  0.00  0.00    +0.000 C 
ATOM     18  O   UNL     1      47.590   7.185  11.395  0.00  0.00    +0.000 OA
ATOM     19  H   UNL     1      44.990   6.953  13.198  0.00  0.00    +0.000 HD
BRANCH  17  20
ATOM     20  C   UNL     1      45.920   8.813  11.723  0.00  0.00    +0.000 A 
ATOM     21  C   UNL     1      46.684   9.961  11.888  0.00  0.00    +0.000 A 
ATOM     22  S   UNL     1      45.808  11.405  11.637  0.00  0.00    +0.000 S 
ATOM     23  C   UNL     1      44.367  10.547  11.346  0.00  0.00    +0.000 A 
ATOM     24  N   UNL     1      43.197  11.200  11.118  0.00  0.00    +0.000 NA
ATOM     25  C   UNL     1      42.173  10.426  10.965  0.00  0.00    +0.000 A 
ATOM     26  N   UNL     1      42.220   9.058  10.995  0.00  0.00    +0.000 N 
ATOM     27  C   UNL     1      43.398   8.360  11.103  0.00  0.00    +0.000 A 
ATOM     28  O   UNL     1      43.427   7.147  10.925  0.00  0.00    +0.000 OA
ATOM     29  C   UNL     1      44.564   9.177  11.379  0.00  0.00    +0.000 A 
ATOM     30  H   UNL     1      41.394   8.507  10.809  0.00  0.00    +0.000 HD
ENDBRANCH  17  20
ENDBRANCH   1  16
BRANCH   1  31
ATOM     31  C   UNL     1      45.042   4.320  13.089  0.00  0.00    +0.000 C 
BRANCH  31  32
ATOM     32  O   UNL     1      45.193   3.273  12.119  0.00  0.00    +0.000 OA
BRANCH  32  33
ATOM     33  C   UNL     1      44.028   3.156  11.292  0.00  0.00    +0.000 C 
BRANCH  33  34
ATOM     34  C   UNL     1      44.410   3.459   9.838  0.00  0.00    +0.000 C 
BRANCH  34  35
ATOM     35  N   UNL     1      43.697   4.637   9.333  0.00  0.00    +0.000 NA
ATOM     36  H   UNL     1      42.791   4.702   9.794  0.00  0.00    +0.000 HD
ATOM     37  H   UNL     1      43.499   4.467   8.343  0.00  0.00    +0.000 HD
ENDBRANCH  34  35
ENDBRANCH  33  34
ENDBRANCH  32  33
ENDBRANCH  31  32
ENDBRANCH   1  31
TORSDOF 11
ENDMDL
MODEL 5
REMARK VINA RESULT:    -6.082      3.745      5.904
REMARK INTER + INTRA:         -11.146
REMARK INTER:                  -9.488
REMARK INTRA:                  -1.659
REMARK UNBOUND:                -1.331
REMARK  Name = 
REMARK  11 active torsions:
REMARK  status: ('A' for Active; 'I' for Inactive)
REMARK    1  A    between atoms: N_1  and  C_2
REMARK    2  A    between atoms: C_2  and  C_3
REMARK    3  A    between atoms: C_3  and  O_4
REMARK    4  A    between atoms: O_4  and  C_5
REMARK    5  A    between atoms: C_5  and  C_6
REMARK    6  A    between atoms: C_6  and  N_7
REMARK    7  A    between atoms: C_6  and  C_20
REMARK    8  A    between atoms: C_8  and  C_10
REMARK    9  A    between atoms: C_23  and  O_24
REMARK   10  A    between atoms: O_24  and  C_25
REMARK   11  A    between atoms: C_25  and  C_26
REMARK                            x       y       z     vdW  Elec       q    Type
REMARK                         _______ _______ _______ _____ _____    ______ ____
ROOT
ATOM      1  C   UNL     1      47.758   9.009  13.783  0.00  0.00    +0.000 C 
ENDROOT
BRANCH   1   2
ATOM      2  C   UNL     1      46.876   7.874  13.282  0.00  0.00    +0.000 A 
ATOM      3  C   UNL     1      47.353   6.559  13.358  0.00  0.00    +0.000 A 
ATOM      4  C   UNL     1      46.615   5.492  12.836  0.00  0.00    +0.000 A 
ATOM      5  C   UNL     1      45.377   5.718  12.234  0.00  0.00    +0.000 A 
ATOM      6  C   UNL     1      44.896   7.023  12.145  0.00  0.00    +0.000 A 
ATOM      7  C   UNL     1      45.636   8.091  12.663  0.00  0.00    +0.000 A 
BRANCH   5   8
ATOM      8  O   UNL     1      44.581   4.760  11.665  0.00  0.00    +0.000 OA
BRANCH   8   9
ATOM      9  C   UNL     1      44.196   5.010  10.309  0.00  0.00    +0.000 C 
BRANCH   9  10
ATOM     10  C   UNL     1      44.913   4.067   9.369  0.00  0.00    +0.000 A 
ATOM     11  C   UNL     1      44.905   2.692   9.594  0.00  0.00    +0.000 A 
ATOM     12  C   UNL     1      45.624   1.866   8.732  0.00  0.00    +0.000 A 
ATOM     13  C   UNL     1      46.325   2.430   7.673  0.00  0.00    +0.000 A 
ATOM     14  C   UNL     1      46.281   3.804   7.517  0.00  0.00    +0.000 A 
ATOM     15  N   UNL     1      45.599   4.630   8.339  0.00  0.00    +0.000 NA
ENDBRANCH   9  10
ENDBRANCH   8   9
ENDBRANCH   5   8
ENDBRANCH   1   2
BRANCH   1  16
ATOM     16  N   UNL     1      48.923   9.214  12.934  0.00  0.00    +0.000 N 
ATOM     17  C   UNL     1      48.923  10.005  11.819  0.00  0.00    +0.000 C 
ATOM     18  O   UNL     1      47.933  10.628  11.446  0.00  0.00    +0.000 OA
ATOM     19  H   UNL     1      49.746   8.671  13.162  0.00  0.00    +0.000 HD
BRANCH  17  20
ATOM     20  C   UNL     1      50.204  10.104  11.104  0.00  0.00    +0.000 A 
ATOM     21  C   UNL     1      50.643  11.337  10.641  0.00  0.00    +0.000 A 
ATOM     22  S   UNL     1      52.130  11.262   9.805  0.00  0.00    +0.000 S 
ATOM     23  C   UNL     1      52.215   9.572   9.993  0.00  0.00    +0.000 A 
ATOM     24  N   UNL     1      53.234   8.858   9.447  0.00  0.00    +0.000 NA
ATOM     25  C   UNL     1      53.145   7.580   9.622  0.00  0.00    +0.000 A 
ATOM     26  N   UNL     1      52.143   6.957  10.316  0.00  0.00    +0.000 N 
ATOM     27  C   UNL     1      51.162   7.650  10.983  0.00  0.00    +0.000 A 
ATOM     28  O   UNL     1      50.403   7.077  11.755  0.00  0.00    +0.000 OA
ATOM     29  C   UNL     1      51.155   9.080  10.736  0.00  0.00    +0.000 A 
ATOM     30  H   UNL     1      52.162   5.959  10.469  0.00  0.00    +0.000 HD
ENDBRANCH  17  20
ENDBRANCH   1  16
BRANCH   1  31
ATOM     31  C   UNL     1      48.194   8.726  15.239  0.00  0.00    +0.000 C 
BRANCH  31  32
ATOM     32  O   UNL     1      49.625   8.732  15.335  0.00  0.00    +0.000 OA
BRANCH  32  33
ATOM     33  C   UNL     1      50.150   7.400  15.411  0.00  0.00    +0.000 C 
BRANCH  33  34
ATOM     34  C   UNL     1      49.567   6.699  16.643  0.00  0.00    +0.000 C 
BRANCH  34  35
ATOM     35  N   UNL     1      49.105   5.345  16.319  0.00  0.00    +0.000 NA
ATOM     36  H   UNL     1      48.933   4.835  17.184  0.00  0.00    +0.000 HD
ATOM     37  H   UNL     1      49.882   4.865  15.857  0.00  0.00    +0.000 HD
ENDBRANCH  34  35
ENDBRANCH  33  34
ENDBRANCH  32  33
ENDBRANCH  31  32
ENDBRANCH   1  31
TORSDOF 11
ENDMDL
MODEL 6
REMARK VINA RESULT:    -5.538      4.923      7.306
REMARK INTER + INTRA:         -10.268
REMARK INTER:                  -8.942
REMARK INTRA:                  -1.325
REMARK UNBOUND:                -1.331
REMARK  Name = 
REMARK  11 active torsions:
REMARK  status: ('A' for Active; 'I' for Inactive)
REMARK    1  A    between atoms: N_1  and  C_2
REMARK    2  A    between atoms: C_2  and  C_3
REMARK    3  A    between atoms: C_3  and  O_4
REMARK    4  A    between atoms: O_4  and  C_5
REMARK    5  A    between atoms: C_5  and  C_6
REMARK    6  A    between atoms: C_6  and  N_7
REMARK    7  A    between atoms: C_6  and  C_20
REMARK    8  A    between atoms: C_8  and  C_10
REMARK    9  A    between atoms: C_23  and  O_24
REMARK   10  A    between atoms: O_24  and  C_25
REMARK   11  A    between atoms: C_25  and  C_26
REMARK                            x       y       z     vdW  Elec       q    Type
REMARK                         _______ _______ _______ _____ _____    ______ ____
ROOT
ATOM      1  C   UNL     1      49.251   7.552  13.987  0.00  0.00    +0.000 C 
ENDROOT
BRANCH   1   2
ATOM      2  C   UNL     1      50.340   7.969  13.009  0.00  0.00    +0.000 A 
ATOM      3  C   UNL     1      50.217   7.607  11.660  0.00  0.00    +0.000 A 
ATOM      4  C   UNL     1      51.231   7.895  10.740  0.00  0.00    +0.000 A 
ATOM      5  C   UNL     1      52.386   8.561  11.149  0.00  0.00    +0.000 A 
ATOM      6  C   UNL     1      52.523   8.919  12.489  0.00  0.00    +0.000 A 
ATOM      7  C   UNL     1      51.512   8.627  13.410  0.00  0.00    +0.000 A 
BRANCH   5   8
ATOM      8  O   UNL     1      53.452   8.870  10.347  0.00  0.00    +0.000 OA
BRANCH   8   9
ATOM      9  C   UNL     1      53.161   9.738   9.247  0.00  0.00    +0.000 C 
BRANCH   9  10
ATOM     10  C   UNL     1      53.389   9.027   7.932  0.00  0.00    +0.000 A 
ATOM     11  C   UNL     1      53.123   9.664   6.721  0.00  0.00    +0.000 A 
ATOM     12  C   UNL     1      53.295   8.953   5.536  0.00  0.00    +0.000 A 
ATOM     13  C   UNL     1      53.730   7.634   5.588  0.00  0.00    +0.000 A 
ATOM     14  C   UNL     1      53.974   7.075   6.829  0.00  0.00    +0.000 A 
ATOM     15  N   UNL     1      53.809   7.736   7.995  0.00  0.00    +0.000 NA
ENDBRANCH   9  10
ENDBRANCH   8   9
ENDBRANCH   5   8
ENDBRANCH   1   2
BRANCH   1  16
ATOM     16  N   UNL     1      48.007   7.214  13.312  0.00  0.00    +0.000 N 
ATOM     17  C   UNL     1      47.257   6.110  13.606  0.00  0.00    +0.000 C 
ATOM     18  O   UNL     1      47.565   5.313  14.487  0.00  0.00    +0.000 OA
ATOM     19  H   UNL     1      47.744   7.805  12.533  0.00  0.00    +0.000 HD
BRANCH  17  20
ATOM     20  C   UNL     1      46.019   5.951  12.828  0.00  0.00    +0.000 A 
ATOM     21  C   UNL     1      45.366   7.071  12.331  0.00  0.00    +0.000 A 
ATOM     22  S   UNL     1      43.931   6.704  11.483  0.00  0.00    +0.000 S 
ATOM     23  C   UNL     1      44.108   5.039  11.790  0.00  0.00    +0.000 A 
ATOM     24  N   UNL     1      43.168   4.147  11.380  0.00  0.00    +0.000 NA
ATOM     25  C   UNL     1      43.404   2.924  11.726  0.00  0.00    +0.000 A 
ATOM     26  N   UNL     1      44.507   2.511  12.423  0.00  0.00    +0.000 N 
ATOM     27  C   UNL     1      45.536   3.360  12.752  0.00  0.00    +0.000 A 
ATOM     28  O   UNL     1      46.592   2.923  13.195  0.00  0.00    +0.000 OA
ATOM     29  C   UNL     1      45.278   4.761  12.478  0.00  0.00    +0.000 A 
ATOM     30  H   UNL     1      44.663   1.531  12.612  0.00  0.00    +0.000 HD
ENDBRANCH  17  20
ENDBRANCH   1  16
BRANCH   1  31
ATOM     31  C   UNL     1      49.017   8.682  15.017  0.00  0.00    +0.000 C 
BRANCH  31  32
ATOM     32  O   UNL     1      48.609   8.125  16.274  0.00  0.00    +0.000 OA
BRANCH  32  33
ATOM     33  C   UNL     1      49.526   7.120  16.724  0.00  0.00    +0.000 C 
BRANCH  33  34
ATOM     34  C   UNL     1      48.877   6.315  17.857  0.00  0.00    +0.000 C 
BRANCH  34  35
ATOM     35  N   UNL     1      47.645   5.658  17.408  0.00  0.00    +0.000 NA
ATOM     36  H   UNL     1      47.878   4.955  16.708  0.00  0.00    +0.000 HD
ATOM     37  H   UNL     1      47.087   6.366  16.923  0.00  0.00    +0.000 HD
ENDBRANCH  34  35
ENDBRANCH  33  34
ENDBRANCH  32  33
ENDBRANCH  31  32
ENDBRANCH   1  31
TORSDOF 11
ENDMDL
MODEL 7
REMARK VINA RESULT:    -5.489      4.990      6.275
REMARK INTER + INTRA:         -10.189
REMARK INTER:                  -8.501
REMARK INTRA:                  -1.688
REMARK UNBOUND:                -1.331
REMARK  Name = 
REMARK  11 active torsions:
REMARK  status: ('A' for Active; 'I' for Inactive)
REMARK    1  A    between atoms: N_1  and  C_2
REMARK    2  A    between atoms: C_2  and  C_3
REMARK    3  A    between atoms: C_3  and  O_4
REMARK    4  A    between atoms: O_4  and  C_5
REMARK    5  A    between atoms: C_5  and  C_6
REMARK    6  A    between atoms: C_6  and  N_7
REMARK    7  A    between atoms: C_6  and  C_20
REMARK    8  A    between atoms: C_8  and  C_10
REMARK    9  A    between atoms: C_23  and  O_24
REMARK   10  A    between atoms: O_24  and  C_25
REMARK   11  A    between atoms: C_25  and  C_26
REMARK                            x       y       z     vdW  Elec       q    Type
REMARK                         _______ _______ _______ _____ _____    ______ ____
ROOT
ATOM      1  C   UNL     1      49.388   9.290  12.143  0.00  0.00    +0.000 C 
ENDROOT
BRANCH   1   2
ATOM      2  C   UNL     1      50.581   9.016  11.237  0.00  0.00    +0.000 A 
ATOM      3  C   UNL     1      50.976   7.690  11.017  0.00  0.00    +0.000 A 
ATOM      4  C   UNL     1      52.114   7.392  10.260  0.00  0.00    +0.000 A 
ATOM      5  C   UNL     1      52.876   8.416   9.698  0.00  0.00    +0.000 A 
ATOM      6  C   UNL     1      52.497   9.740   9.917  0.00  0.00    +0.000 A 
ATOM      7  C   UNL     1      51.362  10.038  10.677  0.00  0.00    +0.000 A 
BRANCH   5   8
ATOM      8  O   UNL     1      54.020   8.248   8.965  0.00  0.00    +0.000 OA
BRANCH   8   9
ATOM      9  C   UNL     1      53.824   7.845   7.607  0.00  0.00    +0.000 C 
BRANCH   9  10
ATOM     10  C   UNL     1      54.135   6.374   7.436  0.00  0.00    +0.000 A 
ATOM     11  C   UNL     1      55.010   5.725   8.304  0.00  0.00    +0.000 A 
ATOM     12  C   UNL     1      55.310   4.383   8.078  0.00  0.00    +0.000 A 
ATOM     13  C   UNL     1      54.729   3.727   7.000  0.00  0.00    +0.000 A 
ATOM     14  C   UNL     1      53.869   4.442   6.185  0.00  0.00    +0.000 A 
ATOM     15  N   UNL     1      53.565   5.744   6.376  0.00  0.00    +0.000 NA
ENDBRANCH   9  10
ENDBRANCH   8   9
ENDBRANCH   5   8
ENDBRANCH   1   2
BRANCH   1  16
ATOM     16  N   UNL     1      48.742   8.063  12.585  0.00  0.00    +0.000 N 
ATOM     17  C   UNL     1      48.479   7.772  13.894  0.00  0.00    +0.000 C 
ATOM     18  O   UNL     1      48.752   8.536  14.814  0.00  0.00    +0.000 OA
ATOM     19  H   UNL     1      48.555   7.371  11.870  0.00  0.00    +0.000 HD
BRANCH  17  20
ATOM     20  C   UNL     1      47.799   6.491  14.140  0.00  0.00    +0.000 A 
ATOM     21  C   UNL     1      48.085   5.767  15.290  0.00  0.00    +0.000 A 
ATOM     22  S   UNL     1      47.233   4.292  15.398  0.00  0.00    +0.000 S 
ATOM     23  C   UNL     1      46.488   4.547  13.889  0.00  0.00    +0.000 A 
ATOM     24  N   UNL     1      45.661   3.613  13.349  0.00  0.00    +0.000 NA
ATOM     25  C   UNL     1      45.206   3.914  12.177  0.00  0.00    +0.000 A 
ATOM     26  N   UNL     1      45.486   5.075  11.508  0.00  0.00    +0.000 N 
ATOM     27  C   UNL     1      46.219   6.094  12.067  0.00  0.00    +0.000 A 
ATOM     28  O   UNL     1      46.281   7.192  11.527  0.00  0.00    +0.000 OA
ATOM     29  C   UNL     1      46.837   5.769  13.339  0.00  0.00    +0.000 A 
ATOM     30  H   UNL     1      45.052   5.278  10.619  0.00  0.00    +0.000 HD
ENDBRANCH  17  20
ENDBRANCH   1  16
BRANCH   1  31
ATOM     31  C   UNL     1      48.376  10.200  11.409  0.00  0.00    +0.000 C 
BRANCH  31  32
ATOM     32  O   UNL     1      47.177  10.329  12.186  0.00  0.00    +0.000 OA
BRANCH  32  33
ATOM     33  C   UNL     1      46.138  10.976  11.440  0.00  0.00    +0.000 C 
BRANCH  33  34
ATOM     34  C   UNL     1      44.781  10.403  11.864  0.00  0.00    +0.000 C 
BRANCH  34  35
ATOM     35  N   UNL     1      44.929   9.420  12.943  0.00  0.00    +0.000 NA
ATOM     36  H   UNL     1      44.048   9.345  13.449  0.00  0.00    +0.000 HD
ATOM     37  H   UNL     1      45.606   9.804  13.608  0.00  0.00    +0.000 HD
ENDBRANCH  34  35
ENDBRANCH  33  34
ENDBRANCH  32  33
ENDBRANCH  31  32
ENDBRANCH   1  31
TORSDOF 11
ENDMDL
