MODEL 1
REMARK VINA RESULT:    -7.759      0.000      0.000
REMARK INTER + INTRA:         -12.475
REMARK INTER:                 -11.388
REMARK INTRA:                  -1.088
REMARK UNBOUND:                -1.088
REMARK  Name = 
REMARK  9 active torsions:
REMARK  status: ('A' for Active; 'I' for Inactive)
REMARK    1  A    between atoms: C_1  and  O_2
REMARK    2  A    between atoms: O_2  and  C_3
REMARK    3  A    between atoms: C_10  and  C_11
REMARK    4  A    between atoms: N_13  and  C_14
REMARK    5  A    between atoms: C_14  and  C_15
REMARK    6  A    between atoms: C_18  and  O_19
REMARK    7  A    between atoms: O_19  and  C_20
REMARK    8  A    between atoms: C_20  and  C_21
REMARK    9  A    between atoms: C_21  and  N_22
REMARK                            x       y       z     vdW  Elec       q    Type
REMARK                         _______ _______ _______ _____ _____    ______ ____
ROOT
ATOM      1  C   UNL     1      48.104   7.176  13.419  0.00  0.00    +0.000 C 
ENDROOT
BRANCH   1   2
ATOM      2  C   UNL     1      47.029   6.305  12.814  0.00  0.00    +0.000 A 
ATOM      3  C   UNL     1      46.493   5.239  13.545  0.00  0.00    +0.000 A 
ATOM      4  C   UNL     1      45.423   4.487  13.039  0.00  0.00    +0.000 A 
ATOM      5  C   UNL     1      44.878   4.770  11.785  0.00  0.00    +0.000 A 
ATOM      6  C   UNL     1      45.470   5.772  11.012  0.00  0.00    +0.000 A 
ATOM      7  C   UNL     1      46.532   6.537  11.523  0.00  0.00    +0.000 A 
BRANCH   5   8
ATOM      8  O   UNL     1      43.808   4.105  11.233  0.00  0.00    +0.000 OA
BRANCH   8   9
ATOM      9  C   UNL     1      43.944   3.832   9.827  0.00  0.00    +0.000 C 
BRANCH   9  10
ATOM     10  C   UNL     1      44.582   2.447   9.569  0.00  0.00    +0.000 C 
BRANCH  10  11
ATOM     11  N   UNL     1      45.756   2.505   8.661  0.00  0.00    +0.000 NA
ATOM     12  C   UNL     1      46.099   1.179   8.120  0.00  0.00    +0.000 C 
ATOM     13  C   UNL     1      47.338   1.231   7.223  0.00  0.00    +0.000 C 
ATOM     14  C   UNL     1      47.161   2.227   6.088  0.00  0.00    +0.000 C 
ATOM     15  C   UNL     1      46.745   3.584   6.643  0.00  0.00    +0.000 C 
ATOM     16  C   UNL     1      45.523   3.463   7.563  0.00  0.00    +0.000 C 
ENDBRANCH  10  11
ENDBRANCH   9  10
ENDBRANCH   8   9
ENDBRANCH   5   8
ENDBRANCH   1   2
BRANCH   1  19
ATOM     17  C   UNL     1      49.088   6.961  15.667  0.00  0.00    +0.000 C 
ATOM     18  O   UNL     1      50.180   6.634  15.204  0.00  0.00    +0.000 OA
ATOM     19  N   UNL     1      48.024   7.244  14.857  0.00  0.00    +0.000 N 
ATOM     20  H   UNL     1      47.143   7.538  15.254  0.00  0.00    +0.000 HD
BRANCH  17  28
ATOM     21  C   UNL     1      48.920   4.616  18.176  0.00  0.00    +0.000 A 
ATOM     22  N   UNL     1      48.897   3.922  19.331  0.00  0.00    +0.000 NA
ATOM     23  C   UNL     1      48.756   4.610  20.468  0.00  0.00    +0.000 A 
ATOM     24  N   UNL     1      48.619   5.926  20.603  0.00  0.00    +0.000 NA
ATOM     25  C   UNL     1      48.661   6.578  19.423  0.00  0.00    +0.000 A 
ATOM     26  S   UNL     1      48.482   8.266  19.389  0.00  0.00    +0.000 S 
ATOM     27  C   UNL     1      48.661   8.299  17.699  0.00  0.00    +0.000 A 
ATOM     28  C   UNL     1      48.870   7.049  17.127  0.00  0.00    +0.000 A 
ATOM     29  C   UNL     1      48.833   6.020  18.159  0.00  0.00    +0.000 A 
BRANCH  21  31
ATOM     30  C   UNL     1      47.886   3.181  16.641  0.00  0.00    +0.000 C 
ATOM     31  O   UNL     1      49.054   3.909  17.004  0.00  0.00    +0.000 OA
ENDBRANCH  21  31
ENDBRANCH  17  28
ENDBRANCH   1  19
TORSDOF 8
ENDMDL
MODEL 2
REMARK VINA RESULT:    -7.360      1.618      2.650
REMARK INTER + INTRA:         -11.890
REMARK INTER:                 -10.773
REMARK INTRA:                  -1.118
REMARK UNBOUND:                -1.088
REMARK  Name = 
REMARK  9 active torsions:
REMARK  status: ('A' for Active; 'I' for Inactive)
REMARK    1  A    between atoms: C_1  and  O_2
REMARK    2  A    between atoms: O_2  and  C_3
REMARK    3  A    between atoms: C_10  and  C_11
REMARK    4  A    between atoms: N_13  and  C_14
REMARK    5  A    between atoms: C_14  and  C_15
REMARK    6  A    between atoms: C_18  and  O_19
REMARK    7  A    between atoms: O_19  and  C_20
REMARK    8  A    between atoms: C_20  and  C_21
REMARK    9  A    between atoms: C_21  and  N_22
REMARK                            x       y       z     vdW  Elec       q    Type
REMARK                         _______ _______ _______ _____ _____    ______ ____
ROOT
ATOM      1  C   UNL     1      48.459   6.729  14.090  0.00  0.00    +0.000 C 
ENDROOT
BRANCH   1   2
ATOM      2  C   UNL     1      47.328   6.061  13.344  0.00  0.00    +0.000 A 
ATOM      3  C   UNL     1      46.759   4.882  13.838  0.00  0.00    +0.000 A 
ATOM      4  C   UNL     1      45.641   4.308  13.216  0.00  0.00    +0.000 A 
ATOM      5  C   UNL     1      45.079   4.888  12.076  0.00  0.00    +0.000 A 
ATOM      6  C   UNL     1      45.700   6.012  11.525  0.00  0.00    +0.000 A 
ATOM      7  C   UNL     1      46.810   6.598  12.156  0.00  0.00    +0.000 A 
BRANCH   5   8
ATOM      8  O   UNL     1      43.964   4.409  11.428  0.00  0.00    +0.000 OA
BRANCH   8   9
ATOM      9  C   UNL     1      44.141   4.217  10.013  0.00  0.00    +0.000 C 
BRANCH   9  10
ATOM     10  C   UNL     1      44.517   2.757   9.673  0.00  0.00    +0.000 C 
BRANCH  10  11
ATOM     11  N   UNL     1      45.675   2.651   8.749  0.00  0.00    +0.000 NA
ATOM     12  C   UNL     1      45.898   1.266   8.301  0.00  0.00    +0.000 C 
ATOM     13  C   UNL     1      47.121   1.151   7.389  0.00  0.00    +0.000 C 
ATOM     14  C   UNL     1      47.008   2.076   6.187  0.00  0.00    +0.000 C 
ATOM     15  C   UNL     1      46.716   3.498   6.649  0.00  0.00    +0.000 C 
ATOM     16  C   UNL     1      45.504   3.546   7.589  0.00  0.00    +0.000 C 
ENDBRANCH  10  11
ENDBRANCH   9  10
ENDBRANCH   8   9
ENDBRANCH   5   8
ENDBRANCH   1   2
BRANCH   1  19
ATOM     17  C   UNL     1      49.090   6.391  16.447  0.00  0.00    +0.000 C 
ATOM     18  O   UNL     1      50.158   5.869  16.131  0.00  0.00    +0.000 OA
ATOM     19  N   UNL     1      48.206   6.839  15.505  0.00  0.00    +0.000 N 
ATOM     20  H   UNL     1      47.347   7.290  15.784  0.00  0.00    +0.000 HD
BRANCH  17  28
ATOM     21  C   UNL     1      47.872   9.027  18.287  0.00  0.00    +0.000 A 
ATOM     22  N   UNL     1      47.319   9.857  19.194  0.00  0.00    +0.000 NA
ATOM     23  C   UNL     1      47.083   9.374  20.417  0.00  0.00    +0.000 A 
ATOM     24  N   UNL     1      47.345   8.148  20.865  0.00  0.00    +0.000 NA
ATOM     25  C   UNL     1      47.885   7.353  19.920  0.00  0.00    +0.000 A 
ATOM     26  S   UNL     1      48.309   5.755  20.308  0.00  0.00    +0.000 S 
ATOM     27  C   UNL     1      48.843   5.460  18.721  0.00  0.00    +0.000 A 
ATOM     28  C   UNL     1      48.703   6.547  17.866  0.00  0.00    +0.000 A 
ATOM     29  C   UNL     1      48.164   7.687  18.598  0.00  0.00    +0.000 A 
BRANCH  21  31
ATOM     30  C   UNL     1      48.660  10.845  17.039  0.00  0.00    +0.000 C 
ATOM     31  O   UNL     1      48.125   9.526  17.030  0.00  0.00    +0.000 OA
ENDBRANCH  21  31
ENDBRANCH  17  28
ENDBRANCH   1  19
TORSDOF 8
ENDMDL
MODEL 3
REMARK VINA RESULT:    -6.987      3.170      8.346
REMARK INTER + INTRA:         -11.343
REMARK INTER:                  -9.701
REMARK INTRA:                  -1.642
REMARK UNBOUND:                -1.088
REMARK  Name = 
REMARK  9 active torsions:
REMARK  status: ('A' for Active; 'I' for Inactive)
REMARK    1  A    between atoms: C_1  and  O_2
REMARK    2  A    between atoms: O_2  and  C_3
REMARK    3  A    between atoms: C_10  and  C_11
REMARK    4  A    between atoms: N_13  and  C_14
REMARK    5  A    between atoms: C_14  and  C_15
REMARK    6  A    between atoms: C_18  and  O_19
REMARK    7  A    between atoms: O_19  and  C_20
REMARK    8  A    between atoms: C_20  and  C_21
REMARK    9  A    between atoms: C_21  and  N_22
REMARK                            x       y       z     vdW  Elec       q    Type
REMARK                         _______ _______ _______ _____ _____    ______ ____
ROOT
ATOM      1  C   UNL     1      48.331   8.142  11.968  0.00  0.00    +0.000 C 
ENDROOT
BRANCH   1   2
ATOM      2  C   UNL     1      48.509   8.022  13.463  0.00  0.00    +0.000 A 
ATOM      3  C   UNL     1      49.184   6.922  14.005  0.00  0.00    +0.000 A 
ATOM      4  C   UNL     1      49.450   6.849  15.380  0.00  0.00    +0.000 A 
ATOM      5  C   UNL     1      49.030   7.861  16.246  0.00  0.00    +0.000 A 
ATOM      6  C   UNL     1      48.276   8.914  15.724  0.00  0.00    +0.000 A 
ATOM      7  C   UNL     1      48.022   8.999  14.345  0.00  0.00    +0.000 A 
BRANCH   5   8
ATOM      8  O   UNL     1      49.281   7.882  17.599  0.00  0.00    +0.000 OA
BRANCH   8   9
ATOM      9  C   UNL     1      48.263   7.252  18.397  0.00  0.00    +0.000 C 
BRANCH   9  10
ATOM     10  C   UNL     1      48.848   6.153  19.313  0.00  0.00    +0.000 C 
BRANCH  10  11
ATOM     11  N   UNL     1      48.661   4.782  18.773  0.00  0.00    +0.000 NA
ATOM     12  C   UNL     1      47.456   4.681  17.932  0.00  0.00    +0.000 C 
ATOM     13  C   UNL     1      47.237   3.258  17.416  0.00  0.00    +0.000 C 
ATOM     14  C   UNL     1      48.450   2.751  16.651  0.00  0.00    +0.000 C 
ATOM     15  C   UNL     1      49.707   2.913  17.497  0.00  0.00    +0.000 C 
ATOM     16  C   UNL     1      49.852   4.349  18.017  0.00  0.00    +0.000 C 
ENDBRANCH  10  11
ENDBRANCH   9  10
ENDBRANCH   8   9
ENDBRANCH   5   8
ENDBRANCH   1   2
BRANCH   1  19
ATOM     17  C   UNL     1      46.260   6.951  11.367  0.00  0.00    +0.000 C 
ATOM     18  O   UNL     1      45.559   7.852  11.825  0.00  0.00    +0.000 OA
ATOM     19  N   UNL     1      47.625   7.022  11.398  0.00  0.00    +0.000 N 
ATOM     20  H   UNL     1      48.185   6.285  10.992  0.00  0.00    +0.000 HD
BRANCH  17  28
ATOM     21  C   UNL     1      44.519   4.292  12.676  0.00  0.00    +0.000 A 
ATOM     22  N   UNL     1      43.756   3.208  12.917  0.00  0.00    +0.000 NA
ATOM     23  C   UNL     1      43.397   2.454  11.874  0.00  0.00    +0.000 A 
ATOM     24  N   UNL     1      43.719   2.639  10.596  0.00  0.00    +0.000 NA
ATOM     25  C   UNL     1      44.470   3.741  10.403  0.00  0.00    +0.000 A 
ATOM     26  S   UNL     1      44.999   4.134   8.838  0.00  0.00    +0.000 S 
ATOM     27  C   UNL     1      45.786   5.531   9.402  0.00  0.00    +0.000 A 
ATOM     28  C   UNL     1      45.658   5.739  10.770  0.00  0.00    +0.000 A 
ATOM     29  C   UNL     1      44.902   4.646  11.370  0.00  0.00    +0.000 A 
BRANCH  21  31
ATOM     30  C   UNL     1      46.213   4.786  14.215  0.00  0.00    +0.000 C 
ATOM     31  O   UNL     1      44.897   5.063  13.750  0.00  0.00    +0.000 OA
ENDBRANCH  21  31
ENDBRANCH  17  28
ENDBRANCH   1  19
TORSDOF 8
ENDMDL
MODEL 4
REMARK VINA RESULT:    -6.746      1.679      2.109
REMARK INTER + INTRA:         -10.989
REMARK INTER:                  -9.928
REMARK INTRA:                  -1.061
REMARK UNBOUND:                -1.088
REMARK  Name = 
REMARK  9 active torsions:
REMARK  status: ('A' for Active; 'I' for Inactive)
REMARK    1  A    between atoms: C_1  and  O_2
REMARK    2  A    between atoms: O_2  and  C_3
REMARK    3  A    between atoms: C_10  and  C_11
REMARK    4  A    between atoms: N_13  and  C_14
REMARK    5  A    between atoms: C_14  and  C_15
REMARK    6  A    between atoms: C_18  and  O_19
REMARK    7  A    between atoms: O_19  and  C_20
REMARK    8  A    between atoms: C_20  and  C_21
REMARK    9  A    between atoms: C_21  and  N_22
REMARK                            x       y       z     vdW  Elec       q    Type
REMARK                         _______ _______ _______ _____ _____    ______ ____
ROOT
ATOM      1  C   UNL     1      48.382   7.641  13.909  0.00  0.00    +0.000 C 
ENDROOT
BRANCH   1   2
ATOM      2  C   UNL     1      47.439   6.752  13.133  0.00  0.00    +0.000 A 
ATOM      3  C   UNL     1      46.842   5.649  13.753  0.00  0.00    +0.000 A 
ATOM      4  C   UNL     1      45.884   4.878  13.078  0.00  0.00    +0.000 A 
ATOM      5  C   UNL     1      45.517   5.179  11.764  0.00  0.00    +0.000 A 
ATOM      6  C   UNL     1      46.178   6.222  11.111  0.00  0.00    +0.000 A 
ATOM      7  C   UNL     1      47.126   7.006  11.789  0.00  0.00    +0.000 A 
BRANCH   5   8
ATOM      8  O   UNL     1      44.563   4.496  11.047  0.00  0.00    +0.000 OA
BRANCH   8   9
ATOM      9  C   UNL     1      44.721   3.065  11.069  0.00  0.00    +0.000 C 
BRANCH   9  10
ATOM     10  C   UNL     1      44.474   2.438   9.678  0.00  0.00    +0.000 C 
BRANCH  10  11
ATOM     11  N   UNL     1      45.651   2.535   8.776  0.00  0.00    +0.000 NA
ATOM     12  C   UNL     1      45.984   1.238   8.164  0.00  0.00    +0.000 C 
ATOM     13  C   UNL     1      47.225   1.329   7.273  0.00  0.00    +0.000 C 
ATOM     14  C   UNL     1      47.059   2.389   6.195  0.00  0.00    +0.000 C 
ATOM     15  C   UNL     1      46.654   3.716   6.823  0.00  0.00    +0.000 C 
ATOM     16  C   UNL     1      45.429   3.554   7.733  0.00  0.00    +0.000 C 
ENDBRANCH  10  11
ENDBRANCH   9  10
ENDBRANCH   8   9
ENDBRANCH   5   8
ENDBRANCH   1   2
BRANCH   1  19
ATOM     17  C   UNL     1      50.176   7.413  15.582  0.00  0.00    +0.000 C 
ATOM     18  O   UNL     1      50.717   8.452  15.206  0.00  0.00    +0.000 OA
ATOM     19  N   UNL     1      49.029   6.952  14.998  0.00  0.00    +0.000 N 
ATOM     20  H   UNL     1      48.583   6.112  15.339  0.00  0.00    +0.000 HD
BRANCH  17  28
ATOM     21  C   UNL     1      48.969   6.369  18.627  0.00  0.00    +0.000 A 
ATOM     22  N   UNL     1      48.711   5.771  19.807  0.00  0.00    +0.000 NA
ATOM     23  C   UNL     1      49.663   4.996  20.334  0.00  0.00    +0.000 A 
ATOM     24  N   UNL     1      50.870   4.746  19.831  0.00  0.00    +0.000 NA
ATOM     25  C   UNL     1      51.076   5.354  18.646  0.00  0.00    +0.000 A 
ATOM     26  S   UNL     1      52.568   5.171  17.856  0.00  0.00    +0.000 S 
ATOM     27  C   UNL     1      52.052   6.135  16.555  0.00  0.00    +0.000 A 
ATOM     28  C   UNL     1      50.750   6.603  16.679  0.00  0.00    +0.000 A 
ATOM     29  C   UNL     1      50.184   6.163  17.949  0.00  0.00    +0.000 A 
BRANCH  21  31
ATOM     30  C   UNL     1      47.924   8.464  18.689  0.00  0.00    +0.000 C 
ATOM     31  O   UNL     1      47.994   7.175  18.089  0.00  0.00    +0.000 OA
ENDBRANCH  21  31
ENDBRANCH  17  28
ENDBRANCH   1  19
TORSDOF 8
ENDMDL
MODEL 5
REMARK VINA RESULT:    -6.683      2.135      2.714
REMARK INTER + INTRA:         -10.896
REMARK INTER:                  -9.774
REMARK INTRA:                  -1.122
REMARK UNBOUND:                -1.088
REMARK  Name = 
REMARK  9 active torsions:
REMARK  status: ('A' for Active; 'I' for Inactive)
REMARK    1  A    between atoms: C_1  and  O_2
REMARK    2  A    between atoms: O_2  and  C_3
REMARK    3  A    between atoms: C_10  and  C_11
REMARK    4  A    between atoms: N_13  and  C_14
REMARK    5  A    between atoms: C_14  and  C_15
REMARK    6  A    between atoms: C_18  and  O_19
REMARK    7  A    between atoms: O_19  and  C_20
REMARK    8  A    between atoms: C_20  and  C_21
REMARK    9  A    between atoms: C_21  and  N_22
REMARK                            x       y       z     vdW  Elec       q    Type
REMARK                         _______ _______ _______ _____ _____    ______ ____
ROOT
ATOM      1  C   UNL     1      48.289   7.632  15.299  0.00  0.00    +0.000 C 
ENDROOT
BRANCH   1   2
ATOM      2  C   UNL     1      47.581   7.200  14.037  0.00  0.00    +0.000 A 
ATOM      3  C   UNL     1      47.272   5.850  13.831  0.00  0.00    +0.000 A 
ATOM      4  C   UNL     1      46.523   5.447  12.716  0.00  0.00    +0.000 A 
ATOM      5  C   UNL     1      46.082   6.379  11.774  0.00  0.00    +0.000 A 
ATOM      6  C   UNL     1      46.465   7.713  11.926  0.00  0.00    +0.000 A 
ATOM      7  C   UNL     1      47.203   8.123  13.050  0.00  0.00    +0.000 A 
BRANCH   5   8
ATOM      8  O   UNL     1      45.313   6.070  10.675  0.00  0.00    +0.000 OA
BRANCH   8   9
ATOM      9  C   UNL     1      45.226   4.661  10.394  0.00  0.00    +0.000 C 
BRANCH   9  10
ATOM     10  C   UNL     1      45.167   4.381   8.874  0.00  0.00    +0.000 C 
BRANCH  10  11
ATOM     11  N   UNL     1      46.121   3.331   8.436  0.00  0.00    +0.000 NA
ATOM     12  C   UNL     1      45.503   1.994   8.430  0.00  0.00    +0.000 C 
ATOM     13  C   UNL     1      46.500   0.906   8.026  0.00  0.00    +0.000 C 
ATOM     14  C   UNL     1      47.124   1.199   6.670  0.00  0.00    +0.000 C 
ATOM     15  C   UNL     1      47.709   2.606   6.657  0.00  0.00    +0.000 C 
ATOM     16  C   UNL     1      46.675   3.647   7.106  0.00  0.00    +0.000 C 
ENDBRANCH  10  11
ENDBRANCH   9  10
ENDBRANCH   8   9
ENDBRANCH   5   8
ENDBRANCH   1   2
BRANCH   1  19
ATOM     17  C   UNL     1      49.589   6.586  17.111  0.00  0.00    +0.000 C 
ATOM     18  O   UNL     1      49.185   7.408  17.933  0.00  0.00    +0.000 OA
ATOM     19  N   UNL     1      49.194   6.630  15.803  0.00  0.00    +0.000 N 
ATOM     20  H   UNL     1      49.514   5.930  15.148  0.00  0.00    +0.000 HD
BRANCH  17  28
ATOM     21  C   UNL     1      49.558   3.166  16.764  0.00  0.00    +0.000 A 
ATOM     22  N   UNL     1      49.827   1.849  16.679  0.00  0.00    +0.000 NA
ATOM     23  C   UNL     1      51.000   1.420  17.155  0.00  0.00    +0.000 A 
ATOM     24  N   UNL     1      51.953   2.150  17.729  0.00  0.00    +0.000 NA
ATOM     25  C   UNL     1      51.645   3.461  17.779  0.00  0.00    +0.000 A 
ATOM     26  S   UNL     1      52.730   4.553  18.496  0.00  0.00    +0.000 S 
ATOM     27  C   UNL     1      51.705   5.867  18.162  0.00  0.00    +0.000 A 
ATOM     28  C   UNL     1      50.536   5.518  17.497  0.00  0.00    +0.000 A 
ATOM     29  C   UNL     1      50.488   4.073  17.303  0.00  0.00    +0.000 A 
BRANCH  21  31
ATOM     30  C   UNL     1      47.312   3.604  17.260  0.00  0.00    +0.000 C 
ATOM     31  O   UNL     1      48.347   3.607  16.284  0.00  0.00    +0.000 OA
ENDBRANCH  21  31
ENDBRANCH  17  28
ENDBRANCH   1  19
TORSDOF 8
ENDMDL
MODEL 6
REMARK VINA RESULT:    -6.619      3.068      5.081
REMARK INTER + INTRA:         -10.803
REMARK INTER:                  -9.551
REMARK INTRA:                  -1.251
REMARK UNBOUND:                -1.088
REMARK  Name = 
REMARK  9 active torsions:
REMARK  status: ('A' for Active; 'I' for Inactive)
REMARK    1  A    between atoms: C_1  and  O_2
REMARK    2  A    between atoms: O_2  and  C_3
REMARK    3  A    between atoms: C_10  and  C_11
REMARK    4  A    between atoms: N_13  and  C_14
REMARK    5  A    between atoms: C_14  and  C_15
REMARK    6  A    between atoms: C_18  and  O_19
REMARK    7  A    between atoms: O_19  and  C_20
REMARK    8  A    between atoms: C_20  and  C_21
REMARK    9  A    between atoms: C_21  and  N_22
REMARK                            x       y       z     vdW  Elec       q    Type
REMARK                         _______ _______ _______ _____ _____    ______ ____
ROOT
ATOM      1  C   UNL     1      47.609   5.792  14.626  0.00  0.00    +0.000 C 
ENDROOT
BRANCH   1   2
ATOM      2  C   UNL     1      46.648   5.267  13.586  0.00  0.00    +0.000 A 
ATOM      3  C   UNL     1      46.507   3.889  13.390  0.00  0.00    +0.000 A 
ATOM      4  C   UNL     1      45.544   3.383  12.505  0.00  0.00    +0.000 A 
ATOM      5  C   UNL     1      44.715   4.243  11.781  0.00  0.00    +0.000 A 
ATOM      6  C   UNL     1      44.914   5.620  11.903  0.00  0.00    +0.000 A 
ATOM      7  C   UNL     1      45.868   6.129  12.801  0.00  0.00    +0.000 A 
BRANCH   5   8
ATOM      8  O   UNL     1      43.724   3.829  10.921  0.00  0.00    +0.000 OA
BRANCH   8   9
ATOM      9  C   UNL     1      44.175   2.929   9.892  0.00  0.00    +0.000 C 
BRANCH   9  10
ATOM     10  C   UNL     1      44.585   3.686   8.607  0.00  0.00    +0.000 C 
BRANCH  10  11
ATOM     11  N   UNL     1      45.406   2.863   7.682  0.00  0.00    +0.000 NA
ATOM     12  C   UNL     1      46.422   3.669   6.984  0.00  0.00    +0.000 C 
ATOM     13  C   UNL     1      47.235   2.831   5.995  0.00  0.00    +0.000 C 
ATOM     14  C   UNL     1      47.893   1.643   6.682  0.00  0.00    +0.000 C 
ATOM     15  C   UNL     1      46.851   0.845   7.456  0.00  0.00    +0.000 C 
ATOM     16  C   UNL     1      46.044   1.744   8.401  0.00  0.00    +0.000 C 
ENDBRANCH  10  11
ENDBRANCH   9  10
ENDBRANCH   8   9
ENDBRANCH   5   8
ENDBRANCH   1   2
BRANCH   1  19
ATOM     17  C   UNL     1      49.274   7.600  14.787  0.00  0.00    +0.000 C 
ATOM     18  O   UNL     1      49.001   7.803  15.970  0.00  0.00    +0.000 OA
ATOM     19  N   UNL     1      48.637   6.631  14.063  0.00  0.00    +0.000 N 
ATOM     20  H   UNL     1      48.894   6.460  13.101  0.00  0.00    +0.000 HD
BRANCH  17  28
ATOM     21  C   UNL     1      49.228   9.506  11.927  0.00  0.00    +0.000 A 
ATOM     22  N   UNL     1      49.450  10.366  10.913  0.00  0.00    +0.000 NA
ATOM     23  C   UNL     1      50.661  10.923  10.823  0.00  0.00    +0.000 A 
ATOM     24  N   UNL     1      51.705  10.718  11.623  0.00  0.00    +0.000 NA
ATOM     25  C   UNL     1      51.431   9.862  12.627  0.00  0.00    +0.000 A 
ATOM     26  S   UNL     1      52.647   9.459  13.742  0.00  0.00    +0.000 S 
ATOM     27  C   UNL     1      51.586   8.451  14.607  0.00  0.00    +0.000 A 
ATOM     28  C   UNL     1      50.298   8.406  14.088  0.00  0.00    +0.000 A 
ATOM     29  C   UNL     1      50.221   9.223  12.882  0.00  0.00    +0.000 A 
BRANCH  21  31
ATOM     30  C   UNL     1      46.955   9.834  12.383  0.00  0.00    +0.000 C 
ATOM     31  O   UNL     1      47.985   8.924  12.015  0.00  0.00    +0.000 OA
ENDBRANCH  21  31
ENDBRANCH  17  28
ENDBRANCH   1  19
TORSDOF 8
ENDMDL
MODEL 7
REMARK VINA RESULT:    -6.516      2.528      3.048
REMARK INTER + INTRA:         -10.652
REMARK INTER:                  -9.539
REMARK INTRA:                  -1.113
REMARK UNBOUND:                -1.088
REMARK  Name = 
REMARK  9 active torsions:
REMARK  status: ('A' for Active; 'I' for Inactive)
REMARK    1  A    between atoms: C_1  and  O_2
REMARK    2  A    between atoms: O_2  and  C_3
REMARK    3  A    between atoms: C_10  and  C_11
REMARK    4  A    between atoms: N_13  and  C_14
REMARK    5  A    between atoms: C_14  and  C_15
REMARK    6  A    between atoms: C_18  and  O_19
REMARK    7  A    between atoms: O_19  and  C_20
REMARK    8  A    between atoms: C_20  and  C_21
REMARK    9  A    between atoms: C_21  and  N_22
REMARK                            x       y       z     vdW  Elec       q    Type
REMARK                         _______ _______ _______ _____ _____    ______ ____
ROOT
ATOM      1  C   UNL     1      47.265   8.238  13.772  0.00  0.00    +0.000 C 
ENDROOT
BRANCH   1   2
ATOM      2  C   UNL     1      46.802   6.924  13.189  0.00  0.00    +0.000 A 
ATOM      3  C   UNL     1      47.071   5.725  13.858  0.00  0.00    +0.000 A 
ATOM      4  C   UNL     1      46.557   4.508  13.386  0.00  0.00    +0.000 A 
ATOM      5  C   UNL     1      45.781   4.460  12.225  0.00  0.00    +0.000 A 
ATOM      6  C   UNL     1      45.587   5.640  11.504  0.00  0.00    +0.000 A 
ATOM      7  C   UNL     1      46.087   6.863  11.983  0.00  0.00    +0.000 A 
BRANCH   5   8
ATOM      8  O   UNL     1      45.211   3.316  11.717  0.00  0.00    +0.000 OA
BRANCH   8   9
ATOM      9  C   UNL     1      44.318   3.543  10.611  0.00  0.00    +0.000 C 
BRANCH   9  10
ATOM     10  C   UNL     1      44.395   2.405   9.567  0.00  0.00    +0.000 C 
BRANCH  10  11
ATOM     11  N   UNL     1      45.614   2.470   8.722  0.00  0.00    +0.000 NA
ATOM     12  C   UNL     1      45.972   1.151   8.171  0.00  0.00    +0.000 C 
ATOM     13  C   UNL     1      47.255   1.209   7.340  0.00  0.00    +0.000 C 
ATOM     14  C   UNL     1      47.147   2.231   6.219  0.00  0.00    +0.000 C 
ATOM     15  C   UNL     1      46.716   3.580   6.781  0.00  0.00    +0.000 C 
ATOM     16  C   UNL     1      45.447   3.453   7.634  0.00  0.00    +0.000 C 
ENDBRANCH  10  11
ENDBRANCH   9  10
ENDBRANCH   8   9
ENDBRANCH   5   8
ENDBRANCH   1   2
BRANCH   1  19
ATOM     17  C   UNL     1      49.717   8.254  13.533  0.00  0.00    +0.000 C 
ATOM     18  O   UNL     1      49.640   8.400  12.314  0.00  0.00    +0.000 OA
ATOM     19  N   UNL     1      48.599   8.169  14.315  0.00  0.00    +0.000 N 
ATOM     20  H   UNL     1      48.682   8.078  15.317  0.00  0.00    +0.000 HD
BRANCH  17  28
ATOM     21  C   UNL     1      50.844   6.442  16.228  0.00  0.00    +0.000 A 
ATOM     22  N   UNL     1      51.544   5.792  17.178  0.00  0.00    +0.000 NA
ATOM     23  C   UNL     1      52.850   6.054  17.278  0.00  0.00    +0.000 A 
ATOM     24  N   UNL     1      53.560   6.908  16.544  0.00  0.00    +0.000 NA
ATOM     25  C   UNL     1      52.820   7.523  15.600  0.00  0.00    +0.000 A 
ATOM     26  S   UNL     1      53.546   8.667  14.576  0.00  0.00    +0.000 S 
ATOM     27  C   UNL     1      52.085   8.924  13.747  0.00  0.00    +0.000 A 
ATOM     28  C   UNL     1      51.027   8.151  14.211  0.00  0.00    +0.000 A 
ATOM     29  C   UNL     1      51.464   7.342  15.343  0.00  0.00    +0.000 A 
BRANCH  21  31
ATOM     30  C   UNL     1      49.076   5.064  16.907  0.00  0.00    +0.000 C 
ATOM     31  O   UNL     1      49.497   6.181  16.131  0.00  0.00    +0.000 OA
ENDBRANCH  21  31
ENDBRANCH  17  28
ENDBRANCH   1  19
TORSDOF 8
ENDMDL
MODEL 8
REMARK VINA RESULT:    -6.391      2.798      4.057
REMARK INTER + INTRA:         -10.468
REMARK INTER:                  -9.362
REMARK INTRA:                  -1.106
REMARK UNBOUND:                -1.088
REMARK  Name = 
REMARK  9 active torsions:
REMARK  status: ('A' for Active; 'I' for Inactive)
REMARK    1  A    between atoms: C_1  and  O_2
REMARK    2  A    between atoms: O_2  and  C_3
REMARK    3  A    between atoms: C_10  and  C_11
REMARK    4  A    between atoms: N_13  and  C_14
REMARK    5  A    between atoms: C_14  and  C_15
REMARK    6  A    between atoms: C_18  and  O_19
REMARK    7  A    between atoms: O_19  and  C_20
REMARK    8  A    between atoms: C_20  and  C_21
REMARK    9  A    between atoms: C_21  and  N_22
REMARK                            x       y       z     vdW  Elec       q    Type
REMARK                         _______ _______ _______ _____ _____    ______ ____
ROOT
ATOM      1  C   UNL     1      47.052   7.948  13.182  0.00  0.00    +0.000 C 
ENDROOT
BRANCH   1   2
ATOM      2  C   UNL     1      46.255   6.730  12.779  0.00  0.00    +0.000 A 
ATOM      3  C   UNL     1      45.168   6.858  11.908  0.00  0.00    +0.000 A 
ATOM      4  C   UNL     1      44.484   5.726  11.441  0.00  0.00    +0.000 A 
ATOM      5  C   UNL     1      44.859   4.444  11.849  0.00  0.00    +0.000 A 
ATOM      6  C   UNL     1      45.883   4.317  12.789  0.00  0.00    +0.000 A 
ATOM      7  C   UNL     1      46.580   5.448  13.247  0.00  0.00    +0.000 A 
BRANCH   5   8
ATOM      8  O   UNL     1      44.265   3.283  11.411  0.00  0.00    +0.000 OA
BRANCH   8   9
ATOM      9  C   UNL     1      44.037   3.238   9.990  0.00  0.00    +0.000 C 
BRANCH   9  10
ATOM     10  C   UNL     1      44.682   1.990   9.343  0.00  0.00    +0.000 C 
BRANCH  10  11
ATOM     11  N   UNL     1      45.856   2.315   8.493  0.00  0.00    +0.000 NA
ATOM     12  C   UNL     1      46.434   1.111   7.872  0.00  0.00    +0.000 C 
ATOM     13  C   UNL     1      47.673   1.440   7.035  0.00  0.00    +0.000 C 
ATOM     14  C   UNL     1      47.363   2.480   5.969  0.00  0.00    +0.000 C 
ATOM     15  C   UNL     1      46.708   3.700   6.604  0.00  0.00    +0.000 C 
ATOM     16  C   UNL     1      45.497   3.304   7.459  0.00  0.00    +0.000 C 
ENDBRANCH  10  11
ENDBRANCH   9  10
ENDBRANCH   8   9
ENDBRANCH   5   8
ENDBRANCH   1   2
BRANCH   1  19
ATOM     17  C   UNL     1      48.743   8.106  14.967  0.00  0.00    +0.000 C 
ATOM     18  O   UNL     1      48.035   8.865  15.628  0.00  0.00    +0.000 OA
ATOM     19  N   UNL     1      48.329   7.613  13.760  0.00  0.00    +0.000 N 
ATOM     20  H   UNL     1      48.912   6.970  13.244  0.00  0.00    +0.000 HD
BRANCH  17  28
ATOM     21  C   UNL     1      51.910   8.461  13.678  0.00  0.00    +0.000 A 
ATOM     22  N   UNL     1      53.234   8.543  13.441  0.00  0.00    +0.000 NA
ATOM     23  C   UNL     1      54.063   8.041  14.360  0.00  0.00    +0.000 A 
ATOM     24  N   UNL     1      53.735   7.444  15.503  0.00  0.00    +0.000 NA
ATOM     25  C   UNL     1      52.402   7.398  15.702  0.00  0.00    +0.000 A 
ATOM     26  S   UNL     1      51.787   6.653  17.098  0.00  0.00    +0.000 S 
ATOM     27  C   UNL     1      50.188   7.007  16.641  0.00  0.00    +0.000 A 
ATOM     28  C   UNL     1      50.083   7.700  15.441  0.00  0.00    +0.000 A 
ATOM     29  C   UNL     1      51.409   7.898  14.866  0.00  0.00    +0.000 A 
BRANCH  21  31
ATOM     30  C   UNL     1      51.040  10.391  12.675  0.00  0.00    +0.000 C 
ATOM     31  O   UNL     1      51.054   8.968  12.728  0.00  0.00    +0.000 OA
ENDBRANCH  21  31
ENDBRANCH  17  28
ENDBRANCH   1  19
TORSDOF 8
ENDMDL
MODEL 9
REMARK VINA RESULT:    -6.213      3.364      4.693
REMARK INTER + INTRA:         -10.206
REMARK INTER:                  -9.306
REMARK INTRA:                  -0.900
REMARK UNBOUND:                -1.088
REMARK  Name = 
REMARK  9 active torsions:
REMARK  status: ('A' for Active; 'I' for Inactive)
REMARK    1  A    between atoms: C_1  and  O_2
REMARK    2  A    between atoms: O_2  and  C_3
REMARK    3  A    between atoms: C_10  and  C_11
REMARK    4  A    between atoms: N_13  and  C_14
REMARK    5  A    between atoms: C_14  and  C_15
REMARK    6  A    between atoms: C_18  and  O_19
REMARK    7  A    between atoms: O_19  and  C_20
REMARK    8  A    between atoms: C_20  and  C_21
REMARK    9  A    between atoms: C_21  and  N_22
REMARK                            x       y       z     vdW  Elec       q    Type
REMARK                         _______ _______ _______ _____ _____    ______ ____
ROOT
ATOM      1  C   UNL     1      47.706   5.945  14.295  0.00  0.00    +0.000 C 
ENDROOT
BRANCH   1   2
ATOM      2  C   UNL     1      46.579   5.663  13.329  0.00  0.00    +0.000 A 
ATOM      3  C   UNL     1      46.502   6.357  12.117  0.00  0.00    +0.000 A 
ATOM      4  C   UNL     1      45.525   6.033  11.164  0.00  0.00    +0.000 A 
ATOM      5  C   UNL     1      44.593   5.023  11.410  0.00  0.00    +0.000 A 
ATOM      6  C   UNL     1      44.608   4.390  12.655  0.00  0.00    +0.000 A 
ATOM      7  C   UNL     1      45.595   4.702  13.605  0.00  0.00    +0.000 A 
BRANCH   5   8
ATOM      8  O   UNL     1      43.628   4.620  10.516  0.00  0.00    +0.000 OA
BRANCH   8   9
ATOM      9  C   UNL     1      44.140   4.256   9.221  0.00  0.00    +0.000 C 
BRANCH   9  10
ATOM     10  C   UNL     1      44.498   2.754   9.146  0.00  0.00    +0.000 C 
BRANCH  10  11
ATOM     11  N   UNL     1      45.322   2.408   7.959  0.00  0.00    +0.000 NA
ATOM     12  C   UNL     1      45.993   3.590   7.392  0.00  0.00    +0.000 C 
ATOM     13  C   UNL     1      46.802   3.241   6.141  0.00  0.00    +0.000 C 
ATOM     14  C   UNL     1      47.821   2.148   6.424  0.00  0.00    +0.000 C 
ATOM     15  C   UNL     1      47.136   0.949   7.068  0.00  0.00    +0.000 C 
ATOM     16  C   UNL     1      46.312   1.366   8.293  0.00  0.00    +0.000 C 
ENDBRANCH  10  11
ENDBRANCH   9  10
ENDBRANCH   8   9
ENDBRANCH   5   8
ENDBRANCH   1   2
BRANCH   1  19
ATOM     17  C   UNL     1      49.032   7.998  13.990  0.00  0.00    +0.000 C 
ATOM     18  O   UNL     1      48.340   8.616  14.798  0.00  0.00    +0.000 OA
ATOM     19  N   UNL     1      48.785   6.686  13.693  0.00  0.00    +0.000 N 
ATOM     20  H   UNL     1      49.381   6.187  13.048  0.00  0.00    +0.000 HD
BRANCH  17  28
ATOM     21  C   UNL     1      52.423   8.092  14.549  0.00  0.00    +0.000 A 
ATOM     22  N   UNL     1      53.763   8.216  14.496  0.00  0.00    +0.000 NA
ATOM     23  C   UNL     1      54.285   8.907  13.478  0.00  0.00    +0.000 A 
ATOM     24  N   UNL     1      53.627   9.513  12.494  0.00  0.00    +0.000 NA
ATOM     25  C   UNL     1      52.292   9.350  12.582  0.00  0.00    +0.000 A 
ATOM     26  S   UNL     1      51.279  10.070  11.425  0.00  0.00    +0.000 S 
ATOM     27  C   UNL     1      49.892   9.427  12.168  0.00  0.00    +0.000 A 
ATOM     28  C   UNL     1      50.159   8.650  13.289  0.00  0.00    +0.000 A 
ATOM     29  C   UNL     1      51.593   8.639  13.554  0.00  0.00    +0.000 A 
BRANCH  21  31
ATOM     30  C   UNL     1      52.824   6.556  16.271  0.00  0.00    +0.000 C 
ATOM     31  O   UNL     1      51.884   7.389  15.602  0.00  0.00    +0.000 OA
ENDBRANCH  21  31
ENDBRANCH  17  28
ENDBRANCH   1  19
TORSDOF 8
ENDMDL
