MODEL 1
REMARK VINA RESULT:    -7.660      0.000      0.000
REMARK INTER + INTRA:         -11.899
REMARK INTER:                 -10.795
REMARK INTRA:                  -1.104
REMARK UNBOUND:                -1.104
REMARK  Name = 
REMARK  7 active torsions:
REMARK  status: ('A' for Active; 'I' for Inactive)
REMARK    1  A    between atoms: C_2  and  C_19
REMARK    2  A    between atoms: N_3  and  C_4
REMARK    3  A    between atoms: C_4  and  C_5
REMARK    4  A    between atoms: C_8  and  C_9
REMARK    5  A    between atoms: C_9  and  C_10
REMARK    6  A    between atoms: C_10  and  C_11
REMARK    7  A    between atoms: C_11  and  N_12
REMARK                            x       y       z     vdW  Elec       q    Type
REMARK                         _______ _______ _______ _____ _____    ______ ____
ROOT
ATOM      1  C   UNL     1      47.098   7.099  13.050  0.00  0.00    +0.000 C 
ENDROOT
BRANCH   1   2
ATOM      2  C   UNL     1      46.361   6.047  12.273  0.00  0.00    +0.000 A 
ATOM      3  C   UNL     1      45.997   6.239  10.940  0.00  0.00    +0.000 A 
ATOM      4  C   UNL     1      45.267   5.257  10.272  0.00  0.00    +0.000 A 
ATOM      5  C   UNL     1      44.930   4.089  10.950  0.00  0.00    +0.000 A 
ATOM      6  N   UNL     1      45.311   3.861  12.230  0.00  0.00    +0.000 NA
ATOM      7  C   UNL     1      46.011   4.835  12.856  0.00  0.00    +0.000 A 
BRANCH   5   8
ATOM      8  C   UNL     1      44.117   3.013  10.274  0.00  0.00    +0.000 C 
BRANCH   8   9
ATOM      9  C   UNL     1      44.494   2.813   8.801  0.00  0.00    +0.000 C 
BRANCH   9  10
ATOM     10  C   UNL     1      45.598   1.771   8.564  0.00  0.00    +0.000 C 
BRANCH  10  11
ATOM     11  N   UNL     1      46.824   2.310   7.963  0.00  0.00    +0.000 NA
ATOM     12  C   UNL     1      47.492   1.399   7.023  0.00  0.00    +0.000 C 
ATOM     13  C   UNL     1      47.813   2.261   5.810  0.00  0.00    +0.000 C 
ATOM     14  N   UNL     1      46.745   3.261   5.820  0.00  0.00    +0.000 NA
ATOM     15  C   UNL     1      46.578   3.552   7.238  0.00  0.00    +0.000 C 
ATOM     16  H   UNL     1      45.885   2.813   5.510  0.00  0.00    +0.000 HD
ENDBRANCH  10  11
ENDBRANCH   9  10
ENDBRANCH   8   9
ENDBRANCH   5   8
ENDBRANCH   1   2
BRANCH   1  19
ATOM     17  O   UNL     1      49.636   6.956  14.173  0.00  0.00    +0.000 OA
ATOM     18  C   UNL     1      48.667   6.699  14.882  0.00  0.00    +0.000 C 
ATOM     19  N   UNL     1      47.384   6.670  14.394  0.00  0.00    +0.000 N 
ATOM     20  H   UNL     1      46.610   6.697  15.048  0.00  0.00    +0.000 HD
BRANCH  18  21
ATOM     21  C   UNL     1      48.817   6.367  16.302  0.00  0.00    +0.000 A 
ATOM     22  C   UNL     1      49.244   7.323  17.213  0.00  0.00    +0.000 A 
ATOM     23  S   UNL     1      49.354   6.730  18.813  0.00  0.00    +0.000 S 
ATOM     24  C   UNL     1      48.801   5.188  18.340  0.00  0.00    +0.000 A 
ATOM     25  N   UNL     1      48.641   4.185  19.243  0.00  0.00    +0.000 NA
ATOM     26  C   UNL     1      48.187   3.085  18.742  0.00  0.00    +0.000 A 
ATOM     27  N   UNL     1      47.886   2.891  17.417  0.00  0.00    +0.000 N 
ATOM     28  C   UNL     1      48.073   3.859  16.467  0.00  0.00    +0.000 A 
ATOM     29  O   UNL     1      47.858   3.627  15.278  0.00  0.00    +0.000 OA
ATOM     30  C   UNL     1      48.558   5.125  16.980  0.00  0.00    +0.000 A 
ATOM     31  H   UNL     1      47.551   2.001  17.082  0.00  0.00    +0.000 HD
ENDBRANCH  18  21
ENDBRANCH   1  19
TORSDOF 7
ENDMDL
MODEL 2
REMARK VINA RESULT:    -7.041      3.394      8.144
REMARK INTER + INTRA:         -11.027
REMARK INTER:                  -9.497
REMARK INTRA:                  -1.530
REMARK UNBOUND:                -1.104
REMARK  Name = 
REMARK  7 active torsions:
REMARK  status: ('A' for Active; 'I' for Inactive)
REMARK    1  A    between atoms: C_2  and  C_19
REMARK    2  A    between atoms: N_3  and  C_4
REMARK    3  A    between atoms: C_4  and  C_5
REMARK    4  A    between atoms: C_8  and  C_9
REMARK    5  A    between atoms: C_9  and  C_10
REMARK    6  A    between atoms: C_10  and  C_11
REMARK    7  A    between atoms: C_11  and  N_12
REMARK                            x       y       z     vdW  Elec       q    Type
REMARK                         _______ _______ _______ _____ _____    ______ ____
ROOT
ATOM      1  C   UNL     1      48.374   7.887  12.058  0.00  0.00    +0.000 C 
ENDROOT
BRANCH   1   2
ATOM      2  C   UNL     1      49.043   7.575  13.365  0.00  0.00    +0.000 A 
ATOM      3  C   UNL     1      50.257   8.162  13.726  0.00  0.00    +0.000 A 
ATOM      4  C   UNL     1      50.870   7.803  14.926  0.00  0.00    +0.000 A 
ATOM      5  C   UNL     1      50.244   6.874  15.751  0.00  0.00    +0.000 A 
ATOM      6  N   UNL     1      49.045   6.325  15.443  0.00  0.00    +0.000 NA
ATOM      7  C   UNL     1      48.477   6.685  14.269  0.00  0.00    +0.000 A 
BRANCH   5   8
ATOM      8  C   UNL     1      50.886   6.437  17.045  0.00  0.00    +0.000 C 
BRANCH   8   9
ATOM      9  C   UNL     1      49.873   6.244  18.180  0.00  0.00    +0.000 C 
BRANCH   9  10
ATOM     10  C   UNL     1      49.974   4.889  18.898  0.00  0.00    +0.000 C 
BRANCH  10  11
ATOM     11  N   UNL     1      48.867   3.968  18.617  0.00  0.00    +0.000 NA
ATOM     12  C   UNL     1      47.611   4.625  18.226  0.00  0.00    +0.000 C 
ATOM     13  C   UNL     1      47.133   3.850  17.007  0.00  0.00    +0.000 C 
ATOM     14  N   UNL     1      48.379   3.382  16.399  0.00  0.00    +0.000 NA
ATOM     15  C   UNL     1      49.195   3.025  17.552  0.00  0.00    +0.000 C 
ATOM     16  H   UNL     1      48.833   4.174  15.951  0.00  0.00    +0.000 HD
ENDBRANCH  10  11
ENDBRANCH   9  10
ENDBRANCH   8   9
ENDBRANCH   5   8
ENDBRANCH   1   2
BRANCH   1  19
ATOM     17  O   UNL     1      45.606   7.817  11.814  0.00  0.00    +0.000 OA
ATOM     18  C   UNL     1      46.254   6.852  11.415  0.00  0.00    +0.000 C 
ATOM     19  N   UNL     1      47.616   6.767  11.564  0.00  0.00    +0.000 N 
ATOM     20  H   UNL     1      48.127   6.087  11.013  0.00  0.00    +0.000 HD
BRANCH  18  21
ATOM     21  C   UNL     1      45.609   5.701  10.779  0.00  0.00    +0.000 A 
ATOM     22  C   UNL     1      45.745   5.471   9.417  0.00  0.00    +0.000 A 
ATOM     23  S   UNL     1      44.912   4.080   8.878  0.00  0.00    +0.000 S 
ATOM     24  C   UNL     1      44.372   3.722  10.456  0.00  0.00    +0.000 A 
ATOM     25  N   UNL     1      43.610   2.627  10.713  0.00  0.00    +0.000 NA
ATOM     26  C   UNL     1      43.303   2.472  11.958  0.00  0.00    +0.000 A 
ATOM     27  N   UNL     1      43.681   3.318  12.971  0.00  0.00    +0.000 N 
ATOM     28  C   UNL     1      44.412   4.454  12.751  0.00  0.00    +0.000 A 
ATOM     29  O   UNL     1      44.672   5.225  13.674  0.00  0.00    +0.000 OA
ATOM     30  C   UNL     1      44.805   4.664  11.372  0.00  0.00    +0.000 A 
ATOM     31  H   UNL     1      43.394   3.153  13.923  0.00  0.00    +0.000 HD
ENDBRANCH  18  21
ENDBRANCH   1  19
TORSDOF 7
ENDMDL
MODEL 3
REMARK VINA RESULT:    -7.032      1.818      2.641
REMARK INTER + INTRA:         -11.014
REMARK INTER:                 -10.240
REMARK INTRA:                  -0.774
REMARK UNBOUND:                -1.104
REMARK  Name = 
REMARK  7 active torsions:
REMARK  status: ('A' for Active; 'I' for Inactive)
REMARK    1  A    between atoms: C_2  and  C_19
REMARK    2  A    between atoms: N_3  and  C_4
REMARK    3  A    between atoms: C_4  and  C_5
REMARK    4  A    between atoms: C_8  and  C_9
REMARK    5  A    between atoms: C_9  and  C_10
REMARK    6  A    between atoms: C_10  and  C_11
REMARK    7  A    between atoms: C_11  and  N_12
REMARK                            x       y       z     vdW  Elec       q    Type
REMARK                         _______ _______ _______ _____ _____    ______ ____
ROOT
ATOM      1  C   UNL     1      47.570   6.434  13.635  0.00  0.00    +0.000 C 
ENDROOT
BRANCH   1   2
ATOM      2  C   UNL     1      46.607   5.602  12.839  0.00  0.00    +0.000 A 
ATOM      3  C   UNL     1      46.142   4.371  13.304  0.00  0.00    +0.000 A 
ATOM      4  C   UNL     1      45.290   3.607  12.508  0.00  0.00    +0.000 A 
ATOM      5  C   UNL     1      44.904   4.100  11.266  0.00  0.00    +0.000 A 
ATOM      6  N   UNL     1      45.307   5.312  10.813  0.00  0.00    +0.000 NA
ATOM      7  C   UNL     1      46.141   6.029  11.602  0.00  0.00    +0.000 A 
BRANCH   5   8
ATOM      8  C   UNL     1      44.006   3.294  10.361  0.00  0.00    +0.000 C 
BRANCH   8   9
ATOM      9  C   UNL     1      44.536   3.194   8.926  0.00  0.00    +0.000 C 
BRANCH   9  10
ATOM     10  C   UNL     1      45.786   2.315   8.770  0.00  0.00    +0.000 C 
BRANCH  10  11
ATOM     11  N   UNL     1      46.084   1.918   7.389  0.00  0.00    +0.000 NA
ATOM     12  C   UNL     1      46.468   3.028   6.505  0.00  0.00    +0.000 C 
ATOM     13  C   UNL     1      47.701   2.525   5.767  0.00  0.00    +0.000 C 
ATOM     14  N   UNL     1      48.312   1.605   6.727  0.00  0.00    +0.000 NA
ATOM     15  C   UNL     1      47.162   0.937   7.322  0.00  0.00    +0.000 C 
ATOM     16  H   UNL     1      48.746   2.155   7.464  0.00  0.00    +0.000 HD
ENDBRANCH  10  11
ENDBRANCH   9  10
ENDBRANCH   8   9
ENDBRANCH   5   8
ENDBRANCH   1   2
BRANCH   1  19
ATOM     17  O   UNL     1      49.803   6.683  15.272  0.00  0.00    +0.000 OA
ATOM     18  C   UNL     1      48.768   6.233  15.757  0.00  0.00    +0.000 C 
ATOM     19  N   UNL     1      47.641   6.004  15.007  0.00  0.00    +0.000 N 
ATOM     20  H   UNL     1      46.756   5.870  15.482  0.00  0.00    +0.000 HD
BRANCH  18  21
ATOM     21  C   UNL     1      48.675   5.873  17.175  0.00  0.00    +0.000 A 
ATOM     22  C   UNL     1      48.907   4.570  17.594  0.00  0.00    +0.000 A 
ATOM     23  S   UNL     1      48.744   4.364  19.283  0.00  0.00    +0.000 S 
ATOM     24  C   UNL     1      48.392   6.017  19.509  0.00  0.00    +0.000 A 
ATOM     25  N   UNL     1      48.162   6.530  20.745  0.00  0.00    +0.000 NA
ATOM     26  C   UNL     1      47.939   7.802  20.761  0.00  0.00    +0.000 A 
ATOM     27  N   UNL     1      47.915   8.609  19.651  0.00  0.00    +0.000 N 
ATOM     28  C   UNL     1      48.100   8.127  18.383  0.00  0.00    +0.000 A 
ATOM     29  O   UNL     1      48.003   8.868  17.406  0.00  0.00    +0.000 OA
ATOM     30  C   UNL     1      48.379   6.707  18.309  0.00  0.00    +0.000 A 
ATOM     31  H   UNL     1      47.717   9.595  19.725  0.00  0.00    +0.000 HD
ENDBRANCH  18  21
ENDBRANCH   1  19
TORSDOF 7
ENDMDL
MODEL 4
REMARK VINA RESULT:    -6.785      2.958      8.523
REMARK INTER + INTRA:         -10.666
REMARK INTER:                  -9.094
REMARK INTRA:                  -1.572
REMARK UNBOUND:                -1.104
REMARK  Name = 
REMARK  7 active torsions:
REMARK  status: ('A' for Active; 'I' for Inactive)
REMARK    1  A    between atoms: C_2  and  C_19
REMARK    2  A    between atoms: N_3  and  C_4
REMARK    3  A    between atoms: C_4  and  C_5
REMARK    4  A    between atoms: C_8  and  C_9
REMARK    5  A    between atoms: C_9  and  C_10
REMARK    6  A    between atoms: C_10  and  C_11
REMARK    7  A    between atoms: C_11  and  N_12
REMARK                            x       y       z     vdW  Elec       q    Type
REMARK                         _______ _______ _______ _____ _____    ______ ____
ROOT
ATOM      1  C   UNL     1      47.336   7.637  12.119  0.00  0.00    +0.000 C 
ENDROOT
BRANCH   1   2
ATOM      2  C   UNL     1      47.956   7.727  13.483  0.00  0.00    +0.000 A 
ATOM      3  C   UNL     1      48.003   8.930  14.190  0.00  0.00    +0.000 A 
ATOM      4  C   UNL     1      48.636   8.980  15.431  0.00  0.00    +0.000 A 
ATOM      5  C   UNL     1      49.195   7.817  15.950  0.00  0.00    +0.000 A 
ATOM      6  N   UNL     1      49.123   6.629  15.303  0.00  0.00    +0.000 NA
ATOM      7  C   UNL     1      48.511   6.611  14.096  0.00  0.00    +0.000 A 
BRANCH   5   8
ATOM      8  C   UNL     1      49.914   7.832  17.276  0.00  0.00    +0.000 C 
BRANCH   8   9
ATOM      9  C   UNL     1      49.182   7.034  18.363  0.00  0.00    +0.000 C 
BRANCH   9  10
ATOM     10  C   UNL     1      49.801   5.662  18.669  0.00  0.00    +0.000 C 
BRANCH  10  11
ATOM     11  N   UNL     1      48.883   4.529  18.503  0.00  0.00    +0.000 NA
ATOM     12  C   UNL     1      47.513   4.905  18.127  0.00  0.00    +0.000 C 
ATOM     13  C   UNL     1      47.152   3.965  16.986  0.00  0.00    +0.000 C 
ATOM     14  N   UNL     1      48.445   3.696  16.354  0.00  0.00    +0.000 NA
ATOM     15  C   UNL     1      49.351   3.589  17.489  0.00  0.00    +0.000 C 
ATOM     16  H   UNL     1      48.723   4.525  15.833  0.00  0.00    +0.000 HD
ENDBRANCH  10  11
ENDBRANCH   9  10
ENDBRANCH   8   9
ENDBRANCH   5   8
ENDBRANCH   1   2
BRANCH   1  19
ATOM     17  O   UNL     1      44.587   7.310  11.878  0.00  0.00    +0.000 OA
ATOM     18  C   UNL     1      45.308   6.325  11.740  0.00  0.00    +0.000 C 
ATOM     19  N   UNL     1      46.668   6.378  11.917  0.00  0.00    +0.000 N 
ATOM     20  H   UNL     1      47.239   5.620  11.560  0.00  0.00    +0.000 HD
BRANCH  18  21
ATOM     21  C   UNL     1      44.758   5.007  11.410  0.00  0.00    +0.000 A 
ATOM     22  C   UNL     1      43.969   4.317  12.320  0.00  0.00    +0.000 A 
ATOM     23  S   UNL     1      43.435   2.801  11.739  0.00  0.00    +0.000 S 
ATOM     24  C   UNL     1      44.214   3.037  10.240  0.00  0.00    +0.000 A 
ATOM     25  N   UNL     1      44.142   2.109   9.251  0.00  0.00    +0.000 NA
ATOM     26  C   UNL     1      44.756   2.440   8.164  0.00  0.00    +0.000 A 
ATOM     27  N   UNL     1      45.446   3.612   7.978  0.00  0.00    +0.000 N 
ATOM     28  C   UNL     1      45.580   4.554   8.962  0.00  0.00    +0.000 A 
ATOM     29  O   UNL     1      46.264   5.561   8.782  0.00  0.00    +0.000 OA
ATOM     30  C   UNL     1      44.888   4.244  10.197  0.00  0.00    +0.000 A 
ATOM     31  H   UNL     1      45.922   3.806   7.111  0.00  0.00    +0.000 HD
ENDBRANCH  18  21
ENDBRANCH   1  19
TORSDOF 7
ENDMDL
MODEL 5
REMARK VINA RESULT:    -6.781      1.817      2.417
REMARK INTER + INTRA:         -10.661
REMARK INTER:                  -9.993
REMARK INTRA:                  -0.668
REMARK UNBOUND:                -1.104
REMARK  Name = 
REMARK  7 active torsions:
REMARK  status: ('A' for Active; 'I' for Inactive)
REMARK    1  A    between atoms: C_2  and  C_19
REMARK    2  A    between atoms: N_3  and  C_4
REMARK    3  A    between atoms: C_4  and  C_5
REMARK    4  A    between atoms: C_8  and  C_9
REMARK    5  A    between atoms: C_9  and  C_10
REMARK    6  A    between atoms: C_10  and  C_11
REMARK    7  A    between atoms: C_11  and  N_12
REMARK                            x       y       z     vdW  Elec       q    Type
REMARK                         _______ _______ _______ _____ _____    ______ ____
ROOT
ATOM      1  C   UNL     1      47.961   7.003  13.832  0.00  0.00    +0.000 C 
ENDROOT
BRANCH   1   2
ATOM      2  C   UNL     1      46.753   6.189  13.471  0.00  0.00    +0.000 A 
ATOM      3  C   UNL     1      45.651   6.757  12.831  0.00  0.00    +0.000 A 
ATOM      4  C   UNL     1      44.527   5.976  12.562  0.00  0.00    +0.000 A 
ATOM      5  C   UNL     1      44.538   4.633  12.923  0.00  0.00    +0.000 A 
ATOM      6  N   UNL     1      45.613   4.049  13.504  0.00  0.00    +0.000 NA
ATOM      7  C   UNL     1      46.686   4.833  13.762  0.00  0.00    +0.000 A 
BRANCH   5   8
ATOM      8  C   UNL     1      43.334   3.758  12.675  0.00  0.00    +0.000 C 
BRANCH   8   9
ATOM      9  C   UNL     1      43.513   2.817  11.477  0.00  0.00    +0.000 C 
BRANCH   9  10
ATOM     10  C   UNL     1      44.748   3.117  10.614  0.00  0.00    +0.000 C 
BRANCH  10  11
ATOM     11  N   UNL     1      44.566   2.858   9.181  0.00  0.00    +0.000 NA
ATOM     12  C   UNL     1      45.020   3.946   8.303  0.00  0.00    +0.000 C 
ATOM     13  C   UNL     1      45.833   3.255   7.218  0.00  0.00    +0.000 C 
ATOM     14  N   UNL     1      46.374   2.082   7.904  0.00  0.00    +0.000 NA
ATOM     15  C   UNL     1      45.268   1.653   8.749  0.00  0.00    +0.000 C 
ATOM     16  H   UNL     1      47.117   2.390   8.527  0.00  0.00    +0.000 HD
ENDBRANCH  10  11
ENDBRANCH   9  10
ENDBRANCH   8   9
ENDBRANCH   5   8
ENDBRANCH   1   2
BRANCH   1  19
ATOM     17  O   UNL     1      50.174   6.425  15.411  0.00  0.00    +0.000 OA
ATOM     18  C   UNL     1      49.210   6.978  15.934  0.00  0.00    +0.000 C 
ATOM     19  N   UNL     1      48.047   7.233  15.251  0.00  0.00    +0.000 N 
ATOM     20  H   UNL     1      47.386   7.897  15.639  0.00  0.00    +0.000 HD
BRANCH  18  21
ATOM     21  C   UNL     1      49.222   7.376  17.344  0.00  0.00    +0.000 A 
ATOM     22  C   UNL     1      49.965   8.469  17.769  0.00  0.00    +0.000 A 
ATOM     23  S   UNL     1      49.843   8.758  19.449  0.00  0.00    +0.000 S 
ATOM     24  C   UNL     1      48.765   7.452  19.654  0.00  0.00    +0.000 A 
ATOM     25  N   UNL     1      48.244   7.148  20.871  0.00  0.00    +0.000 NA
ATOM     26  C   UNL     1      47.420   6.152  20.864  0.00  0.00    +0.000 A 
ATOM     27  N   UNL     1      47.076   5.427  19.751  0.00  0.00    +0.000 N 
ATOM     28  C   UNL     1      47.609   5.672  18.515  0.00  0.00    +0.000 A 
ATOM     29  O   UNL     1      47.330   4.956  17.554  0.00  0.00    +0.000 OA
ATOM     30  C   UNL     1      48.522   6.796  18.460  0.00  0.00    +0.000 A 
ATOM     31  H   UNL     1      46.440   4.647  19.813  0.00  0.00    +0.000 HD
ENDBRANCH  18  21
ENDBRANCH   1  19
TORSDOF 7
ENDMDL
MODEL 6
REMARK VINA RESULT:    -6.658      3.232      4.761
REMARK INTER + INTRA:         -10.487
REMARK INTER:                  -9.613
REMARK INTRA:                  -0.874
REMARK UNBOUND:                -1.104
REMARK  Name = 
REMARK  7 active torsions:
REMARK  status: ('A' for Active; 'I' for Inactive)
REMARK    1  A    between atoms: C_2  and  C_19
REMARK    2  A    between atoms: N_3  and  C_4
REMARK    3  A    between atoms: C_4  and  C_5
REMARK    4  A    between atoms: C_8  and  C_9
REMARK    5  A    between atoms: C_9  and  C_10
REMARK    6  A    between atoms: C_10  and  C_11
REMARK    7  A    between atoms: C_11  and  N_12
REMARK                            x       y       z     vdW  Elec       q    Type
REMARK                         _______ _______ _______ _____ _____    ______ ____
ROOT
ATOM      1  C   UNL     1      48.896   5.776  17.831  0.00  0.00    +0.000 C 
ENDROOT
BRANCH   1   2
ATOM      2  C   UNL     1      48.219   5.401  16.545  0.00  0.00    +0.000 A 
ATOM      3  C   UNL     1      48.292   6.214  15.413  0.00  0.00    +0.000 A 
ATOM      4  C   UNL     1      47.603   5.853  14.256  0.00  0.00    +0.000 A 
ATOM      5  C   UNL     1      46.867   4.673  14.249  0.00  0.00    +0.000 A 
ATOM      6  N   UNL     1      46.818   3.846  15.321  0.00  0.00    +0.000 NA
ATOM      7  C   UNL     1      47.488   4.225  16.434  0.00  0.00    +0.000 A 
BRANCH   5   8
ATOM      8  C   UNL     1      46.085   4.259  13.028  0.00  0.00    +0.000 C 
BRANCH   8   9
ATOM      9  C   UNL     1      44.745   4.994  12.896  0.00  0.00    +0.000 C 
BRANCH   9  10
ATOM     10  C   UNL     1      44.485   5.597  11.508  0.00  0.00    +0.000 C 
BRANCH  10  11
ATOM     11  N   UNL     1      43.798   4.698  10.573  0.00  0.00    +0.000 NA
ATOM     12  C   UNL     1      44.617   4.264   9.432  0.00  0.00    +0.000 C 
ATOM     13  C   UNL     1      44.393   2.761   9.345  0.00  0.00    +0.000 C 
ATOM     14  N   UNL     1      44.131   2.382  10.733  0.00  0.00    +0.000 NA
ATOM     15  C   UNL     1      43.320   3.486  11.230  0.00  0.00    +0.000 C 
ATOM     16  H   UNL     1      45.011   2.411  11.244  0.00  0.00    +0.000 HD
ENDBRANCH  10  11
ENDBRANCH   9  10
ENDBRANCH   8   9
ENDBRANCH   5   8
ENDBRANCH   1   2
BRANCH   1  19
ATOM     17  O   UNL     1      51.481   5.965  16.828  0.00  0.00    +0.000 OA
ATOM     18  C   UNL     1      51.238   5.093  17.657  0.00  0.00    +0.000 C 
ATOM     19  N   UNL     1      49.974   4.877  18.150  0.00  0.00    +0.000 N 
ATOM     20  H   UNL     1      49.865   4.327  18.994  0.00  0.00    +0.000 HD
BRANCH  18  21
ATOM     21  C   UNL     1      52.279   4.191  18.156  0.00  0.00    +0.000 A 
ATOM     22  C   UNL     1      53.349   4.679  18.894  0.00  0.00    +0.000 A 
ATOM     23  S   UNL     1      54.450   3.464  19.376  0.00  0.00    +0.000 S 
ATOM     24  C   UNL     1      53.512   2.243  18.641  0.00  0.00    +0.000 A 
ATOM     25  N   UNL     1      53.881   0.937  18.695  0.00  0.00    +0.000 NA
ATOM     26  C   UNL     1      53.056   0.126  18.120  0.00  0.00    +0.000 A 
ATOM     27  N   UNL     1      51.899   0.503  17.486  0.00  0.00    +0.000 N 
ATOM     28  C   UNL     1      51.511   1.811  17.371  0.00  0.00    +0.000 A 
ATOM     29  O   UNL     1      50.503   2.116  16.735  0.00  0.00    +0.000 OA
ATOM     30  C   UNL     1      52.389   2.763  18.021  0.00  0.00    +0.000 A 
ATOM     31  H   UNL     1      51.304  -0.177  17.038  0.00  0.00    +0.000 HD
ENDBRANCH  18  21
ENDBRANCH   1  19
TORSDOF 7
ENDMDL
MODEL 7
REMARK VINA RESULT:    -6.298      3.722      8.124
REMARK INTER + INTRA:          -9.980
REMARK INTER:                  -8.413
REMARK INTRA:                  -1.567
REMARK UNBOUND:                -1.104
REMARK  Name = 
REMARK  7 active torsions:
REMARK  status: ('A' for Active; 'I' for Inactive)
REMARK    1  A    between atoms: C_2  and  C_19
REMARK    2  A    between atoms: N_3  and  C_4
REMARK    3  A    between atoms: C_4  and  C_5
REMARK    4  A    between atoms: C_8  and  C_9
REMARK    5  A    between atoms: C_9  and  C_10
REMARK    6  A    between atoms: C_10  and  C_11
REMARK    7  A    between atoms: C_11  and  N_12
REMARK                            x       y       z     vdW  Elec       q    Type
REMARK                         _______ _______ _______ _____ _____    ______ ____
ROOT
ATOM      1  C   UNL     1      48.411   9.550  15.601  0.00  0.00    +0.000 C 
ENDROOT
BRANCH   1   2
ATOM      2  C   UNL     1      48.798   8.860  16.877  0.00  0.00    +0.000 A 
ATOM      3  C   UNL     1      50.029   8.218  17.019  0.00  0.00    +0.000 A 
ATOM      4  C   UNL     1      50.326   7.543  18.203  0.00  0.00    +0.000 A 
ATOM      5  C   UNL     1      49.389   7.541  19.231  0.00  0.00    +0.000 A 
ATOM      6  N   UNL     1      48.206   8.196  19.133  0.00  0.00    +0.000 NA
ATOM      7  C   UNL     1      47.941   8.834  17.969  0.00  0.00    +0.000 A 
BRANCH   5   8
ATOM      8  C   UNL     1      49.657   6.802  20.518  0.00  0.00    +0.000 C 
BRANCH   8   9
ATOM      9  C   UNL     1      49.945   5.311  20.303  0.00  0.00    +0.000 C 
BRANCH   9  10
ATOM     10  C   UNL     1      48.738   4.495  19.815  0.00  0.00    +0.000 C 
BRANCH  10  11
ATOM     11  N   UNL     1      48.622   4.393  18.356  0.00  0.00    +0.000 NA
ATOM     12  C   UNL     1      49.033   3.095  17.801  0.00  0.00    +0.000 C 
ATOM     13  C   UNL     1      47.923   2.721  16.829  0.00  0.00    +0.000 C 
ATOM     14  N   UNL     1      46.741   3.358  17.411  0.00  0.00    +0.000 NA
ATOM     15  C   UNL     1      47.258   4.631  17.897  0.00  0.00    +0.000 C 
ATOM     16  H   UNL     1      46.461   2.823  18.230  0.00  0.00    +0.000 HD
ENDBRANCH  10  11
ENDBRANCH   9  10
ENDBRANCH   8   9
ENDBRANCH   5   8
ENDBRANCH   1   2
BRANCH   1  19
ATOM     17  O   UNL     1      48.499   9.002  12.878  0.00  0.00    +0.000 OA
ATOM     18  C   UNL     1      47.578   8.532  13.540  0.00  0.00    +0.000 C 
ATOM     19  N   UNL     1      47.412   8.811  14.875  0.00  0.00    +0.000 N 
ATOM     20  H   UNL     1      46.800   8.221  15.427  0.00  0.00    +0.000 HD
BRANCH  18  21
ATOM     21  C   UNL     1      46.564   7.661  12.941  0.00  0.00    +0.000 A 
ATOM     22  C   UNL     1      45.604   8.175  12.080  0.00  0.00    +0.000 A 
ATOM     23  S   UNL     1      44.516   6.993  11.495  0.00  0.00    +0.000 S 
ATOM     24  C   UNL     1      45.316   5.752  12.349  0.00  0.00    +0.000 A 
ATOM     25  N   UNL     1      44.904   4.460  12.273  0.00  0.00    +0.000 NA
ATOM     26  C   UNL     1      45.626   3.630  12.949  0.00  0.00    +0.000 A 
ATOM     27  N   UNL     1      46.719   3.975  13.704  0.00  0.00    +0.000 N 
ATOM     28  C   UNL     1      47.144   5.268  13.843  0.00  0.00    +0.000 A 
ATOM     29  O   UNL     1      48.085   5.548  14.584  0.00  0.00    +0.000 OA
ATOM     30  C   UNL     1      46.383   6.240  13.084  0.00  0.00    +0.000 A 
ATOM     31  H   UNL     1      47.233   3.282  14.226  0.00  0.00    +0.000 HD
ENDBRANCH  18  21
ENDBRANCH   1  19
TORSDOF 7
ENDMDL
MODEL 8
REMARK VINA RESULT:    -6.228      1.964      2.923
REMARK INTER + INTRA:          -9.881
REMARK INTER:                  -8.597
REMARK INTRA:                  -1.283
REMARK UNBOUND:                -1.104
REMARK  Name = 
REMARK  7 active torsions:
REMARK  status: ('A' for Active; 'I' for Inactive)
REMARK    1  A    between atoms: C_2  and  C_19
REMARK    2  A    between atoms: N_3  and  C_4
REMARK    3  A    between atoms: C_4  and  C_5
REMARK    4  A    between atoms: C_8  and  C_9
REMARK    5  A    between atoms: C_9  and  C_10
REMARK    6  A    between atoms: C_10  and  C_11
REMARK    7  A    between atoms: C_11  and  N_12
REMARK                            x       y       z     vdW  Elec       q    Type
REMARK                         _______ _______ _______ _____ _____    ______ ____
ROOT
ATOM      1  C   UNL     1      49.331   8.117  13.914  0.00  0.00    +0.000 C 
ENDROOT
BRANCH   1   2
ATOM      2  C   UNL     1      48.053   7.827  13.182  0.00  0.00    +0.000 A 
ATOM      3  C   UNL     1      47.996   6.888  12.151  0.00  0.00    +0.000 A 
ATOM      4  C   UNL     1      46.800   6.688  11.462  0.00  0.00    +0.000 A 
ATOM      5  C   UNL     1      45.678   7.421  11.832  0.00  0.00    +0.000 A 
ATOM      6  N   UNL     1      45.698   8.306  12.859  0.00  0.00    +0.000 NA
ATOM      7  C   UNL     1      46.874   8.486  13.504  0.00  0.00    +0.000 A 
BRANCH   5   8
ATOM      8  C   UNL     1      44.372   7.257  11.096  0.00  0.00    +0.000 C 
BRANCH   8   9
ATOM      9  C   UNL     1      43.488   6.149  11.683  0.00  0.00    +0.000 C 
BRANCH   9  10
ATOM     10  C   UNL     1      43.246   4.962  10.737  0.00  0.00    +0.000 C 
BRANCH  10  11
ATOM     11  N   UNL     1      44.469   4.323  10.236  0.00  0.00    +0.000 NA
ATOM     12  C   UNL     1      44.610   2.907  10.603  0.00  0.00    +0.000 C 
ATOM     13  C   UNL     1      45.014   2.211   9.311  0.00  0.00    +0.000 C 
ATOM     14  N   UNL     1      44.385   3.035   8.278  0.00  0.00    +0.000 NA
ATOM     15  C   UNL     1      44.565   4.390   8.781  0.00  0.00    +0.000 C 
ATOM     16  H   UNL     1      43.385   2.848   8.286  0.00  0.00    +0.000 HD
ENDBRANCH  10  11
ENDBRANCH   9  10
ENDBRANCH   8   9
ENDBRANCH   5   8
ENDBRANCH   1   2
BRANCH   1  19
ATOM     17  O   UNL     1      48.622   8.658  16.546  0.00  0.00    +0.000 OA
ATOM     18  C   UNL     1      49.081   7.550  16.280  0.00  0.00    +0.000 C 
ATOM     19  N   UNL     1      49.527   7.221  15.024  0.00  0.00    +0.000 N 
ATOM     20  H   UNL     1      49.663   6.243  14.793  0.00  0.00    +0.000 HD
BRANCH  18  21
ATOM     21  C   UNL     1      49.216   6.507  17.299  0.00  0.00    +0.000 A 
ATOM     22  C   UNL     1      49.933   6.740  18.465  0.00  0.00    +0.000 A 
ATOM     23  S   UNL     1      49.971   5.393  19.516  0.00  0.00    +0.000 S 
ATOM     24  C   UNL     1      49.001   4.469  18.461  0.00  0.00    +0.000 A 
ATOM     25  N   UNL     1      48.630   3.199  18.768  0.00  0.00    +0.000 NA
ATOM     26  C   UNL     1      47.872   2.637  17.886  0.00  0.00    +0.000 A 
ATOM     27  N   UNL     1      47.457   3.226  16.718  0.00  0.00    +0.000 N 
ATOM     28  C   UNL     1      47.841   4.487  16.349  0.00  0.00    +0.000 A 
ATOM     29  O   UNL     1      47.506   4.956  15.262  0.00  0.00    +0.000 OA
ATOM     30  C   UNL     1      48.674   5.173  17.315  0.00  0.00    +0.000 A 
ATOM     31  H   UNL     1      46.879   2.728  16.059  0.00  0.00    +0.000 HD
ENDBRANCH  18  21
ENDBRANCH   1  19
TORSDOF 7
ENDMDL
MODEL 9
REMARK VINA RESULT:    -5.808      2.597      3.476
REMARK INTER + INTRA:          -9.290
REMARK INTER:                  -8.372
REMARK INTRA:                  -0.917
REMARK UNBOUND:                -1.104
REMARK  Name = 
REMARK  7 active torsions:
REMARK  status: ('A' for Active; 'I' for Inactive)
REMARK    1  A    between atoms: C_2  and  C_19
REMARK    2  A    between atoms: N_3  and  C_4
REMARK    3  A    between atoms: C_4  and  C_5
REMARK    4  A    between atoms: C_8  and  C_9
REMARK    5  A    between atoms: C_9  and  C_10
REMARK    6  A    between atoms: C_10  and  C_11
REMARK    7  A    between atoms: C_11  and  N_12
REMARK                            x       y       z     vdW  Elec       q    Type
REMARK                         _______ _______ _______ _____ _____    ______ ____
ROOT
ATOM      1  C   UNL     1      47.981   5.520  14.647  0.00  0.00    +0.000 C 
ENDROOT
BRANCH   1   2
ATOM      2  C   UNL     1      46.907   5.470  13.600  0.00  0.00    +0.000 A 
ATOM      3  C   UNL     1      46.806   6.444  12.605  0.00  0.00    +0.000 A 
ATOM      4  C   UNL     1      45.760   6.388  11.685  0.00  0.00    +0.000 A 
ATOM      5  C   UNL     1      44.844   5.344  11.767  0.00  0.00    +0.000 A 
ATOM      6  N   UNL     1      44.948   4.363  12.696  0.00  0.00    +0.000 NA
ATOM      7  C   UNL     1      45.967   4.447  13.582  0.00  0.00    +0.000 A 
BRANCH   5   8
ATOM      8  C   UNL     1      43.682   5.260  10.809  0.00  0.00    +0.000 C 
BRANCH   8   9
ATOM      9  C   UNL     1      43.856   4.163   9.751  0.00  0.00    +0.000 C 
BRANCH   9  10
ATOM     10  C   UNL     1      45.072   4.354   8.832  0.00  0.00    +0.000 C 
BRANCH  10  11
ATOM     11  N   UNL     1      45.240   3.305   7.820  0.00  0.00    +0.000 NA
ATOM     12  C   UNL     1      46.561   3.285   7.176  0.00  0.00    +0.000 C 
ATOM     13  C   UNL     1      46.979   1.822   7.195  0.00  0.00    +0.000 C 
ATOM     14  N   UNL     1      46.318   1.302   8.392  0.00  0.00    +0.000 NA
ATOM     15  C   UNL     1      45.024   1.971   8.371  0.00  0.00    +0.000 C 
ATOM     16  H   UNL     1      46.815   1.649   9.209  0.00  0.00    +0.000 HD
ENDBRANCH  10  11
ENDBRANCH   9  10
ENDBRANCH   8   9
ENDBRANCH   5   8
ENDBRANCH   1   2
BRANCH   1  19
ATOM     17  O   UNL     1      50.222   6.838  15.628  0.00  0.00    +0.000 OA
ATOM     18  C   UNL     1      49.124   7.370  15.766  0.00  0.00    +0.000 C 
ATOM     19  N   UNL     1      47.956   6.758  15.381  0.00  0.00    +0.000 N 
ATOM     20  H   UNL     1      47.117   7.320  15.286  0.00  0.00    +0.000 HD
BRANCH  18  21
ATOM     21  C   UNL     1      48.978   8.689  16.388  0.00  0.00    +0.000 A 
ATOM     22  C   UNL     1      49.409   9.835  15.734  0.00  0.00    +0.000 A 
ATOM     23  S   UNL     1      49.150  11.265  16.633  0.00  0.00    +0.000 S 
ATOM     24  C   UNL     1      48.421  10.398  17.909  0.00  0.00    +0.000 A 
ATOM     25  N   UNL     1      47.942  11.031  19.012  0.00  0.00    +0.000 NA
ATOM     26  C   UNL     1      47.392  10.246  19.879  0.00  0.00    +0.000 A 
ATOM     27  N   UNL     1      47.285   8.884  19.748  0.00  0.00    +0.000 N 
ATOM     28  C   UNL     1      47.791   8.202  18.675  0.00  0.00    +0.000 A 
ATOM     29  O   UNL     1      47.738   6.974  18.624  0.00  0.00    +0.000 OA
ATOM     30  C   UNL     1      48.399   9.038  17.658  0.00  0.00    +0.000 A 
ATOM     31  H   UNL     1      46.859   8.322  20.469  0.00  0.00    +0.000 HD
ENDBRANCH  18  21
ENDBRANCH   1  19
TORSDOF 7
ENDMDL
