MODEL 1
REMARK VINA RESULT:    -7.473      0.000      0.000
REMARK INTER + INTRA:         -10.125
REMARK INTER:                  -9.657
REMARK INTRA:                  -0.468
REMARK UNBOUND:                -0.468
REMARK  Name = 
REMARK  6 active torsions:
REMARK  status: ('A' for Active; 'I' for Inactive)
REMARK    1  A    between atoms: N_1  and  C_2
REMARK    2  A    between atoms: C_2  and  C_3
REMARK    3  A    between atoms: C_6  and  O_7
REMARK    4  A    between atoms: O_7  and  C_8
REMARK    5  A    between atoms: C_8  and  C_9
REMARK    6  A    between atoms: C_11  and  N_12
REMARK                            x       y       z     vdW  Elec       q    Type
REMARK                         _______ _______ _______ _____ _____    ______ ____
ROOT
ATOM      1  O   UNL     1      43.748   4.028  10.124  0.00  0.00    +0.000 OA
ENDROOT
BRANCH   1   5
ATOM      2  C   UNL     1      46.575   2.299   7.583  0.00  0.00    +0.000 A 
ATOM      3  C   UNL     1      45.761   1.526   8.423  0.00  0.00    +0.000 A 
ATOM      4  C   UNL     1      44.803   2.134   9.238  0.00  0.00    +0.000 A 
ATOM      5  C   UNL     1      44.656   3.521   9.232  0.00  0.00    +0.000 A 
ATOM      6  C   UNL     1      45.420   4.290   8.354  0.00  0.00    +0.000 A 
ATOM      7  C   UNL     1      46.382   3.684   7.544  0.00  0.00    +0.000 A 
BRANCH   2   8
ATOM      8  C   UNL     1      47.655   1.661   6.750  0.00  0.00    +0.000 C 
BRANCH   8   9
ATOM      9  N   UNL     1      48.655   2.634   6.331  0.00  0.00    +0.000 NA
ATOM     10  H   UNL     1      48.303   3.570   6.514  0.00  0.00    +0.000 HD
ATOM     11  H   UNL     1      48.776   2.562   5.322  0.00  0.00    +0.000 HD
ENDBRANCH   8   9
ENDBRANCH   2   8
ENDBRANCH   1   5
BRANCH   1  12
ATOM     12  C   UNL     1      43.792   3.429  11.425  0.00  0.00    +0.000 C 
BRANCH  12  13
ATOM     13  C   UNL     1      44.865   4.050  12.287  0.00  0.00    +0.000 A 
ATOM     14  C   UNL     1      44.976   5.432  12.416  0.00  0.00    +0.000 A 
ATOM     15  C   UNL     1      45.978   5.963  13.225  0.00  0.00    +0.000 A 
ATOM     16  C   UNL     1      46.911   5.094  13.775  0.00  0.00    +0.000 A 
ATOM     17  C   UNL     1      46.747   3.733  13.586  0.00  0.00    +0.000 A 
ATOM     18  N   UNL     1      45.746   3.192  12.864  0.00  0.00    +0.000 NA
BRANCH  15  19
ATOM     19  N   UNL     1      46.173   7.349  13.285  0.00  0.00    +0.000 N 
ATOM     20  H   UNL     1      45.584   7.868  12.640  0.00  0.00    +0.000 HD
ATOM     21  H   UNL     1      46.131   7.728  14.226  0.00  0.00    +0.000 HD
ENDBRANCH  15  19
ENDBRANCH  12  13
ENDBRANCH   1  12
TORSDOF 6
ENDMDL
MODEL 2
REMARK VINA RESULT:    -7.431      0.879      2.003
REMARK INTER + INTRA:         -10.071
REMARK INTER:                  -9.610
REMARK INTRA:                  -0.461
REMARK UNBOUND:                -0.468
REMARK  Name = 
REMARK  6 active torsions:
REMARK  status: ('A' for Active; 'I' for Inactive)
REMARK    1  A    between atoms: N_1  and  C_2
REMARK    2  A    between atoms: C_2  and  C_3
REMARK    3  A    between atoms: C_6  and  O_7
REMARK    4  A    between atoms: O_7  and  C_8
REMARK    5  A    between atoms: C_8  and  C_9
REMARK    6  A    between atoms: C_11  and  N_12
REMARK                            x       y       z     vdW  Elec       q    Type
REMARK                         _______ _______ _______ _____ _____    ______ ____
ROOT
ATOM      1  O   UNL     1      43.553   4.376   9.771  0.00  0.00    +0.000 OA
ENDROOT
BRANCH   1   5
ATOM      2  C   UNL     1      46.509   2.319   7.657  0.00  0.00    +0.000 A 
ATOM      3  C   UNL     1      46.377   3.714   7.582  0.00  0.00    +0.000 A 
ATOM      4  C   UNL     1      45.396   4.374   8.327  0.00  0.00    +0.000 A 
ATOM      5  C   UNL     1      44.530   3.649   9.145  0.00  0.00    +0.000 A 
ATOM      6  C   UNL     1      44.696   2.270   9.270  0.00  0.00    +0.000 A 
ATOM      7  C   UNL     1      45.670   1.608   8.522  0.00  0.00    +0.000 A 
BRANCH   2   8
ATOM      8  C   UNL     1      47.517   1.590   6.809  0.00  0.00    +0.000 C 
BRANCH   8   9
ATOM      9  N   UNL     1      48.603   2.467   6.393  0.00  0.00    +0.000 NA
ATOM     10  H   UNL     1      49.281   1.925   5.863  0.00  0.00    +0.000 HD
ATOM     11  H   UNL     1      49.087   2.803   7.225  0.00  0.00    +0.000 HD
ENDBRANCH   8   9
ENDBRANCH   2   8
ENDBRANCH   1   5
BRANCH   1  12
ATOM     12  C   UNL     1      43.388   4.079  11.163  0.00  0.00    +0.000 C 
BRANCH  12  13
ATOM     13  C   UNL     1      44.574   4.542  11.975  0.00  0.00    +0.000 A 
ATOM     14  C   UNL     1      45.366   3.636  12.675  0.00  0.00    +0.000 A 
ATOM     15  C   UNL     1      46.454   4.105  13.408  0.00  0.00    +0.000 A 
ATOM     16  C   UNL     1      46.633   5.478  13.517  0.00  0.00    +0.000 A 
ATOM     17  C   UNL     1      45.792   6.318  12.808  0.00  0.00    +0.000 A 
ATOM     18  N   UNL     1      44.775   5.884  12.037  0.00  0.00    +0.000 NA
BRANCH  15  19
ATOM     19  N   UNL     1      47.199   3.225  14.203  0.00  0.00    +0.000 N 
ATOM     20  H   UNL     1      47.621   3.671  15.013  0.00  0.00    +0.000 HD
ATOM     21  H   UNL     1      46.701   2.377  14.455  0.00  0.00    +0.000 HD
ENDBRANCH  15  19
ENDBRANCH  12  13
ENDBRANCH   1  12
TORSDOF 6
ENDMDL
MODEL 3
REMARK VINA RESULT:    -6.923      1.557      6.009
REMARK INTER + INTRA:          -9.415
REMARK INTER:                  -9.059
REMARK INTRA:                  -0.356
REMARK UNBOUND:                -0.468
REMARK  Name = 
REMARK  6 active torsions:
REMARK  status: ('A' for Active; 'I' for Inactive)
REMARK    1  A    between atoms: N_1  and  C_2
REMARK    2  A    between atoms: C_2  and  C_3
REMARK    3  A    between atoms: C_6  and  O_7
REMARK    4  A    between atoms: O_7  and  C_8
REMARK    5  A    between atoms: C_8  and  C_9
REMARK    6  A    between atoms: C_11  and  N_12
REMARK                            x       y       z     vdW  Elec       q    Type
REMARK                         _______ _______ _______ _____ _____    ______ ____
ROOT
ATOM      1  O   UNL     1      44.112   3.594   9.960  0.00  0.00    +0.000 OA
ENDROOT
BRANCH   1   5
ATOM      2  C   UNL     1      46.521   5.340  12.890  0.00  0.00    +0.000 A 
ATOM      3  C   UNL     1      46.110   6.046  11.750  0.00  0.00    +0.000 A 
ATOM      4  C   UNL     1      45.278   5.441  10.804  0.00  0.00    +0.000 A 
ATOM      5  C   UNL     1      44.857   4.123  10.980  0.00  0.00    +0.000 A 
ATOM      6  C   UNL     1      45.213   3.437  12.141  0.00  0.00    +0.000 A 
ATOM      7  C   UNL     1      46.049   4.037  13.084  0.00  0.00    +0.000 A 
BRANCH   2   8
ATOM      8  C   UNL     1      47.470   5.957  13.882  0.00  0.00    +0.000 C 
BRANCH   8   9
ATOM      9  N   UNL     1      47.557   5.169  15.105  0.00  0.00    +0.000 NA
ATOM     10  H   UNL     1      47.492   4.183  14.867  0.00  0.00    +0.000 HD
ATOM     11  H   UNL     1      46.748   5.382  15.687  0.00  0.00    +0.000 HD
ENDBRANCH   8   9
ENDBRANCH   2   8
ENDBRANCH   1   5
BRANCH   1  12
ATOM     12  C   UNL     1      44.527   3.995   8.648  0.00  0.00    +0.000 C 
BRANCH  12  13
ATOM     13  C   UNL     1      45.547   3.043   8.071  0.00  0.00    +0.000 A 
ATOM     14  C   UNL     1      46.393   3.435   7.037  0.00  0.00    +0.000 A 
ATOM     15  C   UNL     1      47.324   2.528   6.536  0.00  0.00    +0.000 A 
ATOM     16  C   UNL     1      47.286   1.220   7.004  0.00  0.00    +0.000 A 
ATOM     17  C   UNL     1      46.403   0.900   8.019  0.00  0.00    +0.000 A 
ATOM     18  N   UNL     1      45.541   1.780   8.568  0.00  0.00    +0.000 NA
BRANCH  15  19
ATOM     19  N   UNL     1      48.110   2.865   5.427  0.00  0.00    +0.000 N 
ATOM     20  H   UNL     1      48.651   3.715   5.560  0.00  0.00    +0.000 HD
ATOM     21  H   UNL     1      48.683   2.101   5.084  0.00  0.00    +0.000 HD
ENDBRANCH  15  19
ENDBRANCH  12  13
ENDBRANCH   1  12
TORSDOF 6
ENDMDL
MODEL 4
REMARK VINA RESULT:    -6.561      1.855      5.964
REMARK INTER + INTRA:          -8.947
REMARK INTER:                  -8.598
REMARK INTRA:                  -0.349
REMARK UNBOUND:                -0.468
REMARK  Name = 
REMARK  6 active torsions:
REMARK  status: ('A' for Active; 'I' for Inactive)
REMARK    1  A    between atoms: N_1  and  C_2
REMARK    2  A    between atoms: C_2  and  C_3
REMARK    3  A    between atoms: C_6  and  O_7
REMARK    4  A    between atoms: O_7  and  C_8
REMARK    5  A    between atoms: C_8  and  C_9
REMARK    6  A    between atoms: C_11  and  N_12
REMARK                            x       y       z     vdW  Elec       q    Type
REMARK                         _______ _______ _______ _____ _____    ______ ____
ROOT
ATOM      1  O   UNL     1      44.393   3.406  10.835  0.00  0.00    +0.000 OA
ENDROOT
BRANCH   1   5
ATOM      2  C   UNL     1      46.992   5.715  13.148  0.00  0.00    +0.000 A 
ATOM      3  C   UNL     1      46.400   6.212  11.978  0.00  0.00    +0.000 A 
ATOM      4  C   UNL     1      45.510   5.423  11.244  0.00  0.00    +0.000 A 
ATOM      5  C   UNL     1      45.211   4.128  11.664  0.00  0.00    +0.000 A 
ATOM      6  C   UNL     1      45.749   3.650  12.859  0.00  0.00    +0.000 A 
ATOM      7  C   UNL     1      46.643   4.434  13.590  0.00  0.00    +0.000 A 
BRANCH   2   8
ATOM      8  C   UNL     1      48.003   6.530  13.911  0.00  0.00    +0.000 C 
BRANCH   8   9
ATOM      9  N   UNL     1      49.273   6.611  13.202  0.00  0.00    +0.000 NA
ATOM     10  H   UNL     1      49.787   5.745  13.345  0.00  0.00    +0.000 HD
ATOM     11  H   UNL     1      49.832   7.353  13.621  0.00  0.00    +0.000 HD
ENDBRANCH   8   9
ENDBRANCH   2   8
ENDBRANCH   1   5
BRANCH   1  12
ATOM     12  C   UNL     1      44.294   3.918   9.501  0.00  0.00    +0.000 C 
BRANCH  12  13
ATOM     13  C   UNL     1      45.303   3.273   8.581  0.00  0.00    +0.000 A 
ATOM     14  C   UNL     1      45.532   1.900   8.614  0.00  0.00    +0.000 A 
ATOM     15  C   UNL     1      46.468   1.343   7.745  0.00  0.00    +0.000 A 
ATOM     16  C   UNL     1      47.231   2.200   6.962  0.00  0.00    +0.000 A 
ATOM     17  C   UNL     1      46.959   3.556   6.999  0.00  0.00    +0.000 A 
ATOM     18  N   UNL     1      46.011   4.110   7.780  0.00  0.00    +0.000 NA
BRANCH  15  19
ATOM     19  N   UNL     1      46.790  -0.017   7.834  0.00  0.00    +0.000 N 
ATOM     20  H   UNL     1      46.454  -0.564   7.046  0.00  0.00    +0.000 HD
ATOM     21  H   UNL     1      47.771  -0.193   8.028  0.00  0.00    +0.000 HD
ENDBRANCH  15  19
ENDBRANCH  12  13
ENDBRANCH   1  12
TORSDOF 6
ENDMDL
MODEL 5
REMARK VINA RESULT:    -6.384      1.714      6.179
REMARK INTER + INTRA:          -8.718
REMARK INTER:                  -8.405
REMARK INTRA:                  -0.313
REMARK UNBOUND:                -0.468
REMARK  Name = 
REMARK  6 active torsions:
REMARK  status: ('A' for Active; 'I' for Inactive)
REMARK    1  A    between atoms: N_1  and  C_2
REMARK    2  A    between atoms: C_2  and  C_3
REMARK    3  A    between atoms: C_6  and  O_7
REMARK    4  A    between atoms: O_7  and  C_8
REMARK    5  A    between atoms: C_8  and  C_9
REMARK    6  A    between atoms: C_11  and  N_12
REMARK                            x       y       z     vdW  Elec       q    Type
REMARK                         _______ _______ _______ _____ _____    ______ ____
ROOT
ATOM      1  O   UNL     1      44.675   3.360  11.340  0.00  0.00    +0.000 OA
ENDROOT
BRANCH   1   5
ATOM      2  C   UNL     1      46.727   6.581  13.029  0.00  0.00    +0.000 A 
ATOM      3  C   UNL     1      45.827   6.749  11.966  0.00  0.00    +0.000 A 
ATOM      4  C   UNL     1      45.133   5.654  11.445  0.00  0.00    +0.000 A 
ATOM      5  C   UNL     1      45.339   4.379  11.970  0.00  0.00    +0.000 A 
ATOM      6  C   UNL     1      46.187   4.215  13.066  0.00  0.00    +0.000 A 
ATOM      7  C   UNL     1      46.885   5.307  13.584  0.00  0.00    +0.000 A 
BRANCH   2   8
ATOM      8  C   UNL     1      47.530   7.741  13.554  0.00  0.00    +0.000 C 
BRANCH   8   9
ATOM      9  N   UNL     1      46.670   8.810  14.045  0.00  0.00    +0.000 NA
ATOM     10  H   UNL     1      47.251   9.563  14.405  0.00  0.00    +0.000 HD
ATOM     11  H   UNL     1      46.131   8.458  14.835  0.00  0.00    +0.000 HD
ENDBRANCH   8   9
ENDBRANCH   2   8
ENDBRANCH   1   5
BRANCH   1  12
ATOM     12  C   UNL     1      44.194   3.683  10.029  0.00  0.00    +0.000 C 
BRANCH  12  13
ATOM     13  C   UNL     1      45.163   3.247   8.957  0.00  0.00    +0.000 A 
ATOM     14  C   UNL     1      45.511   1.907   8.803  0.00  0.00    +0.000 A 
ATOM     15  C   UNL     1      46.406   1.546   7.798  0.00  0.00    +0.000 A 
ATOM     16  C   UNL     1      47.016   2.556   7.065  0.00  0.00    +0.000 A 
ATOM     17  C   UNL     1      46.634   3.867   7.290  0.00  0.00    +0.000 A 
ATOM     18  N   UNL     1      45.720   4.234   8.209  0.00  0.00    +0.000 NA
BRANCH  15  19
ATOM     19  N   UNL     1      46.850   0.222   7.693  0.00  0.00    +0.000 N 
ATOM     20  H   UNL     1      46.967  -0.090   6.732  0.00  0.00    +0.000 HD
ATOM     21  H   UNL     1      47.667   0.018   8.260  0.00  0.00    +0.000 HD
ENDBRANCH  15  19
ENDBRANCH  12  13
ENDBRANCH   1  12
TORSDOF 6
ENDMDL
MODEL 6
REMARK VINA RESULT:    -6.064      1.748      5.635
REMARK INTER + INTRA:          -8.304
REMARK INTER:                  -7.890
REMARK INTRA:                  -0.414
REMARK UNBOUND:                -0.468
REMARK  Name = 
REMARK  6 active torsions:
REMARK  status: ('A' for Active; 'I' for Inactive)
REMARK    1  A    between atoms: N_1  and  C_2
REMARK    2  A    between atoms: C_2  and  C_3
REMARK    3  A    between atoms: C_6  and  O_7
REMARK    4  A    between atoms: O_7  and  C_8
REMARK    5  A    between atoms: C_8  and  C_9
REMARK    6  A    between atoms: C_11  and  N_12
REMARK                            x       y       z     vdW  Elec       q    Type
REMARK                         _______ _______ _______ _____ _____    ______ ____
ROOT
ATOM      1  O   UNL     1      44.010   4.542  11.797  0.00  0.00    +0.000 OA
ENDROOT
BRANCH   1   5
ATOM      2  C   UNL     1      47.468   6.355  13.278  0.00  0.00    +0.000 A 
ATOM      3  C   UNL     1      46.680   6.958  12.286  0.00  0.00    +0.000 A 
ATOM      4  C   UNL     1      45.512   6.338  11.835  0.00  0.00    +0.000 A 
ATOM      5  C   UNL     1      45.124   5.106  12.360  0.00  0.00    +0.000 A 
ATOM      6  C   UNL     1      45.870   4.531  13.389  0.00  0.00    +0.000 A 
ATOM      7  C   UNL     1      47.040   5.146  13.836  0.00  0.00    +0.000 A 
BRANCH   2   8
ATOM      8  C   UNL     1      48.763   6.980  13.724  0.00  0.00    +0.000 C 
BRANCH   8   9
ATOM      9  N   UNL     1      49.797   6.860  12.705  0.00  0.00    +0.000 NA
ATOM     10  H   UNL     1      49.829   5.898  12.378  0.00  0.00    +0.000 HD
ATOM     11  H   UNL     1      50.701   7.051  13.135  0.00  0.00    +0.000 HD
ENDBRANCH   8   9
ENDBRANCH   2   8
ENDBRANCH   1   5
BRANCH   1  12
ATOM     12  C   UNL     1      43.841   4.820  10.401  0.00  0.00    +0.000 C 
BRANCH  12  13
ATOM     13  C   UNL     1      44.691   3.912   9.546  0.00  0.00    +0.000 A 
ATOM     14  C   UNL     1      45.557   4.430   8.586  0.00  0.00    +0.000 A 
ATOM     15  C   UNL     1      46.327   3.557   7.820  0.00  0.00    +0.000 A 
ATOM     16  C   UNL     1      46.108   2.192   7.957  0.00  0.00    +0.000 A 
ATOM     17  C   UNL     1      45.216   1.753   8.919  0.00  0.00    +0.000 A 
ATOM     18  N   UNL     1      44.511   2.577   9.719  0.00  0.00    +0.000 NA
BRANCH  15  19
ATOM     19  N   UNL     1      47.124   4.049   6.778  0.00  0.00    +0.000 N 
ATOM     20  H   UNL     1      47.989   4.475   7.099  0.00  0.00    +0.000 HD
ATOM     21  H   UNL     1      47.284   3.378   6.034  0.00  0.00    +0.000 HD
ENDBRANCH  15  19
ENDBRANCH  12  13
ENDBRANCH   1  12
TORSDOF 6
ENDMDL
MODEL 7
REMARK VINA RESULT:    -5.875      3.931      7.800
REMARK INTER + INTRA:          -8.060
REMARK INTER:                  -7.795
REMARK INTRA:                  -0.265
REMARK UNBOUND:                -0.468
REMARK  Name = 
REMARK  6 active torsions:
REMARK  status: ('A' for Active; 'I' for Inactive)
REMARK    1  A    between atoms: N_1  and  C_2
REMARK    2  A    between atoms: C_2  and  C_3
REMARK    3  A    between atoms: C_6  and  O_7
REMARK    4  A    between atoms: O_7  and  C_8
REMARK    5  A    between atoms: C_8  and  C_9
REMARK    6  A    between atoms: C_11  and  N_12
REMARK                            x       y       z     vdW  Elec       q    Type
REMARK                         _______ _______ _______ _____ _____    ______ ____
ROOT
ATOM      1  O   UNL     1      46.934   3.804  14.722  0.00  0.00    +0.000 OA
ENDROOT
BRANCH   1   5
ATOM      2  C   UNL     1      48.636   4.483  18.475  0.00  0.00    +0.000 A 
ATOM      3  C   UNL     1      48.136   3.227  18.103  0.00  0.00    +0.000 A 
ATOM      4  C   UNL     1      47.600   3.026  16.828  0.00  0.00    +0.000 A 
ATOM      5  C   UNL     1      47.549   4.079  15.915  0.00  0.00    +0.000 A 
ATOM      6  C   UNL     1      48.101   5.313  16.258  0.00  0.00    +0.000 A 
ATOM      7  C   UNL     1      48.629   5.517  17.533  0.00  0.00    +0.000 A 
BRANCH   2   8
ATOM      8  C   UNL     1      49.154   4.729  19.867  0.00  0.00    +0.000 C 
BRANCH   8   9
ATOM      9  N   UNL     1      48.452   3.917  20.853  0.00  0.00    +0.000 NA
ATOM     10  H   UNL     1      49.131   3.361  21.366  0.00  0.00    +0.000 HD
ATOM     11  H   UNL     1      47.849   3.259  20.361  0.00  0.00    +0.000 HD
ENDBRANCH   8   9
ENDBRANCH   2   8
ENDBRANCH   1   5
BRANCH   1  12
ATOM     12  C   UNL     1      46.449   4.958  14.023  0.00  0.00    +0.000 C 
BRANCH  12  13
ATOM     13  C   UNL     1      45.250   4.627  13.168  0.00  0.00    +0.000 A 
ATOM     14  C   UNL     1      44.305   5.598  12.847  0.00  0.00    +0.000 A 
ATOM     15  C   UNL     1      43.215   5.252  12.051  0.00  0.00    +0.000 A 
ATOM     16  C   UNL     1      43.045   3.916  11.710  0.00  0.00    +0.000 A 
ATOM     17  C   UNL     1      44.017   3.004  12.083  0.00  0.00    +0.000 A 
ATOM     18  N   UNL     1      45.115   3.328  12.794  0.00  0.00    +0.000 NA
BRANCH  15  19
ATOM     19  N   UNL     1      42.199   6.184  11.804  0.00  0.00    +0.000 N 
ATOM     20  H   UNL     1      42.061   6.379  10.816  0.00  0.00    +0.000 HD
ATOM     21  H   UNL     1      41.324   5.970  12.273  0.00  0.00    +0.000 HD
ENDBRANCH  15  19
ENDBRANCH  12  13
ENDBRANCH   1  12
TORSDOF 6
ENDMDL
MODEL 8
REMARK VINA RESULT:    -5.578      3.969      5.433
REMARK INTER + INTRA:          -7.677
REMARK INTER:                  -7.393
REMARK INTRA:                  -0.284
REMARK UNBOUND:                -0.468
REMARK  Name = 
REMARK  6 active torsions:
REMARK  status: ('A' for Active; 'I' for Inactive)
REMARK    1  A    between atoms: N_1  and  C_2
REMARK    2  A    between atoms: C_2  and  C_3
REMARK    3  A    between atoms: C_6  and  O_7
REMARK    4  A    between atoms: O_7  and  C_8
REMARK    5  A    between atoms: C_8  and  C_9
REMARK    6  A    between atoms: C_11  and  N_12
REMARK                            x       y       z     vdW  Elec       q    Type
REMARK                         _______ _______ _______ _____ _____    ______ ____
ROOT
ATOM      1  O   UNL     1      47.558   5.177  14.361  0.00  0.00    +0.000 OA
ENDROOT
BRANCH   1   5
ATOM      2  C   UNL     1      45.131   4.673  11.000  0.00  0.00    +0.000 A 
ATOM      3  C   UNL     1      45.178   3.723  12.031  0.00  0.00    +0.000 A 
ATOM      4  C   UNL     1      45.978   3.938  13.156  0.00  0.00    +0.000 A 
ATOM      5  C   UNL     1      46.747   5.096  13.260  0.00  0.00    +0.000 A 
ATOM      6  C   UNL     1      46.656   6.073  12.268  0.00  0.00    +0.000 A 
ATOM      7  C   UNL     1      45.863   5.857  11.140  0.00  0.00    +0.000 A 
BRANCH   2   8
ATOM      8  C   UNL     1      44.325   4.423   9.753  0.00  0.00    +0.000 C 
BRANCH   8   9
ATOM      9  N   UNL     1      45.101   4.694   8.550  0.00  0.00    +0.000 NA
ATOM     10  H   UNL     1      46.089   4.586   8.762  0.00  0.00    +0.000 HD
ATOM     11  H   UNL     1      44.965   5.670   8.288  0.00  0.00    +0.000 HD
ENDBRANCH   8   9
ENDBRANCH   2   8
ENDBRANCH   1   5
BRANCH   1  12
ATOM     12  C   UNL     1      47.163   4.341  15.456  0.00  0.00    +0.000 C 
BRANCH  12  13
ATOM     13  C   UNL     1      48.127   4.445  16.612  0.00  0.00    +0.000 A 
ATOM     14  C   UNL     1      47.849   3.845  17.838  0.00  0.00    +0.000 A 
ATOM     15  C   UNL     1      48.768   3.961  18.878  0.00  0.00    +0.000 A 
ATOM     16  C   UNL     1      49.874   4.781  18.692  0.00  0.00    +0.000 A 
ATOM     17  C   UNL     1      50.073   5.360  17.451  0.00  0.00    +0.000 A 
ATOM     18  N   UNL     1      49.233   5.206  16.409  0.00  0.00    +0.000 NA
BRANCH  15  19
ATOM     19  N   UNL     1      48.462   3.458  20.149  0.00  0.00    +0.000 N 
ATOM     20  H   UNL     1      47.650   3.899  20.573  0.00  0.00    +0.000 HD
ATOM     21  H   UNL     1      48.405   2.445  20.185  0.00  0.00    +0.000 HD
ENDBRANCH  15  19
ENDBRANCH  12  13
ENDBRANCH   1  12
TORSDOF 6
ENDMDL
MODEL 9
REMARK VINA RESULT:    -5.405      3.919      8.032
REMARK INTER + INTRA:          -7.453
REMARK INTER:                  -7.148
REMARK INTRA:                  -0.305
REMARK UNBOUND:                -0.468
REMARK  Name = 
REMARK  6 active torsions:
REMARK  status: ('A' for Active; 'I' for Inactive)
REMARK    1  A    between atoms: N_1  and  C_2
REMARK    2  A    between atoms: C_2  and  C_3
REMARK    3  A    between atoms: C_6  and  O_7
REMARK    4  A    between atoms: O_7  and  C_8
REMARK    5  A    between atoms: C_8  and  C_9
REMARK    6  A    between atoms: C_11  and  N_12
REMARK                            x       y       z     vdW  Elec       q    Type
REMARK                         _______ _______ _______ _____ _____    ______ ____
ROOT
ATOM      1  O   UNL     1      47.128   3.787  14.678  0.00  0.00    +0.000 OA
ENDROOT
BRANCH   1   5
ATOM      2  C   UNL     1      48.586   4.484  18.529  0.00  0.00    +0.000 A 
ATOM      3  C   UNL     1      48.516   5.502  17.567  0.00  0.00    +0.000 A 
ATOM      4  C   UNL     1      47.993   5.242  16.297  0.00  0.00    +0.000 A 
ATOM      5  C   UNL     1      47.547   3.962  15.971  0.00  0.00    +0.000 A 
ATOM      6  C   UNL     1      47.558   2.961  16.943  0.00  0.00    +0.000 A 
ATOM      7  C   UNL     1      48.085   3.217  18.209  0.00  0.00    +0.000 A 
BRANCH   2   8
ATOM      8  C   UNL     1      49.208   4.735  19.877  0.00  0.00    +0.000 C 
BRANCH   8   9
ATOM      9  N   UNL     1      48.537   3.979  20.927  0.00  0.00    +0.000 NA
ATOM     10  H   UNL     1      47.707   3.538  20.538  0.00  0.00    +0.000 HD
ATOM     11  H   UNL     1      48.211   4.632  21.639  0.00  0.00    +0.000 HD
ENDBRANCH   8   9
ENDBRANCH   2   8
ENDBRANCH   1   5
BRANCH   1  12
ATOM     12  C   UNL     1      47.013   4.998  13.921  0.00  0.00    +0.000 C 
BRANCH  12  13
ATOM     13  C   UNL     1      46.111   4.822  12.722  0.00  0.00    +0.000 A 
ATOM     14  C   UNL     1      45.353   3.665  12.556  0.00  0.00    +0.000 A 
ATOM     15  C   UNL     1      44.531   3.544  11.438  0.00  0.00    +0.000 A 
ATOM     16  C   UNL     1      44.594   4.532  10.464  0.00  0.00    +0.000 A 
ATOM     17  C   UNL     1      45.386   5.643  10.691  0.00  0.00    +0.000 A 
ATOM     18  N   UNL     1      46.137   5.814  11.796  0.00  0.00    +0.000 NA
BRANCH  15  19
ATOM     19  N   UNL     1      43.843   2.348  11.196  0.00  0.00    +0.000 N 
ATOM     20  H   UNL     1      42.867   2.487  10.946  0.00  0.00    +0.000 HD
ATOM     21  H   UNL     1      44.316   1.728  10.547  0.00  0.00    +0.000 HD
ENDBRANCH  15  19
ENDBRANCH  12  13
ENDBRANCH   1  12
TORSDOF 6
ENDMDL
