MODEL 1
REMARK VINA RESULT:    -8.013      0.000      0.000
REMARK INTER + INTRA:         -10.521
REMARK INTER:                  -9.887
REMARK INTRA:                  -0.634
REMARK UNBOUND:                -0.634
REMARK  Name = 
REMARK  5 active torsions:
REMARK  status: ('A' for Active; 'I' for Inactive)
REMARK    1  A    between atoms: C_1  and  C_2
REMARK    2  A    between atoms: C_2  and  C_3
REMARK    3  A    between atoms: C_2  and  C_14
REMARK    4  A    between atoms: C_3  and  N_4
REMARK    5  A    between atoms: C_8  and  C_9
REMARK                            x       y       z     vdW  Elec       q    Type
REMARK                         _______ _______ _______ _____ _____    ______ ____
ROOT
ATOM      1  N   UNL     1      43.909   3.189  10.292  0.00  0.00    +0.000 N 
ATOM      2  C   UNL     1      44.854   2.982   9.280  0.00  0.00    +0.000 A 
ATOM      3  C   UNL     1      45.253   1.682   8.973  0.00  0.00    +0.000 A 
ATOM      4  C   UNL     1      46.183   1.471   7.955  0.00  0.00    +0.000 A 
ATOM      5  C   UNL     1      46.695   2.561   7.248  0.00  0.00    +0.000 A 
ATOM      6  C   UNL     1      46.254   3.812   7.626  0.00  0.00    +0.000 A 
ATOM      7  N   UNL     1      45.363   4.045   8.624  0.00  0.00    +0.000 NA
ATOM      8  H   UNL     1      43.070   2.664  10.050  0.00  0.00    +0.000 HD
ENDROOT
BRANCH   5   9
ATOM      9  C   UNL     1      47.660   2.323   6.144  0.00  0.00    +0.000 C 
ATOM     10  N   UNL     1      47.680   3.180   5.080  0.00  0.00    +0.000 N 
ATOM     11  O   UNL     1      48.421   1.366   6.171  0.00  0.00    +0.000 OA
ATOM     12  H   UNL     1      47.098   3.994   4.954  0.00  0.00    +0.000 HD
ATOM     13  H   UNL     1      48.346   2.965   4.350  0.00  0.00    +0.000 HD
ENDBRANCH   5   9
BRANCH   1  14
ATOM     14  C   UNL     1      43.593   4.603  10.502  0.00  0.00    +0.000 C 
BRANCH  14  16
ATOM     15  C   UNL     1      42.832   5.376  12.851  0.00  0.00    +0.000 C 
ATOM     16  C   UNL     1      43.926   4.941  11.926  0.00  0.00    +0.000 C 
BRANCH  16  17
ATOM     17  C   UNL     1      45.286   5.425  12.194  0.00  0.00    +0.000 A 
ATOM     18  C   UNL     1      45.889   6.388  11.377  0.00  0.00    +0.000 A 
ATOM     19  C   UNL     1      47.149   6.901  11.713  0.00  0.00    +0.000 A 
ATOM     20  C   UNL     1      47.795   6.449  12.859  0.00  0.00    +0.000 A 
ATOM     21 CL   UNL     1      49.327   7.105  13.291  0.00  0.00    +0.000 Cl
ATOM     22  C   UNL     1      47.217   5.476  13.666  0.00  0.00    +0.000 A 
ATOM     23  C   UNL     1      45.966   4.962  13.328  0.00  0.00    +0.000 A 
ENDBRANCH  16  17
ENDBRANCH  14  16
ENDBRANCH   1  14
TORSDOF 4
ENDMDL
MODEL 2
REMARK VINA RESULT:    -7.566      1.496      1.875
REMARK INTER + INTRA:          -9.970
REMARK INTER:                  -9.696
REMARK INTRA:                  -0.274
REMARK UNBOUND:                -0.634
REMARK  Name = 
REMARK  5 active torsions:
REMARK  status: ('A' for Active; 'I' for Inactive)
REMARK    1  A    between atoms: C_1  and  C_2
REMARK    2  A    between atoms: C_2  and  C_3
REMARK    3  A    between atoms: C_2  and  C_14
REMARK    4  A    between atoms: C_3  and  N_4
REMARK    5  A    between atoms: C_8  and  C_9
REMARK                            x       y       z     vdW  Elec       q    Type
REMARK                         _______ _______ _______ _____ _____    ______ ____
ROOT
ATOM      1  N   UNL     1      44.312   5.166   9.690  0.00  0.00    +0.000 N 
ATOM      2  C   UNL     1      44.984   4.109   9.063  0.00  0.00    +0.000 A 
ATOM      3  C   UNL     1      45.925   4.388   8.074  0.00  0.00    +0.000 A 
ATOM      4  C   UNL     1      46.607   3.337   7.459  0.00  0.00    +0.000 A 
ATOM      5  C   UNL     1      46.348   2.021   7.848  0.00  0.00    +0.000 A 
ATOM      6  C   UNL     1      45.393   1.837   8.825  0.00  0.00    +0.000 A 
ATOM      7  N   UNL     1      44.703   2.840   9.427  0.00  0.00    +0.000 NA
ATOM      8  H   UNL     1      45.012   5.781  10.102  0.00  0.00    +0.000 HD
ENDROOT
BRANCH   5   9
ATOM      9  C   UNL     1      47.103   0.913   7.210  0.00  0.00    +0.000 C 
ATOM     10  N   UNL     1      46.850  -0.374   7.594  0.00  0.00    +0.000 N 
ATOM     11  O   UNL     1      47.953   1.140   6.360  0.00  0.00    +0.000 OA
ATOM     12  H   UNL     1      46.177  -0.673   8.282  0.00  0.00    +0.000 HD
ATOM     13  H   UNL     1      47.402  -1.089   7.138  0.00  0.00    +0.000 HD
ENDBRANCH   5   9
BRANCH   1  14
ATOM     14  C   UNL     1      43.353   4.718  10.701  0.00  0.00    +0.000 C 
BRANCH  14  16
ATOM     15  C   UNL     1      43.034   4.957  13.258  0.00  0.00    +0.000 C 
ATOM     16  C   UNL     1      43.912   5.067  12.050  0.00  0.00    +0.000 C 
BRANCH  16  17
ATOM     17  C   UNL     1      45.007   6.045  12.082  0.00  0.00    +0.000 A 
ATOM     18  C   UNL     1      44.767   7.412  11.906  0.00  0.00    +0.000 A 
ATOM     19  C   UNL     1      45.817   8.330  12.038  0.00  0.00    +0.000 A 
ATOM     20  C   UNL     1      47.096   7.875  12.344  0.00  0.00    +0.000 A 
ATOM     21 CL   UNL     1      48.379   9.007  12.541  0.00  0.00    +0.000 Cl
ATOM     22  C   UNL     1      47.352   6.519  12.499  0.00  0.00    +0.000 A 
ATOM     23  C   UNL     1      46.308   5.606  12.362  0.00  0.00    +0.000 A 
ENDBRANCH  16  17
ENDBRANCH  14  16
ENDBRANCH   1  14
TORSDOF 4
ENDMDL
MODEL 3
REMARK VINA RESULT:    -7.143      3.707      6.067
REMARK INTER + INTRA:          -9.447
REMARK INTER:                  -8.812
REMARK INTRA:                  -0.635
REMARK UNBOUND:                -0.634
REMARK  Name = 
REMARK  5 active torsions:
REMARK  status: ('A' for Active; 'I' for Inactive)
REMARK    1  A    between atoms: C_1  and  C_2
REMARK    2  A    between atoms: C_2  and  C_3
REMARK    3  A    between atoms: C_2  and  C_14
REMARK    4  A    between atoms: C_3  and  N_4
REMARK    5  A    between atoms: C_8  and  C_9
REMARK                            x       y       z     vdW  Elec       q    Type
REMARK                         _______ _______ _______ _____ _____    ______ ____
ROOT
ATOM      1  N   UNL     1      44.765   4.874  12.465  0.00  0.00    +0.000 N 
ATOM      2  C   UNL     1      45.973   5.575  12.553  0.00  0.00    +0.000 A 
ATOM      3  C   UNL     1      46.723   5.502  13.726  0.00  0.00    +0.000 A 
ATOM      4  C   UNL     1      47.935   6.187  13.811  0.00  0.00    +0.000 A 
ATOM      5  C   UNL     1      48.389   6.930  12.719  0.00  0.00    +0.000 A 
ATOM      6  C   UNL     1      47.578   6.957  11.603  0.00  0.00    +0.000 A 
ATOM      7  N   UNL     1      46.386   6.313  11.502  0.00  0.00    +0.000 NA
ATOM      8  H   UNL     1      44.961   3.889  12.638  0.00  0.00    +0.000 HD
ENDROOT
BRANCH   5   9
ATOM      9  C   UNL     1      49.697   7.629  12.808  0.00  0.00    +0.000 C 
ATOM     10  N   UNL     1      50.626   7.431  11.826  0.00  0.00    +0.000 N 
ATOM     11  O   UNL     1      49.952   8.364  13.752  0.00  0.00    +0.000 OA
ATOM     12  H   UNL     1      50.522   6.849  11.010  0.00  0.00    +0.000 HD
ATOM     13  H   UNL     1      51.504   7.920  11.942  0.00  0.00    +0.000 HD
ENDBRANCH   5   9
BRANCH   1  14
ATOM     14  C   UNL     1      44.090   5.051  11.178  0.00  0.00    +0.000 C 
BRANCH  14  16
ATOM     15  C   UNL     1      43.386   2.571  11.404  0.00  0.00    +0.000 C 
ATOM     16  C   UNL     1      43.912   3.694  10.563  0.00  0.00    +0.000 C 
BRANCH  16  17
ATOM     17  C   UNL     1      44.786   3.356   9.433  0.00  0.00    +0.000 A 
ATOM     18  C   UNL     1      45.347   4.351   8.625  0.00  0.00    +0.000 A 
ATOM     19  C   UNL     1      46.253   4.005   7.615  0.00  0.00    +0.000 A 
ATOM     20  C   UNL     1      46.591   2.669   7.420  0.00  0.00    +0.000 A 
ATOM     21 CL   UNL     1      47.732   2.246   6.202  0.00  0.00    +0.000 Cl
ATOM     22  C   UNL     1      46.023   1.669   8.200  0.00  0.00    +0.000 A 
ATOM     23  C   UNL     1      45.117   2.014   9.201  0.00  0.00    +0.000 A 
ENDBRANCH  16  17
ENDBRANCH  14  16
ENDBRANCH   1  14
TORSDOF 4
ENDMDL
MODEL 4
REMARK VINA RESULT:    -6.711      4.603      7.463
REMARK INTER + INTRA:          -8.914
REMARK INTER:                  -8.525
REMARK INTRA:                  -0.390
REMARK UNBOUND:                -0.634
REMARK  Name = 
REMARK  5 active torsions:
REMARK  status: ('A' for Active; 'I' for Inactive)
REMARK    1  A    between atoms: C_1  and  C_2
REMARK    2  A    between atoms: C_2  and  C_3
REMARK    3  A    between atoms: C_2  and  C_14
REMARK    4  A    between atoms: C_3  and  N_4
REMARK    5  A    between atoms: C_8  and  C_9
REMARK                            x       y       z     vdW  Elec       q    Type
REMARK                         _______ _______ _______ _____ _____    ______ ____
ROOT
ATOM      1  N   UNL     1      46.232   5.073  12.700  0.00  0.00    +0.000 N 
ATOM      2  C   UNL     1      46.845   5.028  13.958  0.00  0.00    +0.000 A 
ATOM      3  C   UNL     1      47.738   6.034  14.321  0.00  0.00    +0.000 A 
ATOM      4  C   UNL     1      48.338   6.000  15.581  0.00  0.00    +0.000 A 
ATOM      5  C   UNL     1      48.031   4.964  16.466  0.00  0.00    +0.000 A 
ATOM      6  C   UNL     1      47.147   4.004  16.019  0.00  0.00    +0.000 A 
ATOM      7  N   UNL     1      46.563   4.006  14.793  0.00  0.00    +0.000 NA
ATOM      8  H   UNL     1      45.736   5.960  12.626  0.00  0.00    +0.000 HD
ENDROOT
BRANCH   5   9
ATOM      9  C   UNL     1      48.650   4.954  17.816  0.00  0.00    +0.000 C 
ATOM     10  N   UNL     1      47.865   4.709  18.907  0.00  0.00    +0.000 N 
ATOM     11  O   UNL     1      49.844   5.176  17.960  0.00  0.00    +0.000 OA
ATOM     12  H   UNL     1      46.875   4.517  18.903  0.00  0.00    +0.000 HD
ATOM     13  H   UNL     1      48.334   4.727  19.803  0.00  0.00    +0.000 HD
ENDBRANCH   5   9
BRANCH   1  14
ATOM     14  C   UNL     1      45.327   3.948  12.461  0.00  0.00    +0.000 C 
BRANCH  14  16
ATOM     15  C   UNL     1      43.018   4.436  11.398  0.00  0.00    +0.000 C 
ATOM     16  C   UNL     1      44.500   4.274  11.251  0.00  0.00    +0.000 C 
BRANCH  16  17
ATOM     17  C   UNL     1      45.018   3.827   9.952  0.00  0.00    +0.000 A 
ATOM     18  C   UNL     1      45.549   4.735   9.030  0.00  0.00    +0.000 A 
ATOM     19  C   UNL     1      46.123   4.269   7.840  0.00  0.00    +0.000 A 
ATOM     20  C   UNL     1      46.161   2.902   7.582  0.00  0.00    +0.000 A 
ATOM     21 CL   UNL     1      46.899   2.327   6.136  0.00  0.00    +0.000 Cl
ATOM     22  C   UNL     1      45.616   1.991   8.479  0.00  0.00    +0.000 A 
ATOM     23  C   UNL     1      45.040   2.457   9.660  0.00  0.00    +0.000 A 
ENDBRANCH  16  17
ENDBRANCH  14  16
ENDBRANCH   1  14
TORSDOF 4
ENDMDL
MODEL 5
REMARK VINA RESULT:    -6.572      4.074      6.394
REMARK INTER + INTRA:          -8.743
REMARK INTER:                  -8.135
REMARK INTRA:                  -0.608
REMARK UNBOUND:                -0.634
REMARK  Name = 
REMARK  5 active torsions:
REMARK  status: ('A' for Active; 'I' for Inactive)
REMARK    1  A    between atoms: C_1  and  C_2
REMARK    2  A    between atoms: C_2  and  C_3
REMARK    3  A    between atoms: C_2  and  C_14
REMARK    4  A    between atoms: C_3  and  N_4
REMARK    5  A    between atoms: C_8  and  C_9
REMARK                            x       y       z     vdW  Elec       q    Type
REMARK                         _______ _______ _______ _____ _____    ______ ____
ROOT
ATOM      1  N   UNL     1      44.914   5.595  12.820  0.00  0.00    +0.000 N 
ATOM      2  C   UNL     1      45.834   6.616  12.550  0.00  0.00    +0.000 A 
ATOM      3  C   UNL     1      45.500   7.935  12.855  0.00  0.00    +0.000 A 
ATOM      4  C   UNL     1      46.420   8.953  12.602  0.00  0.00    +0.000 A 
ATOM      5  C   UNL     1      47.667   8.639  12.056  0.00  0.00    +0.000 A 
ATOM      6  C   UNL     1      47.908   7.310  11.774  0.00  0.00    +0.000 A 
ATOM      7  N   UNL     1      47.023   6.304  11.995  0.00  0.00    +0.000 NA
ATOM      8  H   UNL     1      44.691   5.629  13.813  0.00  0.00    +0.000 HD
ENDROOT
BRANCH   5   9
ATOM      9  C   UNL     1      48.652   9.726  11.821  0.00  0.00    +0.000 C 
ATOM     10  N   UNL     1      49.952   9.401  11.556  0.00  0.00    +0.000 N 
ATOM     11  O   UNL     1      48.315  10.901  11.875  0.00  0.00    +0.000 OA
ATOM     12  H   UNL     1      50.337   8.472  11.491  0.00  0.00    +0.000 HD
ATOM     13  H   UNL     1      50.584  10.179  11.418  0.00  0.00    +0.000 HD
ENDBRANCH   5   9
BRANCH   1  14
ATOM     14  C   UNL     1      45.403   4.268  12.442  0.00  0.00    +0.000 C 
BRANCH  14  16
ATOM     15  C   UNL     1      43.364   2.779  11.875  0.00  0.00    +0.000 C 
ATOM     16  C   UNL     1      44.454   3.702  11.425  0.00  0.00    +0.000 C 
BRANCH  16  17
ATOM     17  C   UNL     1      44.960   3.553  10.055  0.00  0.00    +0.000 A 
ATOM     18  C   UNL     1      45.352   4.664   9.300  0.00  0.00    +0.000 A 
ATOM     19  C   UNL     1      45.920   4.484   8.032  0.00  0.00    +0.000 A 
ATOM     20  C   UNL     1      46.090   3.197   7.530  0.00  0.00    +0.000 A 
ATOM     21 CL   UNL     1      46.821   2.974   5.987  0.00  0.00    +0.000 Cl
ATOM     22  C   UNL     1      45.684   2.087   8.259  0.00  0.00    +0.000 A 
ATOM     23  C   UNL     1      45.113   2.268   9.518  0.00  0.00    +0.000 A 
ENDBRANCH  16  17
ENDBRANCH  14  16
ENDBRANCH   1  14
TORSDOF 4
ENDMDL
MODEL 6
REMARK VINA RESULT:    -6.457      4.638      6.524
REMARK INTER + INTRA:          -8.602
REMARK INTER:                  -8.196
REMARK INTRA:                  -0.406
REMARK UNBOUND:                -0.634
REMARK  Name = 
REMARK  5 active torsions:
REMARK  status: ('A' for Active; 'I' for Inactive)
REMARK    1  A    between atoms: C_1  and  C_2
REMARK    2  A    between atoms: C_2  and  C_3
REMARK    3  A    between atoms: C_2  and  C_14
REMARK    4  A    between atoms: C_3  and  N_4
REMARK    5  A    between atoms: C_8  and  C_9
REMARK                            x       y       z     vdW  Elec       q    Type
REMARK                         _______ _______ _______ _____ _____    ______ ____
ROOT
ATOM      1  N   UNL     1      47.329   5.125  15.230  0.00  0.00    +0.000 N 
ATOM      2  C   UNL     1      46.635   5.074  14.015  0.00  0.00    +0.000 A 
ATOM      3  C   UNL     1      46.677   6.172  13.157  0.00  0.00    +0.000 A 
ATOM      4  C   UNL     1      45.999   6.119  11.939  0.00  0.00    +0.000 A 
ATOM      5  C   UNL     1      45.295   4.964  11.588  0.00  0.00    +0.000 A 
ATOM      6  C   UNL     1      45.297   3.931  12.502  0.00  0.00    +0.000 A 
ATOM      7  N   UNL     1      45.934   3.965  13.701  0.00  0.00    +0.000 NA
ATOM      8  H   UNL     1      48.309   5.310  15.023  0.00  0.00    +0.000 HD
ENDROOT
BRANCH   5   9
ATOM      9  C   UNL     1      44.604   4.906  10.275  0.00  0.00    +0.000 C 
ATOM     10  N   UNL     1      45.340   5.022   9.129  0.00  0.00    +0.000 N 
ATOM     11  O   UNL     1      43.391   4.768  10.209  0.00  0.00    +0.000 OA
ATOM     12  H   UNL     1      46.339   5.141   9.067  0.00  0.00    +0.000 HD
ATOM     13  H   UNL     1      44.819   4.989   8.263  0.00  0.00    +0.000 HD
ENDBRANCH   5   9
BRANCH   1  14
ATOM     14  C   UNL     1      47.187   3.903  16.024  0.00  0.00    +0.000 C 
BRANCH  14  16
ATOM     15  C   UNL     1      47.526   5.264  18.198  0.00  0.00    +0.000 C 
ATOM     16  C   UNL     1      47.911   4.112  17.322  0.00  0.00    +0.000 C 
BRANCH  16  17
ATOM     17  C   UNL     1      49.291   3.620  17.400  0.00  0.00    +0.000 A 
ATOM     18  C   UNL     1      50.321   4.420  17.908  0.00  0.00    +0.000 A 
ATOM     19  C   UNL     1      51.609   3.890  18.059  0.00  0.00    +0.000 A 
ATOM     20  C   UNL     1      51.858   2.568  17.703  0.00  0.00    +0.000 A 
ATOM     21 CL   UNL     1      53.432   1.906  17.923  0.00  0.00    +0.000 Cl
ATOM     22  C   UNL     1      50.849   1.770  17.177  0.00  0.00    +0.000 A 
ATOM     23  C   UNL     1      49.569   2.300  17.021  0.00  0.00    +0.000 A 
ENDBRANCH  16  17
ENDBRANCH  14  16
ENDBRANCH   1  14
TORSDOF 4
ENDMDL
MODEL 7
REMARK VINA RESULT:    -5.957      4.166      6.414
REMARK INTER + INTRA:          -7.984
REMARK INTER:                  -7.386
REMARK INTRA:                  -0.597
REMARK UNBOUND:                -0.634
REMARK  Name = 
REMARK  5 active torsions:
REMARK  status: ('A' for Active; 'I' for Inactive)
REMARK    1  A    between atoms: C_1  and  C_2
REMARK    2  A    between atoms: C_2  and  C_3
REMARK    3  A    between atoms: C_2  and  C_14
REMARK    4  A    between atoms: C_3  and  N_4
REMARK    5  A    between atoms: C_8  and  C_9
REMARK                            x       y       z     vdW  Elec       q    Type
REMARK                         _______ _______ _______ _____ _____    ______ ____
ROOT
ATOM      1  N   UNL     1      45.819   6.251  13.371  0.00  0.00    +0.000 N 
ATOM      2  C   UNL     1      47.068   6.836  13.128  0.00  0.00    +0.000 A 
ATOM      3  C   UNL     1      48.077   6.717  14.082  0.00  0.00    +0.000 A 
ATOM      4  C   UNL     1      49.327   7.285  13.836  0.00  0.00    +0.000 A 
ATOM      5  C   UNL     1      49.557   7.958  12.633  0.00  0.00    +0.000 A 
ATOM      6  C   UNL     1      48.499   8.038  11.752  0.00  0.00    +0.000 A 
ATOM      7  N   UNL     1      47.268   7.509  11.976  0.00  0.00    +0.000 NA
ATOM      8  H   UNL     1      45.966   5.256  13.534  0.00  0.00    +0.000 HD
ENDROOT
BRANCH   5   9
ATOM      9  C   UNL     1      50.901   8.531  12.367  0.00  0.00    +0.000 C 
ATOM     10  N   UNL     1      51.920   7.697  12.001  0.00  0.00    +0.000 N 
ATOM     11  O   UNL     1      51.106   9.731  12.484  0.00  0.00    +0.000 OA
ATOM     12  H   UNL     1      51.863   6.699  11.877  0.00  0.00    +0.000 HD
ATOM     13  H   UNL     1      52.818   8.137  11.845  0.00  0.00    +0.000 HD
ENDBRANCH   5   9
BRANCH   1  14
ATOM     14  C   UNL     1      44.863   6.465  12.283  0.00  0.00    +0.000 C 
BRANCH  14  16
ATOM     15  C   UNL     1      43.809   4.195  12.941  0.00  0.00    +0.000 C 
ATOM     16  C   UNL     1      44.317   5.125  11.883  0.00  0.00    +0.000 C 
BRANCH  16  17
ATOM     17  C   UNL     1      44.840   4.537  10.644  0.00  0.00    +0.000 A 
ATOM     18  C   UNL     1      44.577   3.205  10.303  0.00  0.00    +0.000 A 
ATOM     19  C   UNL     1      45.008   2.700   9.070  0.00  0.00    +0.000 A 
ATOM     20  C   UNL     1      45.698   3.528   8.189  0.00  0.00    +0.000 A 
ATOM     21 CL   UNL     1      46.196   2.917   6.658  0.00  0.00    +0.000 Cl
ATOM     22  C   UNL     1      45.985   4.845   8.525  0.00  0.00    +0.000 A 
ATOM     23  C   UNL     1      45.561   5.345   9.755  0.00  0.00    +0.000 A 
ENDBRANCH  16  17
ENDBRANCH  14  16
ENDBRANCH   1  14
TORSDOF 4
ENDMDL
MODEL 8
REMARK VINA RESULT:    -5.622      5.498      8.370
REMARK INTER + INTRA:          -7.571
REMARK INTER:                  -6.960
REMARK INTRA:                  -0.611
REMARK UNBOUND:                -0.634
REMARK  Name = 
REMARK  5 active torsions:
REMARK  status: ('A' for Active; 'I' for Inactive)
REMARK    1  A    between atoms: C_1  and  C_2
REMARK    2  A    between atoms: C_2  and  C_3
REMARK    3  A    between atoms: C_2  and  C_14
REMARK    4  A    between atoms: C_3  and  N_4
REMARK    5  A    between atoms: C_8  and  C_9
REMARK                            x       y       z     vdW  Elec       q    Type
REMARK                         _______ _______ _______ _____ _____    ______ ____
ROOT
ATOM      1  N   UNL     1      48.751   7.509  14.340  0.00  0.00    +0.000 N 
ATOM      2  C   UNL     1      48.714   6.779  15.534  0.00  0.00    +0.000 A 
ATOM      3  C   UNL     1      48.935   7.435  16.744  0.00  0.00    +0.000 A 
ATOM      4  C   UNL     1      48.883   6.713  17.937  0.00  0.00    +0.000 A 
ATOM      5  C   UNL     1      48.601   5.345  17.907  0.00  0.00    +0.000 A 
ATOM      6  C   UNL     1      48.408   4.776  16.666  0.00  0.00    +0.000 A 
ATOM      7  N   UNL     1      48.471   5.453  15.490  0.00  0.00    +0.000 NA
ATOM      8  H   UNL     1      48.063   8.257  14.409  0.00  0.00    +0.000 HD
ENDROOT
BRANCH   5   9
ATOM      9  C   UNL     1      48.516   4.593  19.185  0.00  0.00    +0.000 C 
ATOM     10  N   UNL     1      48.424   3.230  19.150  0.00  0.00    +0.000 N 
ATOM     11  O   UNL     1      48.514   5.178  20.259  0.00  0.00    +0.000 OA
ATOM     12  H   UNL     1      48.415   2.650  18.326  0.00  0.00    +0.000 HD
ATOM     13  H   UNL     1      48.355   2.768  20.048  0.00  0.00    +0.000 HD
ENDBRANCH   5   9
BRANCH   1  14
ATOM     14  C   UNL     1      48.506   6.685  13.156  0.00  0.00    +0.000 C 
BRANCH  14  16
ATOM     15  C   UNL     1      46.779   8.569  12.753  0.00  0.00    +0.000 C 
ATOM     16  C   UNL     1      47.231   7.160  12.521  0.00  0.00    +0.000 C 
BRANCH  16  17
ATOM     17  C   UNL     1      46.207   6.145  12.245  0.00  0.00    +0.000 A 
ATOM     18  C   UNL     1      45.823   5.837  10.936  0.00  0.00    +0.000 A 
ATOM     19  C   UNL     1      44.915   4.797  10.699  0.00  0.00    +0.000 A 
ATOM     20  C   UNL     1      44.398   4.075  11.771  0.00  0.00    +0.000 A 
ATOM     21 CL   UNL     1      43.309   2.774  11.477  0.00  0.00    +0.000 Cl
ATOM     22  C   UNL     1      44.754   4.386  13.077  0.00  0.00    +0.000 A 
ATOM     23  C   UNL     1      45.653   5.425  13.312  0.00  0.00    +0.000 A 
ENDBRANCH  16  17
ENDBRANCH  14  16
ENDBRANCH   1  14
TORSDOF 4
ENDMDL
MODEL 9
REMARK VINA RESULT:    -5.372      3.501      5.430
REMARK INTER + INTRA:          -7.263
REMARK INTER:                  -6.729
REMARK INTRA:                  -0.533
REMARK UNBOUND:                -0.634
REMARK  Name = 
REMARK  5 active torsions:
REMARK  status: ('A' for Active; 'I' for Inactive)
REMARK    1  A    between atoms: C_1  and  C_2
REMARK    2  A    between atoms: C_2  and  C_3
REMARK    3  A    between atoms: C_2  and  C_14
REMARK    4  A    between atoms: C_3  and  N_4
REMARK    5  A    between atoms: C_8  and  C_9
REMARK                            x       y       z     vdW  Elec       q    Type
REMARK                         _______ _______ _______ _____ _____    ______ ____
ROOT
ATOM      1  N   UNL     1      46.981   6.743  13.955  0.00  0.00    +0.000 N 
ATOM      2  C   UNL     1      46.332   6.006  12.956  0.00  0.00    +0.000 A 
ATOM      3  C   UNL     1      45.893   4.713  13.236  0.00  0.00    +0.000 A 
ATOM      4  C   UNL     1      45.232   3.983  12.248  0.00  0.00    +0.000 A 
ATOM      5  C   UNL     1      45.008   4.558  10.995  0.00  0.00    +0.000 A 
ATOM      6  C   UNL     1      45.487   5.837  10.801  0.00  0.00    +0.000 A 
ATOM      7  N   UNL     1      46.148   6.562  11.741  0.00  0.00    +0.000 NA
ATOM      8  H   UNL     1      46.356   6.801  14.757  0.00  0.00    +0.000 HD
ENDROOT
BRANCH   5   9
ATOM      9  C   UNL     1      44.274   3.784   9.961  0.00  0.00    +0.000 C 
ATOM     10  N   UNL     1      44.139   4.310   8.707  0.00  0.00    +0.000 N 
ATOM     11  O   UNL     1      43.783   2.696  10.223  0.00  0.00    +0.000 OA
ATOM     12  H   UNL     1      44.500   5.194   8.384  0.00  0.00    +0.000 HD
ATOM     13  H   UNL     1      43.619   3.749   8.045  0.00  0.00    +0.000 HD
ENDBRANCH   5   9
BRANCH   1  14
ATOM     14  C   UNL     1      47.387   8.078  13.512  0.00  0.00    +0.000 C 
BRANCH  14  16
ATOM     15  C   UNL     1      48.855   9.196  15.326  0.00  0.00    +0.000 C 
ATOM     16  C   UNL     1      48.744   8.360  14.088  0.00  0.00    +0.000 C 
BRANCH  16  17
ATOM     17  C   UNL     1      49.876   8.360  13.153  0.00  0.00    +0.000 A 
ATOM     18  C   UNL     1      51.131   8.849  13.531  0.00  0.00    +0.000 A 
ATOM     19  C   UNL     1      52.216   8.749  12.651  0.00  0.00    +0.000 A 
ATOM     20  C   UNL     1      52.038   8.162  11.401  0.00  0.00    +0.000 A 
ATOM     21 CL   UNL     1      53.379   8.006  10.333  0.00  0.00    +0.000 Cl
ATOM     22  C   UNL     1      50.791   7.694  11.005  0.00  0.00    +0.000 A 
ATOM     23  C   UNL     1      49.711   7.800  11.880  0.00  0.00    +0.000 A 
ENDBRANCH  16  17
ENDBRANCH  14  16
ENDBRANCH   1  14
TORSDOF 4
ENDMDL
