MODEL 1
REMARK VINA RESULT:    -8.285      0.000      0.000
REMARK INTER + INTRA:         -12.592
REMARK INTER:                 -11.917
REMARK INTRA:                  -0.674
REMARK UNBOUND:                -0.674
REMARK  Name = 
REMARK  9 active torsions:
REMARK  status: ('A' for Active; 'I' for Inactive)
REMARK    1  A    between atoms: C_1  and  C_2
REMARK    2  A    between atoms: C_3  and  N_4
REMARK    3  A    between atoms: N_4  and  C_5
REMARK    4  A    between atoms: C_9  and  C_10
REMARK    5  A    between atoms: C_10  and  C_11
REMARK    6  A    between atoms: C_11  and  N_12
REMARK    7  A    between atoms: N_12  and  C_13
REMARK    8  A    between atoms: C_16  and  C_17
REMARK    9  A    between atoms: C_25  and  O_26
REMARK                            x       y       z     vdW  Elec       q    Type
REMARK                         _______ _______ _______ _____ _____    ______ ____
ROOT
ATOM      1  C   UNL     1      45.837   6.549  10.939  0.00  0.00    +0.000 C 
ENDROOT
BRANCH   1   6
ATOM      2  C   UNL     1      47.714   5.855  14.254  0.00  0.00    +0.000 A 
ATOM      3  C   UNL     1      48.824   6.678  14.085  0.00  0.00    +0.000 A 
ATOM      4  C   UNL     1      48.951   7.471  12.939  0.00  0.00    +0.000 A 
ATOM      5  C   UNL     1      47.971   7.445  11.942  0.00  0.00    +0.000 A 
ATOM      6  C   UNL     1      46.855   6.613  12.070  0.00  0.00    +0.000 A 
ATOM      7  C   UNL     1      46.737   5.851  13.249  0.00  0.00    +0.000 A 
BRANCH   2   8
ATOM      8  N   UNL     1      47.444   5.129  15.434  0.00  0.00    +0.000 N 
ATOM      9  H   UNL     1      47.046   4.215  15.225  0.00  0.00    +0.000 HD
BRANCH   8  12
ATOM     10  C   UNL     1      50.295   4.073  17.641  0.00  0.00    +0.000 C 
ATOM     11  C   UNL     1      48.940   3.898  16.969  0.00  0.00    +0.000 C 
ATOM     12  C   UNL     1      48.131   5.202  16.688  0.00  0.00    +0.000 C 
ATOM     13  C   UNL     1      47.221   4.849  17.884  0.00  0.00    +0.000 C 
ATOM     14  C   UNL     1      47.774   3.413  17.871  0.00  0.00    +0.000 C 
BRANCH  14  15
ATOM     15  O   UNL     1      48.114   2.843  19.150  0.00  0.00    +0.000 OA
ATOM     16  H   UNL     1      47.296   2.867  19.677  0.00  0.00    +0.000 HD
ENDBRANCH  14  15
ENDBRANCH   8  12
ENDBRANCH   2   8
ENDBRANCH   1   6
BRANCH   1  17
ATOM     17  C   UNL     1      44.829   5.409  11.104  0.00  0.00    +0.000 C 
BRANCH  17  18
ATOM     18  N   UNL     1      44.120   5.041   9.875  0.00  0.00    +0.000 N 
ATOM     19  H   UNL     1      43.917   5.855   9.294  0.00  0.00    +0.000 HD
BRANCH  18  20
ATOM     20  C   UNL     1      44.927   4.143   9.123  0.00  0.00    +0.000 A 
ATOM     21  N   UNL     1      45.746   4.663   8.180  0.00  0.00    +0.000 NA
ATOM     22  C   UNL     1      46.536   3.833   7.460  0.00  0.00    +0.000 A 
ATOM     23  C   UNL     1      46.559   2.463   7.624  0.00  0.00    +0.000 A 
ATOM     24  C   UNL     1      45.730   1.922   8.611  0.00  0.00    +0.000 A 
ATOM     25  C   UNL     1      44.918   2.763   9.378  0.00  0.00    +0.000 A 
ATOM     26 CL   UNL     1      43.869   2.066  10.557  0.00  0.00    +0.000 Cl
BRANCH  23  27
ATOM     27  C   UNL     1      47.407   1.572   6.800  0.00  0.00    +0.000 C 
ATOM     28  N   UNL     1      48.442   2.103   6.086  0.00  0.00    +0.000 N 
ATOM     29  O   UNL     1      47.180   0.364   6.749  0.00  0.00    +0.000 OA
ATOM     30  H   UNL     1      48.714   3.071   6.052  0.00  0.00    +0.000 HD
ATOM     31  H   UNL     1      48.990   1.453   5.535  0.00  0.00    +0.000 HD
ENDBRANCH  23  27
ENDBRANCH  18  20
ENDBRANCH  17  18
ENDBRANCH   1  17
TORSDOF 8
ENDMDL
MODEL 2
REMARK VINA RESULT:    -8.240      1.769      8.381
REMARK INTER + INTRA:         -12.527
REMARK INTER:                 -11.470
REMARK INTRA:                  -1.058
REMARK UNBOUND:                -0.674
REMARK  Name = 
REMARK  9 active torsions:
REMARK  status: ('A' for Active; 'I' for Inactive)
REMARK    1  A    between atoms: C_1  and  C_2
REMARK    2  A    between atoms: C_3  and  N_4
REMARK    3  A    between atoms: N_4  and  C_5
REMARK    4  A    between atoms: C_9  and  C_10
REMARK    5  A    between atoms: C_10  and  C_11
REMARK    6  A    between atoms: C_11  and  N_12
REMARK    7  A    between atoms: N_12  and  C_13
REMARK    8  A    between atoms: C_16  and  C_17
REMARK    9  A    between atoms: C_25  and  O_26
REMARK                            x       y       z     vdW  Elec       q    Type
REMARK                         _______ _______ _______ _____ _____    ______ ____
ROOT
ATOM      1  C   UNL     1      45.262   7.378  11.768  0.00  0.00    +0.000 C 
ENDROOT
BRANCH   1   6
ATOM      2  C   UNL     1      45.353   4.471   9.212  0.00  0.00    +0.000 A 
ATOM      3  C   UNL     1      44.368   3.644   9.746  0.00  0.00    +0.000 A 
ATOM      4  C   UNL     1      43.661   4.030  10.889  0.00  0.00    +0.000 A 
ATOM      5  C   UNL     1      43.935   5.247  11.520  0.00  0.00    +0.000 A 
ATOM      6  C   UNL     1      44.933   6.091  11.024  0.00  0.00    +0.000 A 
ATOM      7  C   UNL     1      45.606   5.692   9.852  0.00  0.00    +0.000 A 
BRANCH   2   8
ATOM      8  N   UNL     1      46.017   4.220   7.993  0.00  0.00    +0.000 N 
ATOM      9  H   UNL     1      46.893   4.736   7.933  0.00  0.00    +0.000 HD
BRANCH   8  12
ATOM     10  C   UNL     1      46.733   0.552   7.604  0.00  0.00    +0.000 C 
ATOM     11  C   UNL     1      47.100   2.030   7.618  0.00  0.00    +0.000 C 
ATOM     12  C   UNL     1      45.978   3.028   7.199  0.00  0.00    +0.000 C 
ATOM     13  C   UNL     1      46.690   3.197   5.841  0.00  0.00    +0.000 C 
ATOM     14  C   UNL     1      47.953   2.546   6.430  0.00  0.00    +0.000 C 
BRANCH  14  15
ATOM     15  O   UNL     1      48.615   1.564   5.608  0.00  0.00    +0.000 OA
ATOM     16  H   UNL     1      47.906   1.034   5.205  0.00  0.00    +0.000 HD
ENDBRANCH  14  15
ENDBRANCH   8  12
ENDBRANCH   2   8
ENDBRANCH   1   6
BRANCH   1  17
ATOM     17  C   UNL     1      46.213   7.161  12.948  0.00  0.00    +0.000 C 
BRANCH  17  18
ATOM     18  N   UNL     1      47.195   6.091  12.750  0.00  0.00    +0.000 N 
ATOM     19  H   UNL     1      48.061   6.440  12.339  0.00  0.00    +0.000 HD
BRANCH  18  20
ATOM     20  C   UNL     1      47.502   5.502  14.009  0.00  0.00    +0.000 A 
ATOM     21  N   UNL     1      48.173   6.252  14.914  0.00  0.00    +0.000 NA
ATOM     22  C   UNL     1      48.464   5.722  16.124  0.00  0.00    +0.000 A 
ATOM     23  C   UNL     1      48.120   4.440  16.503  0.00  0.00    +0.000 A 
ATOM     24  C   UNL     1      47.409   3.668  15.580  0.00  0.00    +0.000 A 
ATOM     25  C   UNL     1      47.083   4.202  14.330  0.00  0.00    +0.000 A 
ATOM     26 CL   UNL     1      46.246   3.213  13.191  0.00  0.00    +0.000 Cl
BRANCH  23  27
ATOM     27  C   UNL     1      48.481   3.871  17.822  0.00  0.00    +0.000 C 
ATOM     28  N   UNL     1      47.603   3.040  18.457  0.00  0.00    +0.000 N 
ATOM     29  O   UNL     1      49.557   4.148  18.349  0.00  0.00    +0.000 OA
ATOM     30  H   UNL     1      46.700   2.751  18.122  0.00  0.00    +0.000 HD
ATOM     31  H   UNL     1      47.894   2.681  19.359  0.00  0.00    +0.000 HD
ENDBRANCH  23  27
ENDBRANCH  18  20
ENDBRANCH  17  18
ENDBRANCH   1  17
TORSDOF 8
ENDMDL
MODEL 3
REMARK VINA RESULT:    -7.850      2.632      8.200
REMARK INTER + INTRA:         -11.966
REMARK INTER:                 -11.092
REMARK INTRA:                  -0.874
REMARK UNBOUND:                -0.674
REMARK  Name = 
REMARK  9 active torsions:
REMARK  status: ('A' for Active; 'I' for Inactive)
REMARK    1  A    between atoms: C_1  and  C_2
REMARK    2  A    between atoms: C_3  and  N_4
REMARK    3  A    between atoms: N_4  and  C_5
REMARK    4  A    between atoms: C_9  and  C_10
REMARK    5  A    between atoms: C_10  and  C_11
REMARK    6  A    between atoms: C_11  and  N_12
REMARK    7  A    between atoms: N_12  and  C_13
REMARK    8  A    between atoms: C_16  and  C_17
REMARK    9  A    between atoms: C_25  and  O_26
REMARK                            x       y       z     vdW  Elec       q    Type
REMARK                         _______ _______ _______ _____ _____    ______ ____
ROOT
ATOM      1  C   UNL     1      45.806   7.227  11.492  0.00  0.00    +0.000 C 
ENDROOT
BRANCH   1   6
ATOM      2  C   UNL     1      44.588   3.624  10.769  0.00  0.00    +0.000 A 
ATOM      3  C   UNL     1      43.287   3.701  11.260  0.00  0.00    +0.000 A 
ATOM      4  C   UNL     1      42.797   4.902  11.785  0.00  0.00    +0.000 A 
ATOM      5  C   UNL     1      43.605   6.042  11.832  0.00  0.00    +0.000 A 
ATOM      6  C   UNL     1      44.922   5.993  11.367  0.00  0.00    +0.000 A 
ATOM      7  C   UNL     1      45.378   4.780  10.813  0.00  0.00    +0.000 A 
BRANCH   2   8
ATOM      8  N   UNL     1      45.113   2.495  10.105  0.00  0.00    +0.000 N 
ATOM      9  H   UNL     1      45.084   1.668  10.697  0.00  0.00    +0.000 HD
BRANCH   8  12
ATOM     10  C   UNL     1      46.828   1.146   7.045  0.00  0.00    +0.000 C 
ATOM     11  C   UNL     1      46.545   2.196   8.112  0.00  0.00    +0.000 C 
ATOM     12  C   UNL     1      45.100   2.216   8.699  0.00  0.00    +0.000 C 
ATOM     13  C   UNL     1      44.814   3.472   7.849  0.00  0.00    +0.000 C 
ATOM     14  C   UNL     1      46.325   3.649   7.616  0.00  0.00    +0.000 C 
BRANCH  14  15
ATOM     15  O   UNL     1      46.736   3.964   6.271  0.00  0.00    +0.000 OA
ATOM     16  H   UNL     1      47.470   4.596   6.359  0.00  0.00    +0.000 HD
ENDBRANCH  14  15
ENDBRANCH   8  12
ENDBRANCH   2   8
ENDBRANCH   1   6
BRANCH   1  17
ATOM     17  C   UNL     1      46.448   7.366  12.875  0.00  0.00    +0.000 C 
BRANCH  17  18
ATOM     18  N   UNL     1      47.766   6.736  12.999  0.00  0.00    +0.000 N 
ATOM     19  H   UNL     1      48.510   7.426  13.106  0.00  0.00    +0.000 HD
BRANCH  18  20
ATOM     20  C   UNL     1      47.772   5.889  14.143  0.00  0.00    +0.000 A 
ATOM     21  N   UNL     1      47.199   4.668  14.031  0.00  0.00    +0.000 NA
ATOM     22  C   UNL     1      47.203   3.837  15.097  0.00  0.00    +0.000 A 
ATOM     23  C   UNL     1      47.761   4.158  16.319  0.00  0.00    +0.000 A 
ATOM     24  C   UNL     1      48.372   5.410  16.434  0.00  0.00    +0.000 A 
ATOM     25  C   UNL     1      48.393   6.279  15.338  0.00  0.00    +0.000 A 
ATOM     26 CL   UNL     1      49.113   7.836  15.521  0.00  0.00    +0.000 Cl
BRANCH  23  27
ATOM     27  C   UNL     1      47.722   3.243  17.483  0.00  0.00    +0.000 C 
ATOM     28  N   UNL     1      48.814   3.147  18.297  0.00  0.00    +0.000 N 
ATOM     29  O   UNL     1      46.720   2.567  17.713  0.00  0.00    +0.000 OA
ATOM     30  H   UNL     1      49.681   3.648  18.200  0.00  0.00    +0.000 HD
ATOM     31  H   UNL     1      48.739   2.504  19.076  0.00  0.00    +0.000 HD
ENDBRANCH  23  27
ENDBRANCH  18  20
ENDBRANCH  17  18
ENDBRANCH   1  17
TORSDOF 8
ENDMDL
MODEL 4
REMARK VINA RESULT:    -7.272      3.202      3.872
REMARK INTER + INTRA:         -11.134
REMARK INTER:                 -10.420
REMARK INTRA:                  -0.714
REMARK UNBOUND:                -0.674
REMARK  Name = 
REMARK  9 active torsions:
REMARK  status: ('A' for Active; 'I' for Inactive)
REMARK    1  A    between atoms: C_1  and  C_2
REMARK    2  A    between atoms: C_3  and  N_4
REMARK    3  A    between atoms: N_4  and  C_5
REMARK    4  A    between atoms: C_9  and  C_10
REMARK    5  A    between atoms: C_10  and  C_11
REMARK    6  A    between atoms: C_11  and  N_12
REMARK    7  A    between atoms: N_12  and  C_13
REMARK    8  A    between atoms: C_16  and  C_17
REMARK    9  A    between atoms: C_25  and  O_26
REMARK                            x       y       z     vdW  Elec       q    Type
REMARK                         _______ _______ _______ _____ _____    ______ ____
ROOT
ATOM      1  C   UNL     1      44.371   6.205  12.292  0.00  0.00    +0.000 C 
ENDROOT
BRANCH   1   6
ATOM      2  C   UNL     1      46.693   9.271  12.740  0.00  0.00    +0.000 A 
ATOM      3  C   UNL     1      46.042  10.193  11.924  0.00  0.00    +0.000 A 
ATOM      4  C   UNL     1      44.856   9.846  11.267  0.00  0.00    +0.000 A 
ATOM      5  C   UNL     1      44.309   8.568  11.412  0.00  0.00    +0.000 A 
ATOM      6  C   UNL     1      44.948   7.612  12.206  0.00  0.00    +0.000 A 
ATOM      7  C   UNL     1      46.122   7.999  12.881  0.00  0.00    +0.000 A 
BRANCH   2   8
ATOM      8  N   UNL     1      47.814   9.579  13.539  0.00  0.00    +0.000 N 
ATOM      9  H   UNL     1      47.669   9.298  14.507  0.00  0.00    +0.000 HD
BRANCH   8  12
ATOM     10  C   UNL     1      50.676   8.206  11.530  0.00  0.00    +0.000 C 
ATOM     11  C   UNL     1      49.717   8.237  12.713  0.00  0.00    +0.000 C 
ATOM     12  C   UNL     1      49.188   9.640  13.140  0.00  0.00    +0.000 C 
ATOM     13  C   UNL     1      50.156   9.595  14.342  0.00  0.00    +0.000 C 
ATOM     14  C   UNL     1      50.347   8.085  14.122  0.00  0.00    +0.000 C 
BRANCH  14  15
ATOM     15  O   UNL     1      51.698   7.589  14.199  0.00  0.00    +0.000 OA
ATOM     16  H   UNL     1      52.264   8.309  13.870  0.00  0.00    +0.000 HD
ENDBRANCH  14  15
ENDBRANCH   8  12
ENDBRANCH   2   8
ENDBRANCH   1   6
BRANCH   1  17
ATOM     17  C   UNL     1      45.022   5.228  11.310  0.00  0.00    +0.000 C 
BRANCH  17  18
ATOM     18  N   UNL     1      44.409   5.204   9.979  0.00  0.00    +0.000 N 
ATOM     19  H   UNL     1      44.415   6.124   9.539  0.00  0.00    +0.000 HD
BRANCH  18  20
ATOM     20  C   UNL     1      45.134   4.304   9.148  0.00  0.00    +0.000 A 
ATOM     21  N   UNL     1      45.970   4.829   8.222  0.00  0.00    +0.000 NA
ATOM     22  C   UNL     1      46.683   3.997   7.429  0.00  0.00    +0.000 A 
ATOM     23  C   UNL     1      46.611   2.620   7.500  0.00  0.00    +0.000 A 
ATOM     24  C   UNL     1      45.764   2.073   8.468  0.00  0.00    +0.000 A 
ATOM     25  C   UNL     1      45.031   2.915   9.309  0.00  0.00    +0.000 A 
ATOM     26 CL   UNL     1      43.958   2.214  10.465  0.00  0.00    +0.000 Cl
BRANCH  23  27
ATOM     27  C   UNL     1      47.376   1.730   6.597  0.00  0.00    +0.000 C 
ATOM     28  N   UNL     1      48.318   2.267   5.767  0.00  0.00    +0.000 N 
ATOM     29  O   UNL     1      47.163   0.519   6.585  0.00  0.00    +0.000 OA
ATOM     30  H   UNL     1      48.570   3.238   5.693  0.00  0.00    +0.000 HD
ATOM     31  H   UNL     1      48.812   1.617   5.166  0.00  0.00    +0.000 HD
ENDBRANCH  23  27
ENDBRANCH  18  20
ENDBRANCH  17  18
ENDBRANCH   1  17
TORSDOF 8
ENDMDL
MODEL 5
REMARK VINA RESULT:    -7.163      4.050      7.610
REMARK INTER + INTRA:         -10.977
REMARK INTER:                  -9.796
REMARK INTRA:                  -1.181
REMARK UNBOUND:                -0.674
REMARK  Name = 
REMARK  9 active torsions:
REMARK  status: ('A' for Active; 'I' for Inactive)
REMARK    1  A    between atoms: C_1  and  C_2
REMARK    2  A    between atoms: C_3  and  N_4
REMARK    3  A    between atoms: N_4  and  C_5
REMARK    4  A    between atoms: C_9  and  C_10
REMARK    5  A    between atoms: C_10  and  C_11
REMARK    6  A    between atoms: C_11  and  N_12
REMARK    7  A    between atoms: N_12  and  C_13
REMARK    8  A    between atoms: C_16  and  C_17
REMARK    9  A    between atoms: C_25  and  O_26
REMARK                            x       y       z     vdW  Elec       q    Type
REMARK                         _______ _______ _______ _____ _____    ______ ____
ROOT
ATOM      1  C   UNL     1      49.198   8.178  12.036  0.00  0.00    +0.000 C 
ENDROOT
BRANCH   1   6
ATOM      2  C   UNL     1      45.331   8.016  12.098  0.00  0.00    +0.000 A 
ATOM      3  C   UNL     1      45.029   9.375  12.153  0.00  0.00    +0.000 A 
ATOM      4  C   UNL     1      46.051  10.329  12.136  0.00  0.00    +0.000 A 
ATOM      5  C   UNL     1      47.391   9.938  12.070  0.00  0.00    +0.000 A 
ATOM      6  C   UNL     1      47.730   8.582  12.036  0.00  0.00    +0.000 A 
ATOM      7  C   UNL     1      46.679   7.643  12.021  0.00  0.00    +0.000 A 
BRANCH   2   8
ATOM      8  N   UNL     1      44.361   6.998  11.977  0.00  0.00    +0.000 N 
ATOM      9  H   UNL     1      43.971   6.966  11.037  0.00  0.00    +0.000 HD
BRANCH   8  12
ATOM     10  C   UNL     1      45.577   3.478  12.476  0.00  0.00    +0.000 C 
ATOM     11  C   UNL     1      44.762   4.566  11.790  0.00  0.00    +0.000 C 
ATOM     12  C   UNL     1      44.298   5.755  12.686  0.00  0.00    +0.000 C 
ATOM     13  C   UNL     1      42.879   5.147  12.689  0.00  0.00    +0.000 C 
ATOM     14  C   UNL     1      43.272   4.244  11.507  0.00  0.00    +0.000 C 
BRANCH  14  15
ATOM     15  O   UNL     1      42.861   2.865  11.585  0.00  0.00    +0.000 OA
ATOM     16  H   UNL     1      42.521   2.740  12.489  0.00  0.00    +0.000 HD
ENDBRANCH  14  15
ENDBRANCH   8  12
ENDBRANCH   2   8
ENDBRANCH   1   6
BRANCH   1  17
ATOM     17  C   UNL     1      49.587   7.330  13.249  0.00  0.00    +0.000 C 
BRANCH  17  18
ATOM     18  N   UNL     1      49.122   7.858  14.535  0.00  0.00    +0.000 N 
ATOM     19  H   UNL     1      48.323   8.483  14.424  0.00  0.00    +0.000 HD
BRANCH  18  20
ATOM     20  C   UNL     1      48.731   6.774  15.370  0.00  0.00    +0.000 A 
ATOM     21  N   UNL     1      48.033   5.760  14.809  0.00  0.00    +0.000 NA
ATOM     22  C   UNL     1      47.662   4.710  15.576  0.00  0.00    +0.000 A 
ATOM     23  C   UNL     1      47.950   4.603  16.922  0.00  0.00    +0.000 A 
ATOM     24  C   UNL     1      48.689   5.638  17.502  0.00  0.00    +0.000 A 
ATOM     25  C   UNL     1      49.097   6.725  16.724  0.00  0.00    +0.000 A 
ATOM     26 CL   UNL     1      49.967   8.011  17.475  0.00  0.00    +0.000 Cl
BRANCH  23  27
ATOM     27  C   UNL     1      47.503   3.458  17.748  0.00  0.00    +0.000 C 
ATOM     28  N   UNL     1      48.241   3.086  18.835  0.00  0.00    +0.000 N 
ATOM     29  O   UNL     1      46.480   2.839  17.457  0.00  0.00    +0.000 OA
ATOM     30  H   UNL     1      49.089   3.518  19.161  0.00  0.00    +0.000 HD
ATOM     31  H   UNL     1      47.895   2.295  19.365  0.00  0.00    +0.000 HD
ENDBRANCH  23  27
ENDBRANCH  18  20
ENDBRANCH  17  18
ENDBRANCH   1  17
TORSDOF 8
ENDMDL
MODEL 6
REMARK VINA RESULT:    -7.027      3.227      8.021
REMARK INTER + INTRA:         -10.782
REMARK INTER:                  -9.890
REMARK INTRA:                  -0.892
REMARK UNBOUND:                -0.674
REMARK  Name = 
REMARK  9 active torsions:
REMARK  status: ('A' for Active; 'I' for Inactive)
REMARK    1  A    between atoms: C_1  and  C_2
REMARK    2  A    between atoms: C_3  and  N_4
REMARK    3  A    between atoms: N_4  and  C_5
REMARK    4  A    between atoms: C_9  and  C_10
REMARK    5  A    between atoms: C_10  and  C_11
REMARK    6  A    between atoms: C_11  and  N_12
REMARK    7  A    between atoms: N_12  and  C_13
REMARK    8  A    between atoms: C_16  and  C_17
REMARK    9  A    between atoms: C_25  and  O_26
REMARK                            x       y       z     vdW  Elec       q    Type
REMARK                         _______ _______ _______ _____ _____    ______ ____
ROOT
ATOM      1  C   UNL     1      48.938   6.760  14.450  0.00  0.00    +0.000 C 
ENDROOT
BRANCH   1   6
ATOM      2  C   UNL     1      45.537   6.662  12.602  0.00  0.00    +0.000 A 
ATOM      3  C   UNL     1      45.342   8.022  12.375  0.00  0.00    +0.000 A 
ATOM      4  C   UNL     1      46.304   8.953  12.778  0.00  0.00    +0.000 A 
ATOM      5  C   UNL     1      47.473   8.537  13.422  0.00  0.00    +0.000 A 
ATOM      6  C   UNL     1      47.690   7.182  13.685  0.00  0.00    +0.000 A 
ATOM      7  C   UNL     1      46.720   6.263  13.239  0.00  0.00    +0.000 A 
BRANCH   2   8
ATOM      8  N   UNL     1      44.684   5.650  12.112  0.00  0.00    +0.000 N 
ATOM      9  H   UNL     1      43.845   6.044  11.689  0.00  0.00    +0.000 HD
BRANCH   8  12
ATOM     10  C   UNL     1      44.496   3.043   9.413  0.00  0.00    +0.000 C 
ATOM     11  C   UNL     1      43.975   3.811  10.620  0.00  0.00    +0.000 C 
ATOM     12  C   UNL     1      45.048   4.359  11.611  0.00  0.00    +0.000 C 
ATOM     13  C   UNL     1      44.674   3.220  12.582  0.00  0.00    +0.000 C 
ATOM     14  C   UNL     1      43.386   2.968  11.780  0.00  0.00    +0.000 C 
BRANCH  14  15
ATOM     15  O   UNL     1      43.058   1.591  11.504  0.00  0.00    +0.000 OA
ATOM     16  H   UNL     1      42.868   1.185  12.368  0.00  0.00    +0.000 HD
ENDBRANCH  14  15
ENDBRANCH   8  12
ENDBRANCH   2   8
ENDBRANCH   1   6
BRANCH   1  17
ATOM     17  C   UNL     1      48.941   7.239  15.904  0.00  0.00    +0.000 C 
BRANCH  17  18
ATOM     18  N   UNL     1      48.309   6.315  16.850  0.00  0.00    +0.000 N 
ATOM     19  H   UNL     1      47.416   5.967  16.504  0.00  0.00    +0.000 HD
BRANCH  18  20
ATOM     20  C   UNL     1      49.173   5.204  17.064  0.00  0.00    +0.000 A 
ATOM     21  N   UNL     1      50.490   5.451  17.253  0.00  0.00    +0.000 NA
ATOM     22  C   UNL     1      51.331   4.416  17.473  0.00  0.00    +0.000 A 
ATOM     23  C   UNL     1      50.928   3.096  17.514  0.00  0.00    +0.000 A 
ATOM     24  C   UNL     1      49.566   2.836  17.340  0.00  0.00    +0.000 A 
ATOM     25  C   UNL     1      48.677   3.894  17.128  0.00  0.00    +0.000 A 
ATOM     26 CL   UNL     1      47.007   3.543  16.870  0.00  0.00    +0.000 Cl
BRANCH  23  27
ATOM     27  C   UNL     1      51.874   1.976  17.723  0.00  0.00    +0.000 C 
ATOM     28  N   UNL     1      51.395   0.701  17.820  0.00  0.00    +0.000 N 
ATOM     29  O   UNL     1      53.083   2.188  17.818  0.00  0.00    +0.000 OA
ATOM     30  H   UNL     1      50.432   0.416  17.760  0.00  0.00    +0.000 HD
ATOM     31  H   UNL     1      52.082  -0.029  17.967  0.00  0.00    +0.000 HD
ENDBRANCH  23  27
ENDBRANCH  18  20
ENDBRANCH  17  18
ENDBRANCH   1  17
TORSDOF 8
ENDMDL
MODEL 7
REMARK VINA RESULT:    -6.995      1.480      2.002
REMARK INTER + INTRA:         -10.736
REMARK INTER:                 -10.377
REMARK INTRA:                  -0.359
REMARK UNBOUND:                -0.674
REMARK  Name = 
REMARK  9 active torsions:
REMARK  status: ('A' for Active; 'I' for Inactive)
REMARK    1  A    between atoms: C_1  and  C_2
REMARK    2  A    between atoms: C_3  and  N_4
REMARK    3  A    between atoms: N_4  and  C_5
REMARK    4  A    between atoms: C_9  and  C_10
REMARK    5  A    between atoms: C_10  and  C_11
REMARK    6  A    between atoms: C_11  and  N_12
REMARK    7  A    between atoms: N_12  and  C_13
REMARK    8  A    between atoms: C_16  and  C_17
REMARK    9  A    between atoms: C_25  and  O_26
REMARK                            x       y       z     vdW  Elec       q    Type
REMARK                         _______ _______ _______ _____ _____    ______ ____
ROOT
ATOM      1  C   UNL     1      45.404   3.635  12.142  0.00  0.00    +0.000 C 
ENDROOT
BRANCH   1   6
ATOM      2  C   UNL     1      47.483   5.872  14.522  0.00  0.00    +0.000 A 
ATOM      3  C   UNL     1      47.695   6.975  13.699  0.00  0.00    +0.000 A 
ATOM      4  C   UNL     1      47.149   7.015  12.411  0.00  0.00    +0.000 A 
ATOM      5  C   UNL     1      46.389   5.947  11.926  0.00  0.00    +0.000 A 
ATOM      6  C   UNL     1      46.176   4.815  12.718  0.00  0.00    +0.000 A 
ATOM      7  C   UNL     1      46.709   4.816  14.022  0.00  0.00    +0.000 A 
BRANCH   2   8
ATOM      8  N   UNL     1      47.883   5.809  15.873  0.00  0.00    +0.000 N 
ATOM      9  H   UNL     1      47.373   6.480  16.444  0.00  0.00    +0.000 HD
BRANCH   8  12
ATOM     10  C   UNL     1      47.217   2.636  17.772  0.00  0.00    +0.000 C 
ATOM     11  C   UNL     1      47.313   4.147  17.612  0.00  0.00    +0.000 C 
ATOM     12  C   UNL     1      48.372   4.671  16.594  0.00  0.00    +0.000 C 
ATOM     13  C   UNL     1      49.266   5.066  17.788  0.00  0.00    +0.000 C 
ATOM     14  C   UNL     1      48.060   4.918  18.731  0.00  0.00    +0.000 C 
BRANCH  14  15
ATOM     15  O   UNL     1      48.295   4.227  19.974  0.00  0.00    +0.000 OA
ATOM     16  H   UNL     1      49.217   4.422  20.216  0.00  0.00    +0.000 HD
ENDBRANCH  14  15
ENDBRANCH   8  12
ENDBRANCH   2   8
ENDBRANCH   1   6
BRANCH   1  17
ATOM     17  C   UNL     1      43.926   3.947  11.898  0.00  0.00    +0.000 C 
BRANCH  17  18
ATOM     18  N   UNL     1      43.578   4.186  10.493  0.00  0.00    +0.000 N 
ATOM     19  H   UNL     1      43.628   5.176  10.251  0.00  0.00    +0.000 HD
BRANCH  18  20
ATOM     20  C   UNL     1      44.487   3.474   9.661  0.00  0.00    +0.000 A 
ATOM     21  N   UNL     1      44.344   2.131   9.568  0.00  0.00    +0.000 NA
ATOM     22  C   UNL     1      45.184   1.431   8.772  0.00  0.00    +0.000 A 
ATOM     23  C   UNL     1      46.201   2.006   8.037  0.00  0.00    +0.000 A 
ATOM     24  C   UNL     1      46.341   3.395   8.113  0.00  0.00    +0.000 A 
ATOM     25  C   UNL     1      45.472   4.139   8.917  0.00  0.00    +0.000 A 
ATOM     26 CL   UNL     1      45.696   5.847   9.030  0.00  0.00    +0.000 Cl
BRANCH  23  27
ATOM     27  C   UNL     1      47.130   1.213   7.199  0.00  0.00    +0.000 C 
ATOM     28  N   UNL     1      48.268   1.798   6.721  0.00  0.00    +0.000 N 
ATOM     29  O   UNL     1      46.879   0.040   6.926  0.00  0.00    +0.000 OA
ATOM     30  H   UNL     1      48.568   2.745   6.879  0.00  0.00    +0.000 HD
ATOM     31  H   UNL     1      48.868   1.215   6.150  0.00  0.00    +0.000 HD
ENDBRANCH  23  27
ENDBRANCH  18  20
ENDBRANCH  17  18
ENDBRANCH   1  17
TORSDOF 8
ENDMDL
MODEL 8
REMARK VINA RESULT:    -6.877      2.529      3.121
REMARK INTER + INTRA:         -10.567
REMARK INTER:                  -9.432
REMARK INTRA:                  -1.135
REMARK UNBOUND:                -0.674
REMARK  Name = 
REMARK  9 active torsions:
REMARK  status: ('A' for Active; 'I' for Inactive)
REMARK    1  A    between atoms: C_1  and  C_2
REMARK    2  A    between atoms: C_3  and  N_4
REMARK    3  A    between atoms: N_4  and  C_5
REMARK    4  A    between atoms: C_9  and  C_10
REMARK    5  A    between atoms: C_10  and  C_11
REMARK    6  A    between atoms: C_11  and  N_12
REMARK    7  A    between atoms: N_12  and  C_13
REMARK    8  A    between atoms: C_16  and  C_17
REMARK    9  A    between atoms: C_25  and  O_26
REMARK                            x       y       z     vdW  Elec       q    Type
REMARK                         _______ _______ _______ _____ _____    ______ ____
ROOT
ATOM      1  C   UNL     1      44.834   4.186  13.203  0.00  0.00    +0.000 C 
ENDROOT
BRANCH   1   6
ATOM      2  C   UNL     1      47.610   6.866  13.535  0.00  0.00    +0.000 A 
ATOM      3  C   UNL     1      46.915   7.993  13.103  0.00  0.00    +0.000 A 
ATOM      4  C   UNL     1      45.567   7.901  12.743  0.00  0.00    +0.000 A 
ATOM      5  C   UNL     1      44.895   6.676  12.804  0.00  0.00    +0.000 A 
ATOM      6  C   UNL     1      45.568   5.521  13.212  0.00  0.00    +0.000 A 
ATOM      7  C   UNL     1      46.916   5.650  13.600  0.00  0.00    +0.000 A 
BRANCH   2   8
ATOM      8  N   UNL     1      48.926   6.897  14.041  0.00  0.00    +0.000 N 
ATOM      9  H   UNL     1      49.516   7.529  13.503  0.00  0.00    +0.000 HD
BRANCH   8  12
ATOM     10  C   UNL     1      48.343   7.317  17.729  0.00  0.00    +0.000 C 
ATOM     11  C   UNL     1      48.765   7.784  16.342  0.00  0.00    +0.000 C 
ATOM     12  C   UNL     1      49.355   6.696  15.393  0.00  0.00    +0.000 C 
ATOM     13  C   UNL     1      50.758   7.278  15.662  0.00  0.00    +0.000 C 
ATOM     14  C   UNL     1      50.112   8.546  16.247  0.00  0.00    +0.000 C 
BRANCH  14  15
ATOM     15  O   UNL     1      50.681   9.052  17.471  0.00  0.00    +0.000 OA
ATOM     16  H   UNL     1      50.062   8.796  18.177  0.00  0.00    +0.000 HD
ENDBRANCH  14  15
ENDBRANCH   8  12
ENDBRANCH   2   8
ENDBRANCH   1   6
BRANCH   1  17
ATOM     17  C   UNL     1      45.263   3.275  12.051  0.00  0.00    +0.000 C 
BRANCH  17  18
ATOM     18  N   UNL     1      44.360   3.289  10.895  0.00  0.00    +0.000 N 
ATOM     19  H   UNL     1      43.868   4.178  10.808  0.00  0.00    +0.000 HD
BRANCH  18  20
ATOM     20  C   UNL     1      45.118   3.077   9.710  0.00  0.00    +0.000 A 
ATOM     21  N   UNL     1      45.290   1.803   9.286  0.00  0.00    +0.000 NA
ATOM     22  C   UNL     1      45.993   1.572   8.154  0.00  0.00    +0.000 A 
ATOM     23  C   UNL     1      46.562   2.570   7.388  0.00  0.00    +0.000 A 
ATOM     24  C   UNL     1      46.370   3.889   7.809  0.00  0.00    +0.000 A 
ATOM     25  C   UNL     1      45.633   4.150   8.968  0.00  0.00    +0.000 A 
ATOM     26 CL   UNL     1      45.451   5.784   9.492  0.00  0.00    +0.000 Cl
BRANCH  23  27
ATOM     27  C   UNL     1      47.357   2.290   6.170  0.00  0.00    +0.000 C 
ATOM     28  N   UNL     1      47.201   3.083   5.070  0.00  0.00    +0.000 N 
ATOM     29  O   UNL     1      48.145   1.346   6.142  0.00  0.00    +0.000 OA
ATOM     30  H   UNL     1      46.586   3.875   4.983  0.00  0.00    +0.000 HD
ATOM     31  H   UNL     1      47.764   2.848   4.261  0.00  0.00    +0.000 HD
ENDBRANCH  23  27
ENDBRANCH  18  20
ENDBRANCH  17  18
ENDBRANCH   1  17
TORSDOF 8
ENDMDL
MODEL 9
REMARK VINA RESULT:    -6.652      2.862      4.340
REMARK INTER + INTRA:         -10.243
REMARK INTER:                  -9.154
REMARK INTRA:                  -1.088
REMARK UNBOUND:                -0.674
REMARK  Name = 
REMARK  9 active torsions:
REMARK  status: ('A' for Active; 'I' for Inactive)
REMARK    1  A    between atoms: C_1  and  C_2
REMARK    2  A    between atoms: C_3  and  N_4
REMARK    3  A    between atoms: N_4  and  C_5
REMARK    4  A    between atoms: C_9  and  C_10
REMARK    5  A    between atoms: C_10  and  C_11
REMARK    6  A    between atoms: C_11  and  N_12
REMARK    7  A    between atoms: N_12  and  C_13
REMARK    8  A    between atoms: C_16  and  C_17
REMARK    9  A    between atoms: C_25  and  O_26
REMARK                            x       y       z     vdW  Elec       q    Type
REMARK                         _______ _______ _______ _____ _____    ______ ____
ROOT
ATOM      1  C   UNL     1      49.140   8.442  14.360  0.00  0.00    +0.000 C 
ENDROOT
BRANCH   1   6
ATOM      2  C   UNL     1      50.515   6.164  17.172  0.00  0.00    +0.000 A 
ATOM      3  C   UNL     1      51.879   6.230  16.896  0.00  0.00    +0.000 A 
ATOM      4  C   UNL     1      52.352   7.021  15.844  0.00  0.00    +0.000 A 
ATOM      5  C   UNL     1      51.466   7.753  15.048  0.00  0.00    +0.000 A 
ATOM      6  C   UNL     1      50.090   7.692  15.284  0.00  0.00    +0.000 A 
ATOM      7  C   UNL     1      49.644   6.914  16.371  0.00  0.00    +0.000 A 
BRANCH   2   8
ATOM      8  N   UNL     1      49.969   5.500  18.291  0.00  0.00    +0.000 N 
ATOM      9  H   UNL     1      49.360   6.115  18.828  0.00  0.00    +0.000 HD
BRANCH   8  12
ATOM     10  C   UNL     1      49.370   2.140  16.721  0.00  0.00    +0.000 C 
ATOM     11  C   UNL     1      48.976   3.548  17.146  0.00  0.00    +0.000 C 
ATOM     12  C   UNL     1      49.669   4.106  18.427  0.00  0.00    +0.000 C 
ATOM     13  C   UNL     1      48.357   3.855  19.199  0.00  0.00    +0.000 C 
ATOM     14  C   UNL     1      47.609   3.700  17.863  0.00  0.00    +0.000 C 
BRANCH  14  15
ATOM     15  O   UNL     1      46.680   2.603  17.769  0.00  0.00    +0.000 OA
ATOM     16  H   UNL     1      45.937   2.929  17.231  0.00  0.00    +0.000 HD
ENDBRANCH  14  15
ENDBRANCH   8  12
ENDBRANCH   2   8
ENDBRANCH   1   6
BRANCH   1  17
ATOM     17  C   UNL     1      48.273   7.512  13.508  0.00  0.00    +0.000 C 
BRANCH  17  18
ATOM     18  N   UNL     1      46.836   7.594  13.786  0.00  0.00    +0.000 N 
ATOM     19  H   UNL     1      46.472   8.535  13.637  0.00  0.00    +0.000 HD
BRANCH  18  20
ATOM     20  C   UNL     1      46.142   6.702  12.921  0.00  0.00    +0.000 A 
ATOM     21  N   UNL     1      45.559   7.217  11.814  0.00  0.00    +0.000 NA
ATOM     22  C   UNL     1      44.906   6.390  10.966  0.00  0.00    +0.000 A 
ATOM     23  C   UNL     1      44.788   5.029  11.161  0.00  0.00    +0.000 A 
ATOM     24  C   UNL     1      45.406   4.488  12.293  0.00  0.00    +0.000 A 
ATOM     25  C   UNL     1      46.100   5.323  13.173  0.00  0.00    +0.000 A 
ATOM     26 CL   UNL     1      46.814   4.638  14.587  0.00  0.00    +0.000 Cl
BRANCH  23  27
ATOM     27  C   UNL     1      44.038   4.149  10.236  0.00  0.00    +0.000 C 
ATOM     28  N   UNL     1      44.074   4.400   8.894  0.00  0.00    +0.000 N 
ATOM     29  O   UNL     1      43.380   3.204  10.668  0.00  0.00    +0.000 OA
ATOM     30  H   UNL     1      44.574   5.143   8.436  0.00  0.00    +0.000 HD
ATOM     31  H   UNL     1      43.541   3.773   8.304  0.00  0.00    +0.000 HD
ENDBRANCH  23  27
ENDBRANCH  18  20
ENDBRANCH  17  18
ENDBRANCH   1  17
TORSDOF 8
ENDMDL
