MODEL 1
REMARK VINA RESULT:    -7.719      0.000      0.000
REMARK INTER + INTRA:         -10.092
REMARK INTER:                  -9.524
REMARK INTRA:                  -0.568
REMARK UNBOUND:                -0.568
REMARK  Name = 
REMARK  7 active torsions:
REMARK  status: ('A' for Active; 'I' for Inactive)
REMARK    1  A    between atoms: C_1  and  C_2
REMARK    2  A    between atoms: C_2  and  C_3
REMARK    3  A    between atoms: C_2  and  C_4
REMARK    4  A    between atoms: C_2  and  C_5
REMARK    5  A    between atoms: N_7  and  C_8
REMARK    6  A    between atoms: C_8  and  C_9
REMARK    7  A    between atoms: C_12  and  C_13
REMARK                            x       y       z     vdW  Elec       q    Type
REMARK                         _______ _______ _______ _____ _____    ______ ____
ROOT
ATOM      1  C   UNL     1      46.386   7.414  12.301  0.00  0.00    +0.000 A 
ATOM      2  C   UNL     1      45.512   7.032  11.296  0.00  0.00    +0.000 A 
ATOM      3  N   UNL     1      45.262   5.687  11.397  0.00  0.00    +0.000 N 
ATOM      4  C   UNL     1      45.933   5.163  12.480  0.00  0.00    +0.000 A 
ATOM      5  C   UNL     1      45.952   3.860  13.013  0.00  0.00    +0.000 A 
ATOM      6  C   UNL     1      46.737   3.613  14.139  0.00  0.00    +0.000 A 
ATOM      7  C   UNL     1      47.489   4.626  14.715  0.00  0.00    +0.000 A 
ATOM      8  C   UNL     1      47.465   5.919  14.181  0.00  0.00    +0.000 A 
ATOM      9  C   UNL     1      46.665   6.212  13.052  0.00  0.00    +0.000 A 
ENDROOT
BRANCH   1  11
ATOM     10  C   UNL     1      47.220   9.070  14.048  0.00  0.00    +0.000 C 
ATOM     11  C   UNL     1      46.921   8.828  12.548  0.00  0.00    +0.000 C 
ATOM     12  C   UNL     1      45.882   9.878  12.112  0.00  0.00    +0.000 C 
ATOM     13  C   UNL     1      48.243   9.068  11.789  0.00  0.00    +0.000 C 
ENDBRANCH   1  11
BRANCH   3  14
ATOM     14  C   UNL     1      44.300   4.977  10.564  0.00  0.00    +0.000 C 
BRANCH  14  15
ATOM     15  C   UNL     1      44.940   4.097   9.527  0.00  0.00    +0.000 A 
ATOM     16  C   UNL     1      44.867   2.700   9.604  0.00  0.00    +0.000 A 
ATOM     17  C   UNL     1      45.589   1.915   8.706  0.00  0.00    +0.000 A 
ATOM     18  C   UNL     1      46.365   2.559   7.756  0.00  0.00    +0.000 A 
ATOM     19  N   UNL     1      46.415   3.909   7.609  0.00  0.00    +0.000 NA
ATOM     20  C   UNL     1      45.690   4.640   8.486  0.00  0.00    +0.000 A 
BRANCH  18  21
ATOM     21  C   UNL     1      47.290   1.797   6.845  0.00  0.00    +0.000 C 
ATOM     22  N   UNL     1      47.114   0.526   6.636  0.00  0.00    +0.000 NA
ATOM     23  N   UNL     1      48.318   2.392   6.168  0.00  0.00    +0.000 N 
ATOM     24  H   UNL     1      46.295   0.241   7.200  0.00  0.00    +0.000 HD
ATOM     25  H   UNL     1      48.124   3.303   5.775  0.00  0.00    +0.000 HD
ATOM     26  H   UNL     1      48.671   1.750   5.461  0.00  0.00    +0.000 HD
ENDBRANCH  18  21
ENDBRANCH  14  15
ENDBRANCH   3  14
TORSDOF 4
ENDMDL
MODEL 2
REMARK VINA RESULT:    -7.224      1.390      2.980
REMARK INTER + INTRA:          -9.482
REMARK INTER:                  -8.921
REMARK INTRA:                  -0.561
REMARK UNBOUND:                -0.568
REMARK  Name = 
REMARK  7 active torsions:
REMARK  status: ('A' for Active; 'I' for Inactive)
REMARK    1  A    between atoms: C_1  and  C_2
REMARK    2  A    between atoms: C_2  and  C_3
REMARK    3  A    between atoms: C_2  and  C_4
REMARK    4  A    between atoms: C_2  and  C_5
REMARK    5  A    between atoms: N_7  and  C_8
REMARK    6  A    between atoms: C_8  and  C_9
REMARK    7  A    between atoms: C_12  and  C_13
REMARK                            x       y       z     vdW  Elec       q    Type
REMARK                         _______ _______ _______ _____ _____    ______ ____
ROOT
ATOM      1  C   UNL     1      46.654   7.355  12.161  0.00  0.00    +0.000 A 
ATOM      2  C   UNL     1      46.263   6.042  11.952  0.00  0.00    +0.000 A 
ATOM      3  N   UNL     1      44.972   6.020  11.490  0.00  0.00    +0.000 N 
ATOM      4  C   UNL     1      44.497   7.307  11.354  0.00  0.00    +0.000 A 
ATOM      5  C   UNL     1      43.265   7.790  10.877  0.00  0.00    +0.000 A 
ATOM      6  C   UNL     1      43.056   9.169  10.852  0.00  0.00    +0.000 A 
ATOM      7  C   UNL     1      44.039  10.043  11.295  0.00  0.00    +0.000 A 
ATOM      8  C   UNL     1      45.262   9.555  11.768  0.00  0.00    +0.000 A 
ATOM      9  C   UNL     1      45.516   8.163  11.789  0.00  0.00    +0.000 A 
ENDROOT
BRANCH   1  11
ATOM     10  C   UNL     1      49.009   6.642  12.822  0.00  0.00    +0.000 C 
ATOM     11  C   UNL     1      48.020   7.824  12.672  0.00  0.00    +0.000 C 
ATOM     12  C   UNL     1      47.877   8.482  14.058  0.00  0.00    +0.000 C 
ATOM     13  C   UNL     1      48.671   8.825  11.694  0.00  0.00    +0.000 C 
ENDBRANCH   1  11
BRANCH   3  14
ATOM     14  C   UNL     1      44.285   4.807  11.063  0.00  0.00    +0.000 C 
BRANCH  14  15
ATOM     15  C   UNL     1      44.911   4.154   9.863  0.00  0.00    +0.000 A 
ATOM     16  C   UNL     1      44.938   2.762   9.716  0.00  0.00    +0.000 A 
ATOM     17  C   UNL     1      45.648   2.187   8.663  0.00  0.00    +0.000 A 
ATOM     18  C   UNL     1      46.312   3.031   7.788  0.00  0.00    +0.000 A 
ATOM     19  N   UNL     1      46.260   4.387   7.860  0.00  0.00    +0.000 NA
ATOM     20  C   UNL     1      45.549   4.911   8.883  0.00  0.00    +0.000 A 
BRANCH  18  21
ATOM     21  C   UNL     1      47.222   2.497   6.714  0.00  0.00    +0.000 C 
ATOM     22  N   UNL     1      47.924   1.421   6.915  0.00  0.00    +0.000 NA
ATOM     23  N   UNL     1      47.329   3.075   5.479  0.00  0.00    +0.000 N 
ATOM     24  H   UNL     1      47.715   1.105   7.878  0.00  0.00    +0.000 HD
ATOM     25  H   UNL     1      46.466   3.404   5.066  0.00  0.00    +0.000 HD
ATOM     26  H   UNL     1      47.823   2.442   4.853  0.00  0.00    +0.000 HD
ENDBRANCH  18  21
ENDBRANCH  14  15
ENDBRANCH   3  14
TORSDOF 4
ENDMDL
MODEL 3
REMARK VINA RESULT:    -6.604      1.602      2.632
REMARK INTER + INTRA:          -8.716
REMARK INTER:                  -8.283
REMARK INTRA:                  -0.433
REMARK UNBOUND:                -0.568
REMARK  Name = 
REMARK  7 active torsions:
REMARK  status: ('A' for Active; 'I' for Inactive)
REMARK    1  A    between atoms: C_1  and  C_2
REMARK    2  A    between atoms: C_2  and  C_3
REMARK    3  A    between atoms: C_2  and  C_4
REMARK    4  A    between atoms: C_2  and  C_5
REMARK    5  A    between atoms: N_7  and  C_8
REMARK    6  A    between atoms: C_8  and  C_9
REMARK    7  A    between atoms: C_12  and  C_13
REMARK                            x       y       z     vdW  Elec       q    Type
REMARK                         _______ _______ _______ _____ _____    ______ ____
ROOT
ATOM      1  C   UNL     1      44.165   8.510  11.130  0.00  0.00    +0.000 A 
ATOM      2  C   UNL     1      43.629   7.262  10.857  0.00  0.00    +0.000 A 
ATOM      3  N   UNL     1      44.504   6.291  11.268  0.00  0.00    +0.000 N 
ATOM      4  C   UNL     1      45.613   6.869  11.847  0.00  0.00    +0.000 A 
ATOM      5  C   UNL     1      46.744   6.292  12.454  0.00  0.00    +0.000 A 
ATOM      6  C   UNL     1      47.729   7.138  12.965  0.00  0.00    +0.000 A 
ATOM      7  C   UNL     1      47.599   8.516  12.870  0.00  0.00    +0.000 A 
ATOM      8  C   UNL     1      46.470   9.082  12.266  0.00  0.00    +0.000 A 
ATOM      9  C   UNL     1      45.443   8.256  11.754  0.00  0.00    +0.000 A 
ENDROOT
BRANCH   1  11
ATOM     10  C   UNL     1      43.798  10.894  11.952  0.00  0.00    +0.000 C 
ATOM     11  C   UNL     1      43.512   9.864  10.832  0.00  0.00    +0.000 C 
ATOM     12  C   UNL     1      41.982   9.710  10.730  0.00  0.00    +0.000 C 
ATOM     13  C   UNL     1      44.054  10.472   9.522  0.00  0.00    +0.000 C 
ENDBRANCH   1  11
BRANCH   3  14
ATOM     14  C   UNL     1      44.207   4.864  11.230  0.00  0.00    +0.000 C 
BRANCH  14  15
ATOM     15  C   UNL     1      44.779   4.165  10.028  0.00  0.00    +0.000 A 
ATOM     16  C   UNL     1      44.752   2.770   9.908  0.00  0.00    +0.000 A 
ATOM     17  C   UNL     1      45.413   2.149   8.850  0.00  0.00    +0.000 A 
ATOM     18  C   UNL     1      46.086   2.952   7.942  0.00  0.00    +0.000 A 
ATOM     19  N   UNL     1      46.085   4.310   7.988  0.00  0.00    +0.000 NA
ATOM     20  C   UNL     1      45.419   4.879   9.018  0.00  0.00    +0.000 A 
BRANCH  18  21
ATOM     21  C   UNL     1      46.948   2.364   6.858  0.00  0.00    +0.000 C 
ATOM     22  N   UNL     1      47.352   1.130   6.929  0.00  0.00    +0.000 NA
ATOM     23  N   UNL     1      47.313   3.064   5.741  0.00  0.00    +0.000 N 
ATOM     24  H   UNL     1      46.978   0.743   7.813  0.00  0.00    +0.000 HD
ATOM     25  H   UNL     1      46.599   3.651   5.331  0.00  0.00    +0.000 HD
ATOM     26  H   UNL     1      47.705   2.422   5.055  0.00  0.00    +0.000 HD
ENDBRANCH  18  21
ENDBRANCH  14  15
ENDBRANCH   3  14
TORSDOF 4
ENDMDL
MODEL 4
REMARK VINA RESULT:    -6.289      4.374      7.059
REMARK INTER + INTRA:          -8.328
REMARK INTER:                  -7.779
REMARK INTRA:                  -0.549
REMARK UNBOUND:                -0.568
REMARK  Name = 
REMARK  7 active torsions:
REMARK  status: ('A' for Active; 'I' for Inactive)
REMARK    1  A    between atoms: C_1  and  C_2
REMARK    2  A    between atoms: C_2  and  C_3
REMARK    3  A    between atoms: C_2  and  C_4
REMARK    4  A    between atoms: C_2  and  C_5
REMARK    5  A    between atoms: N_7  and  C_8
REMARK    6  A    between atoms: C_8  and  C_9
REMARK    7  A    between atoms: C_12  and  C_13
REMARK                            x       y       z     vdW  Elec       q    Type
REMARK                         _______ _______ _______ _____ _____    ______ ____
ROOT
ATOM      1  C   UNL     1      48.307   6.680  13.846  0.00  0.00    +0.000 A 
ATOM      2  C   UNL     1      48.229   5.994  15.046  0.00  0.00    +0.000 A 
ATOM      3  N   UNL     1      47.181   5.111  14.998  0.00  0.00    +0.000 N 
ATOM      4  C   UNL     1      46.570   5.171  13.764  0.00  0.00    +0.000 A 
ATOM      5  C   UNL     1      45.498   4.435  13.227  0.00  0.00    +0.000 A 
ATOM      6  C   UNL     1      45.083   4.714  11.925  0.00  0.00    +0.000 A 
ATOM      7  C   UNL     1      45.709   5.703  11.180  0.00  0.00    +0.000 A 
ATOM      8  C   UNL     1      46.775   6.431  11.719  0.00  0.00    +0.000 A 
ATOM      9  C   UNL     1      47.235   6.161  13.029  0.00  0.00    +0.000 A 
ENDROOT
BRANCH   1  11
ATOM     10  C   UNL     1      49.957   7.502  12.087  0.00  0.00    +0.000 C 
ATOM     11  C   UNL     1      49.336   7.756  13.482  0.00  0.00    +0.000 C 
ATOM     12  C   UNL     1      50.489   7.763  14.504  0.00  0.00    +0.000 C 
ATOM     13  C   UNL     1      48.689   9.156  13.430  0.00  0.00    +0.000 C 
ENDBRANCH   1  11
BRANCH   3  14
ATOM     14  C   UNL     1      46.880   4.151  16.053  0.00  0.00    +0.000 C 
BRANCH  14  15
ATOM     15  C   UNL     1      48.098   3.463  16.602  0.00  0.00    +0.000 A 
ATOM     16  C   UNL     1      48.817   3.993  17.680  0.00  0.00    +0.000 A 
ATOM     17  C   UNL     1      50.018   3.405  18.073  0.00  0.00    +0.000 A 
ATOM     18  C   UNL     1      50.463   2.299  17.366  0.00  0.00    +0.000 A 
ATOM     19  N   UNL     1      49.766   1.718  16.355  0.00  0.00    +0.000 NA
ATOM     20  C   UNL     1      48.597   2.304  16.012  0.00  0.00    +0.000 A 
BRANCH  18  21
ATOM     21  C   UNL     1      51.816   1.692  17.623  0.00  0.00    +0.000 C 
ATOM     22  N   UNL     1      52.607   2.193  18.525  0.00  0.00    +0.000 NA
ATOM     23  N   UNL     1      52.264   0.579  16.967  0.00  0.00    +0.000 N 
ATOM     24  H   UNL     1      52.116   3.007  18.934  0.00  0.00    +0.000 HD
ATOM     25  H   UNL     1      51.583  -0.153  16.816  0.00  0.00    +0.000 HD
ATOM     26  H   UNL     1      53.094   0.222  17.437  0.00  0.00    +0.000 HD
ENDBRANCH  18  21
ENDBRANCH  14  15
ENDBRANCH   3  14
TORSDOF 4
ENDMDL
MODEL 5
REMARK VINA RESULT:    -6.066      4.298      7.362
REMARK INTER + INTRA:          -8.053
REMARK INTER:                  -7.284
REMARK INTRA:                  -0.769
REMARK UNBOUND:                -0.568
REMARK  Name = 
REMARK  7 active torsions:
REMARK  status: ('A' for Active; 'I' for Inactive)
REMARK    1  A    between atoms: C_1  and  C_2
REMARK    2  A    between atoms: C_2  and  C_3
REMARK    3  A    between atoms: C_2  and  C_4
REMARK    4  A    between atoms: C_2  and  C_5
REMARK    5  A    between atoms: N_7  and  C_8
REMARK    6  A    between atoms: C_8  and  C_9
REMARK    7  A    between atoms: C_12  and  C_13
REMARK                            x       y       z     vdW  Elec       q    Type
REMARK                         _______ _______ _______ _____ _____    ______ ____
ROOT
ATOM      1  C   UNL     1      45.661   4.785  12.868  0.00  0.00    +0.000 A 
ATOM      2  C   UNL     1      45.760   4.315  14.168  0.00  0.00    +0.000 A 
ATOM      3  N   UNL     1      46.805   4.939  14.799  0.00  0.00    +0.000 N 
ATOM      4  C   UNL     1      47.393   5.851  13.948  0.00  0.00    +0.000 A 
ATOM      5  C   UNL     1      48.453   6.753  14.152  0.00  0.00    +0.000 A 
ATOM      6  C   UNL     1      48.843   7.572  13.092  0.00  0.00    +0.000 A 
ATOM      7  C   UNL     1      48.206   7.492  11.863  0.00  0.00    +0.000 A 
ATOM      8  C   UNL     1      47.152   6.593  11.667  0.00  0.00    +0.000 A 
ATOM      9  C   UNL     1      46.716   5.761  12.725  0.00  0.00    +0.000 A 
ENDROOT
BRANCH   1  11
ATOM     10  C   UNL     1      43.662   3.279  12.387  0.00  0.00    +0.000 C 
ATOM     11  C   UNL     1      44.628   4.350  11.823  0.00  0.00    +0.000 C 
ATOM     12  C   UNL     1      45.331   3.735  10.598  0.00  0.00    +0.000 C 
ATOM     13  C   UNL     1      43.754   5.539  11.370  0.00  0.00    +0.000 C 
ENDBRANCH   1  11
BRANCH   3  14
ATOM     14  C   UNL     1      47.124   4.760  16.210  0.00  0.00    +0.000 C 
BRANCH  14  15
ATOM     15  C   UNL     1      48.350   3.923  16.445  0.00  0.00    +0.000 A 
ATOM     16  C   UNL     1      48.342   2.538  16.242  0.00  0.00    +0.000 A 
ATOM     17  C   UNL     1      49.452   1.775  16.603  0.00  0.00    +0.000 A 
ATOM     18  C   UNL     1      50.538   2.430  17.162  0.00  0.00    +0.000 A 
ATOM     19  N   UNL     1      50.609   3.778  17.319  0.00  0.00    +0.000 NA
ATOM     20  C   UNL     1      49.522   4.488  16.942  0.00  0.00    +0.000 A 
BRANCH  18  21
ATOM     21  C   UNL     1      51.715   1.674  17.716  0.00  0.00    +0.000 C 
ATOM     22  N   UNL     1      52.835   2.285  17.972  0.00  0.00    +0.000 NA
ATOM     23  N   UNL     1      51.665   0.340  18.013  0.00  0.00    +0.000 N 
ATOM     24  H   UNL     1      52.699   3.277  17.711  0.00  0.00    +0.000 HD
ATOM     25  H   UNL     1      50.812   0.014  18.447  0.00  0.00    +0.000 HD
ATOM     26  H   UNL     1      52.483   0.087  18.564  0.00  0.00    +0.000 HD
ENDBRANCH  18  21
ENDBRANCH  14  15
ENDBRANCH   3  14
TORSDOF 4
ENDMDL
MODEL 6
REMARK VINA RESULT:    -6.058      2.601      4.357
REMARK INTER + INTRA:          -8.043
REMARK INTER:                  -7.320
REMARK INTRA:                  -0.723
REMARK UNBOUND:                -0.568
REMARK  Name = 
REMARK  7 active torsions:
REMARK  status: ('A' for Active; 'I' for Inactive)
REMARK    1  A    between atoms: C_1  and  C_2
REMARK    2  A    between atoms: C_2  and  C_3
REMARK    3  A    between atoms: C_2  and  C_4
REMARK    4  A    between atoms: C_2  and  C_5
REMARK    5  A    between atoms: N_7  and  C_8
REMARK    6  A    between atoms: C_8  and  C_9
REMARK    7  A    between atoms: C_12  and  C_13
REMARK                            x       y       z     vdW  Elec       q    Type
REMARK                         _______ _______ _______ _____ _____    ______ ____
ROOT
ATOM      1  C   UNL     1      49.567   8.972  12.440  0.00  0.00    +0.000 A 
ATOM      2  C   UNL     1      48.226   8.863  12.107  0.00  0.00    +0.000 A 
ATOM      3  N   UNL     1      47.599   8.042  13.007  0.00  0.00    +0.000 N 
ATOM      4  C   UNL     1      48.495   7.621  13.966  0.00  0.00    +0.000 A 
ATOM      5  C   UNL     1      48.317   6.818  15.107  0.00  0.00    +0.000 A 
ATOM      6  C   UNL     1      49.424   6.550  15.913  0.00  0.00    +0.000 A 
ATOM      7  C   UNL     1      50.674   7.059  15.590  0.00  0.00    +0.000 A 
ATOM      8  C   UNL     1      50.844   7.857  14.454  0.00  0.00    +0.000 A 
ATOM      9  C   UNL     1      49.740   8.165  13.625  0.00  0.00    +0.000 A 
ENDROOT
BRANCH   1  11
ATOM     10  C   UNL     1      51.462  10.661  12.666  0.00  0.00    +0.000 C 
ATOM     11  C   UNL     1      50.623   9.795  11.694  0.00  0.00    +0.000 C 
ATOM     12  C   UNL     1      49.948  10.752  10.693  0.00  0.00    +0.000 C 
ATOM     13  C   UNL     1      51.616   8.884  10.943  0.00  0.00    +0.000 C 
ENDBRANCH   1  11
BRANCH   3  14
ATOM     14  C   UNL     1      46.162   7.796  13.017  0.00  0.00    +0.000 C 
BRANCH  14  15
ATOM     15  C   UNL     1      45.777   6.470  12.423  0.00  0.00    +0.000 A 
ATOM     16  C   UNL     1      45.756   6.264  11.038  0.00  0.00    +0.000 A 
ATOM     17  C   UNL     1      45.261   5.069  10.519  0.00  0.00    +0.000 A 
ATOM     18  C   UNL     1      44.799   4.114  11.411  0.00  0.00    +0.000 A 
ATOM     19  N   UNL     1      44.859   4.249  12.762  0.00  0.00    +0.000 NA
ATOM     20  C   UNL     1      45.360   5.414  13.231  0.00  0.00    +0.000 A 
BRANCH  18  21
ATOM     21  C   UNL     1      44.114   2.860  10.939  0.00  0.00    +0.000 C 
ATOM     22  N   UNL     1      43.068   2.402  11.562  0.00  0.00    +0.000 NA
ATOM     23  N   UNL     1      44.516   2.169   9.830  0.00  0.00    +0.000 N 
ATOM     24  H   UNL     1      42.888   3.043  12.354  0.00  0.00    +0.000 HD
ATOM     25  H   UNL     1      44.794   2.728   9.035  0.00  0.00    +0.000 HD
ATOM     26  H   UNL     1      43.798   1.493   9.576  0.00  0.00    +0.000 HD
ENDBRANCH  18  21
ENDBRANCH  14  15
ENDBRANCH   3  14
TORSDOF 4
ENDMDL
MODEL 7
REMARK VINA RESULT:    -5.828      3.373      7.587
REMARK INTER + INTRA:          -7.759
REMARK INTER:                  -7.555
REMARK INTRA:                  -0.204
REMARK UNBOUND:                -0.568
REMARK  Name = 
REMARK  7 active torsions:
REMARK  status: ('A' for Active; 'I' for Inactive)
REMARK    1  A    between atoms: C_1  and  C_2
REMARK    2  A    between atoms: C_2  and  C_3
REMARK    3  A    between atoms: C_2  and  C_4
REMARK    4  A    between atoms: C_2  and  C_5
REMARK    5  A    between atoms: N_7  and  C_8
REMARK    6  A    between atoms: C_8  and  C_9
REMARK    7  A    between atoms: C_12  and  C_13
REMARK                            x       y       z     vdW  Elec       q    Type
REMARK                         _______ _______ _______ _____ _____    ______ ____
ROOT
ATOM      1  C   UNL     1      45.051   5.586  11.945  0.00  0.00    +0.000 A 
ATOM      2  C   UNL     1      46.240   5.192  12.537  0.00  0.00    +0.000 A 
ATOM      3  N   UNL     1      47.017   6.296  12.776  0.00  0.00    +0.000 N 
ATOM      4  C   UNL     1      46.351   7.436  12.381  0.00  0.00    +0.000 A 
ATOM      5  C   UNL     1      46.713   8.793  12.467  0.00  0.00    +0.000 A 
ATOM      6  C   UNL     1      45.825   9.751  11.978  0.00  0.00    +0.000 A 
ATOM      7  C   UNL     1      44.616   9.373  11.412  0.00  0.00    +0.000 A 
ATOM      8  C   UNL     1      44.262   8.022  11.331  0.00  0.00    +0.000 A 
ATOM      9  C   UNL     1      45.129   7.024  11.835  0.00  0.00    +0.000 A 
ENDROOT
BRANCH   1  11
ATOM     10  C   UNL     1      42.523   5.279  11.863  0.00  0.00    +0.000 C 
ATOM     11  C   UNL     1      43.902   4.667  11.516  0.00  0.00    +0.000 C 
ATOM     12  C   UNL     1      44.000   3.312  12.244  0.00  0.00    +0.000 C 
ATOM     13  C   UNL     1      43.912   4.431   9.992  0.00  0.00    +0.000 C 
ENDBRANCH   1  11
BRANCH   3  14
ATOM     14  C   UNL     1      48.288   6.253  13.488  0.00  0.00    +0.000 C 
BRANCH  14  15
ATOM     15  C   UNL     1      48.144   5.941  14.952  0.00  0.00    +0.000 A 
ATOM     16  C   UNL     1      48.786   6.709  15.932  0.00  0.00    +0.000 A 
ATOM     17  C   UNL     1      48.745   6.309  17.267  0.00  0.00    +0.000 A 
ATOM     18  C   UNL     1      48.059   5.145  17.577  0.00  0.00    +0.000 A 
ATOM     19  N   UNL     1      47.373   4.406  16.666  0.00  0.00    +0.000 NA
ATOM     20  C   UNL     1      47.420   4.832  15.383  0.00  0.00    +0.000 A 
BRANCH  18  21
ATOM     21  C   UNL     1      48.087   4.559  18.963  0.00  0.00    +0.000 C 
ATOM     22  N   UNL     1      48.401   3.311  19.148  0.00  0.00    +0.000 NA
ATOM     23  N   UNL     1      47.829   5.298  20.084  0.00  0.00    +0.000 N 
ATOM     24  H   UNL     1      48.583   2.906  18.213  0.00  0.00    +0.000 HD
ATOM     25  H   UNL     1      48.215   6.232  20.099  0.00  0.00    +0.000 HD
ATOM     26  H   UNL     1      48.108   4.768  20.907  0.00  0.00    +0.000 HD
ENDBRANCH  18  21
ENDBRANCH  14  15
ENDBRANCH   3  14
TORSDOF 4
ENDMDL
MODEL 8
REMARK VINA RESULT:    -5.748      3.590      6.483
REMARK INTER + INTRA:          -7.661
REMARK INTER:                  -6.957
REMARK INTRA:                  -0.704
REMARK UNBOUND:                -0.568
REMARK  Name = 
REMARK  7 active torsions:
REMARK  status: ('A' for Active; 'I' for Inactive)
REMARK    1  A    between atoms: C_1  and  C_2
REMARK    2  A    between atoms: C_2  and  C_3
REMARK    3  A    between atoms: C_2  and  C_4
REMARK    4  A    between atoms: C_2  and  C_5
REMARK    5  A    between atoms: N_7  and  C_8
REMARK    6  A    between atoms: C_8  and  C_9
REMARK    7  A    between atoms: C_12  and  C_13
REMARK                            x       y       z     vdW  Elec       q    Type
REMARK                         _______ _______ _______ _____ _____    ______ ____
ROOT
ATOM      1  C   UNL     1      48.782   6.316  17.536  0.00  0.00    +0.000 A 
ATOM      2  C   UNL     1      48.640   5.805  16.255  0.00  0.00    +0.000 A 
ATOM      3  N   UNL     1      48.516   6.839  15.364  0.00  0.00    +0.000 N 
ATOM      4  C   UNL     1      48.605   8.045  16.025  0.00  0.00    +0.000 A 
ATOM      5  C   UNL     1      48.584   9.367  15.543  0.00  0.00    +0.000 A 
ATOM      6  C   UNL     1      48.696  10.412  16.460  0.00  0.00    +0.000 A 
ATOM      7  C   UNL     1      48.817  10.154  17.818  0.00  0.00    +0.000 A 
ATOM      8  C   UNL     1      48.838   8.837  18.290  0.00  0.00    +0.000 A 
ATOM      9  C   UNL     1      48.747   7.752  17.388  0.00  0.00    +0.000 A 
ENDROOT
BRANCH   1  11
ATOM     10  C   UNL     1      47.877   5.872  19.876  0.00  0.00    +0.000 C 
ATOM     11  C   UNL     1      48.951   5.502  18.823  0.00  0.00    +0.000 C 
ATOM     12  C   UNL     1      50.328   5.778  19.455  0.00  0.00    +0.000 C 
ATOM     13  C   UNL     1      48.804   3.990  18.554  0.00  0.00    +0.000 C 
ENDBRANCH   1  11
BRANCH   3  14
ATOM     14  C   UNL     1      48.459   6.662  13.919  0.00  0.00    +0.000 C 
BRANCH  14  15
ATOM     15  C   UNL     1      47.072   6.401  13.401  0.00  0.00    +0.000 A 
ATOM     16  C   UNL     1      46.540   5.107  13.349  0.00  0.00    +0.000 A 
ATOM     17  C   UNL     1      45.308   4.885  12.735  0.00  0.00    +0.000 A 
ATOM     18  C   UNL     1      44.647   5.974  12.190  0.00  0.00    +0.000 A 
ATOM     19  N   UNL     1      45.099   7.253  12.273  0.00  0.00    +0.000 NA
ATOM     20  C   UNL     1      46.289   7.433  12.890  0.00  0.00    +0.000 A 
BRANCH  18  21
ATOM     21  C   UNL     1      43.388   5.809  11.381  0.00  0.00    +0.000 C 
ATOM     22  N   UNL     1      43.409   5.178  10.244  0.00  0.00    +0.000 NA
ATOM     23  N   UNL     1      42.171   6.266  11.804  0.00  0.00    +0.000 N 
ATOM     24  H   UNL     1      44.389   4.886  10.083  0.00  0.00    +0.000 HD
ATOM     25  H   UNL     1      41.966   6.140  12.787  0.00  0.00    +0.000 HD
ATOM     26  H   UNL     1      41.440   5.866  11.219  0.00  0.00    +0.000 HD
ENDBRANCH  18  21
ENDBRANCH  14  15
ENDBRANCH   3  14
TORSDOF 4
ENDMDL
MODEL 9
REMARK VINA RESULT:    -5.634      2.731      5.014
REMARK INTER + INTRA:          -7.519
REMARK INTER:                  -6.840
REMARK INTRA:                  -0.679
REMARK UNBOUND:                -0.568
REMARK  Name = 
REMARK  7 active torsions:
REMARK  status: ('A' for Active; 'I' for Inactive)
REMARK    1  A    between atoms: C_1  and  C_2
REMARK    2  A    between atoms: C_2  and  C_3
REMARK    3  A    between atoms: C_2  and  C_4
REMARK    4  A    between atoms: C_2  and  C_5
REMARK    5  A    between atoms: N_7  and  C_8
REMARK    6  A    between atoms: C_8  and  C_9
REMARK    7  A    between atoms: C_12  and  C_13
REMARK                            x       y       z     vdW  Elec       q    Type
REMARK                         _______ _______ _______ _____ _____    ______ ____
ROOT
ATOM      1  C   UNL     1      48.473   8.296  14.356  0.00  0.00    +0.000 A 
ATOM      2  C   UNL     1      47.176   7.871  14.118  0.00  0.00    +0.000 A 
ATOM      3  N   UNL     1      46.663   8.555  13.046  0.00  0.00    +0.000 N 
ATOM      4  C   UNL     1      47.612   9.415  12.537  0.00  0.00    +0.000 A 
ATOM      5  C   UNL     1      47.574  10.279  11.428  0.00  0.00    +0.000 A 
ATOM      6  C   UNL     1      48.703  11.046  11.142  0.00  0.00    +0.000 A 
ATOM      7  C   UNL     1      49.835  10.964  11.940  0.00  0.00    +0.000 A 
ATOM      8  C   UNL     1      49.866  10.102  13.042  0.00  0.00    +0.000 A 
ATOM      9  C   UNL     1      48.746   9.294  13.349  0.00  0.00    +0.000 A 
ENDROOT
BRANCH   1  11
ATOM     10  C   UNL     1      48.899   6.454  16.064  0.00  0.00    +0.000 C 
ATOM     11  C   UNL     1      49.406   7.786  15.460  0.00  0.00    +0.000 C 
ATOM     12  C   UNL     1      49.487   8.810  16.608  0.00  0.00    +0.000 C 
ATOM     13  C   UNL     1      50.823   7.515  14.915  0.00  0.00    +0.000 C 
ENDBRANCH   1  11
BRANCH   3  14
ATOM     14  C   UNL     1      45.359   8.278  12.457  0.00  0.00    +0.000 C 
BRANCH  14  15
ATOM     15  C   UNL     1      45.155   6.830  12.105  0.00  0.00    +0.000 A 
ATOM     16  C   UNL     1      45.718   6.269  10.953  0.00  0.00    +0.000 A 
ATOM     17  C   UNL     1      45.395   4.964  10.584  0.00  0.00    +0.000 A 
ATOM     18  C   UNL     1      44.511   4.261  11.387  0.00  0.00    +0.000 A 
ATOM     19  N   UNL     1      43.991   4.747  12.545  0.00  0.00    +0.000 NA
ATOM     20  C   UNL     1      44.339   6.010  12.881  0.00  0.00    +0.000 A 
BRANCH  18  21
ATOM     21  C   UNL     1      43.992   2.906  10.989  0.00  0.00    +0.000 C 
ATOM     22  N   UNL     1      43.046   2.332  11.673  0.00  0.00    +0.000 NA
ATOM     23  N   UNL     1      44.445   2.233   9.888  0.00  0.00    +0.000 N 
ATOM     24  H   UNL     1      42.808   2.973  12.450  0.00  0.00    +0.000 HD
ATOM     25  H   UNL     1      44.611   2.793   9.063  0.00  0.00    +0.000 HD
ATOM     26  H   UNL     1      43.821   1.454   9.690  0.00  0.00    +0.000 HD
ENDBRANCH  18  21
ENDBRANCH  14  15
ENDBRANCH   3  14
TORSDOF 4
ENDMDL
