MODEL 1
REMARK VINA RESULT:    -7.472      0.000      0.000
REMARK INTER + INTRA:          -7.891
REMARK INTER:                  -8.782
REMARK INTRA:                   0.891
REMARK UNBOUND:                 0.891
REMARK  Name = 
REMARK  5 active torsions:
REMARK  status: ('A' for Active; 'I' for Inactive)
REMARK    1  A    between atoms: C_1  and  C_2
REMARK    2  A    between atoms: C_9  and  C_10
REMARK    3  A    between atoms: C_10  and  N_11
REMARK    4  A    between atoms: C_15  and  C_16
REMARK    5  A    between atoms: C_25  and  C_26
REMARK                            x       y       z     vdW  Elec       q    Type
REMARK                         _______ _______ _______ _____ _____    ______ ____
ROOT
ATOM      1  C   UNL     1      48.683   7.422  13.749  0.00  0.00    +0.000 C 
ATOM      2  C   UNL     1      49.357   7.264  12.392  0.00  0.00    +0.000 C 
ATOM      3  C   UNL     1      48.723   8.569  12.747  0.00  0.00    +0.000 C 
ENDROOT
BRANCH   1  12
ATOM      4  C   UNL     1      48.511   6.514  19.697  0.00  0.00    +0.000 C 
ATOM      5  C   UNL     1      49.265   5.187  19.728  0.00  0.00    +0.000 C 
ATOM      6  C   UNL     1      50.602   5.195  18.951  0.00  0.00    +0.000 C 
ATOM      7  N   UNL     1      50.391   5.109  17.506  0.00  0.00    +0.000 N 
ATOM      8  C   UNL     1      50.419   6.283  16.784  0.00  0.00    +0.000 A 
ATOM      9  N   UNL     1      51.159   7.328  17.189  0.00  0.00    +0.000 NA
ATOM     10  C   UNL     1      51.166   8.423  16.400  0.00  0.00    +0.000 A 
ATOM     11  C   UNL     1      50.439   8.532  15.241  0.00  0.00    +0.000 A 
ATOM     12  C   UNL     1      49.675   7.431  14.905  0.00  0.00    +0.000 A 
ATOM     13  N   UNL     1      49.705   6.317  15.661  0.00  0.00    +0.000 NA
ATOM     14  C   UNL     1      49.443   4.065  17.084  0.00  0.00    +0.000 C 
ATOM     15  C   UNL     1      48.137   4.110  17.905  0.00  0.00    +0.000 C 
ATOM     16  C   UNL     1      47.273   2.887  17.606  0.00  0.00    +0.000 C 
ATOM     17  O   UNL     1      48.408   4.101  19.319  0.00  0.00    +0.000 OA
ENDBRANCH   1  12
BRANCH   1  18
ATOM     18  N   UNL     1      47.370   6.796  14.005  0.00  0.00    +0.000 N 
ATOM     19  C   UNL     1      46.651   6.104  13.015  0.00  0.00    +0.000 A 
ATOM     20  C   UNL     1      46.544   6.524  11.691  0.00  0.00    +0.000 A 
ATOM     21  C   UNL     1      45.692   5.840  10.809  0.00  0.00    +0.000 A 
ATOM     22  C   UNL     1      44.969   4.747  11.269  0.00  0.00    +0.000 A 
ATOM     23  C   UNL     1      45.149   4.380  12.593  0.00  0.00    +0.000 A 
ATOM     24  N   UNL     1      45.972   5.027  13.462  0.00  0.00    +0.000 NA
ATOM     25  H   UNL     1      47.315   6.188  14.822  0.00  0.00    +0.000 HD
BRANCH  22  26
ATOM     26  C   UNL     1      43.979   4.007  10.455  0.00  0.00    +0.000 C 
ATOM     27  N   UNL     1      43.882   4.313   9.127  0.00  0.00    +0.000 N 
ATOM     28  O   UNL     1      43.279   3.133  10.948  0.00  0.00    +0.000 OA
ATOM     29  H   UNL     1      44.564   4.865   8.628  0.00  0.00    +0.000 HD
ATOM     30  H   UNL     1      43.252   3.737   8.579  0.00  0.00    +0.000 HD
ENDBRANCH  22  26
ENDBRANCH   1  18
TORSDOF 3
ENDMDL
MODEL 2
REMARK VINA RESULT:    -7.055      2.383      3.702
REMARK INTER + INTRA:          -7.402
REMARK INTER:                  -7.141
REMARK INTRA:                  -0.261
REMARK UNBOUND:                 0.891
REMARK  Name = 
REMARK  5 active torsions:
REMARK  status: ('A' for Active; 'I' for Inactive)
REMARK    1  A    between atoms: C_1  and  C_2
REMARK    2  A    between atoms: C_9  and  C_10
REMARK    3  A    between atoms: C_10  and  N_11
REMARK    4  A    between atoms: C_15  and  C_16
REMARK    5  A    between atoms: C_25  and  C_26
REMARK                            x       y       z     vdW  Elec       q    Type
REMARK                         _______ _______ _______ _____ _____    ______ ____
ROOT
ATOM      1  C   UNL     1      47.920   3.909  16.642  0.00  0.00    +0.000 C 
ATOM      2  C   UNL     1      48.019   2.670  17.525  0.00  0.00    +0.000 C 
ATOM      3  C   UNL     1      48.596   2.636  16.147  0.00  0.00    +0.000 C 
ENDROOT
BRANCH   1  12
ATOM      4  C   UNL     1      52.032   4.774  20.951  0.00  0.00    +0.000 C 
ATOM      5  C   UNL     1      53.258   4.894  20.049  0.00  0.00    +0.000 C 
ATOM      6  C   UNL     1      53.093   5.891  18.880  0.00  0.00    +0.000 C 
ATOM      7  N   UNL     1      52.281   5.332  17.799  0.00  0.00    +0.000 N 
ATOM      8  C   UNL     1      50.945   5.674  17.760  0.00  0.00    +0.000 A 
ATOM      9  N   UNL     1      50.517   6.852  18.240  0.00  0.00    +0.000 NA
ATOM     10  C   UNL     1      49.202   7.128  18.121  0.00  0.00    +0.000 A 
ATOM     11  C   UNL     1      48.288   6.262  17.573  0.00  0.00    +0.000 A 
ATOM     12  C   UNL     1      48.795   5.055  17.130  0.00  0.00    +0.000 A 
ATOM     13  N   UNL     1      50.115   4.797  17.199  0.00  0.00    +0.000 NA
ATOM     14  C   UNL     1      52.652   3.967  17.393  0.00  0.00    +0.000 C 
ATOM     15  C   UNL     1      52.808   3.029  18.609  0.00  0.00    +0.000 C 
ATOM     16  C   UNL     1      53.411   1.692  18.182  0.00  0.00    +0.000 C 
ATOM     17  O   UNL     1      53.690   3.594  19.596  0.00  0.00    +0.000 OA
ENDBRANCH   1  12
BRANCH   1  18
ATOM     18  N   UNL     1      46.632   4.275  16.016  0.00  0.00    +0.000 N 
ATOM     19  C   UNL     1      46.524   4.666  14.671  0.00  0.00    +0.000 A 
ATOM     20  C   UNL     1      47.433   5.501  14.025  0.00  0.00    +0.000 A 
ATOM     21  C   UNL     1      47.168   5.945  12.720  0.00  0.00    +0.000 A 
ATOM     22  C   UNL     1      46.000   5.541  12.087  0.00  0.00    +0.000 A 
ATOM     23  C   UNL     1      45.159   4.692  12.789  0.00  0.00    +0.000 A 
ATOM     24  N   UNL     1      45.400   4.248  14.052  0.00  0.00    +0.000 NA
ATOM     25  H   UNL     1      45.868   3.612  16.144  0.00  0.00    +0.000 HD
BRANCH  22  26
ATOM     26  C   UNL     1      45.576   6.015  10.750  0.00  0.00    +0.000 C 
ATOM     27  N   UNL     1      44.758   7.107  10.685  0.00  0.00    +0.000 N 
ATOM     28  O   UNL     1      45.959   5.458   9.729  0.00  0.00    +0.000 OA
ATOM     29  H   UNL     1      44.582   7.722  11.465  0.00  0.00    +0.000 HD
ATOM     30  H   UNL     1      44.548   7.455   9.755  0.00  0.00    +0.000 HD
ENDBRANCH  22  26
ENDBRANCH   1  18
TORSDOF 3
ENDMDL
MODEL 3
REMARK VINA RESULT:    -6.890      3.506      6.494
REMARK INTER + INTRA:          -7.208
REMARK INTER:                  -6.637
REMARK INTRA:                  -0.571
REMARK UNBOUND:                 0.891
REMARK  Name = 
REMARK  5 active torsions:
REMARK  status: ('A' for Active; 'I' for Inactive)
REMARK    1  A    between atoms: C_1  and  C_2
REMARK    2  A    between atoms: C_9  and  C_10
REMARK    3  A    between atoms: C_10  and  N_11
REMARK    4  A    between atoms: C_15  and  C_16
REMARK    5  A    between atoms: C_25  and  C_26
REMARK                            x       y       z     vdW  Elec       q    Type
REMARK                         _______ _______ _______ _____ _____    ______ ____
ROOT
ATOM      1  C   UNL     1      47.948   8.194  19.023  0.00  0.00    +0.000 C 
ATOM      2  C   UNL     1      47.178   8.810  20.185  0.00  0.00    +0.000 C 
ATOM      3  C   UNL     1      48.429   8.041  20.461  0.00  0.00    +0.000 C 
ENDROOT
BRANCH   1  12
ATOM      4  C   UNL     1      51.615   8.211  14.250  0.00  0.00    +0.000 C 
ATOM      5  C   UNL     1      50.612   8.719  13.217  0.00  0.00    +0.000 C 
ATOM      6  C   UNL     1      49.842   9.988  13.648  0.00  0.00    +0.000 C 
ATOM      7  N   UNL     1      48.784   9.682  14.611  0.00  0.00    +0.000 N 
ATOM      8  C   UNL     1      49.061   9.875  15.948  0.00  0.00    +0.000 A 
ATOM      9  N   UNL     1      49.938  10.810  16.346  0.00  0.00    +0.000 NA
ATOM     10  C   UNL     1      50.116  10.965  17.675  0.00  0.00    +0.000 A 
ATOM     11  C   UNL     1      49.481  10.201  18.623  0.00  0.00    +0.000 A 
ATOM     12  C   UNL     1      48.618   9.237  18.139  0.00  0.00    +0.000 A 
ATOM     13  N   UNL     1      48.397   9.114  16.816  0.00  0.00    +0.000 NA
ATOM     14  C   UNL     1      47.929   8.542  14.244  0.00  0.00    +0.000 C 
ATOM     15  C   UNL     1      48.761   7.314  13.818  0.00  0.00    +0.000 C 
ATOM     16  C   UNL     1      47.859   6.232  13.228  0.00  0.00    +0.000 C 
ATOM     17  O   UNL     1      49.722   7.661  12.803  0.00  0.00    +0.000 OA
ENDBRANCH   1  12
BRANCH   1  18
ATOM     18  N   UNL     1      47.438   6.981  18.351  0.00  0.00    +0.000 N 
ATOM     19  C   UNL     1      48.234   5.846  18.123  0.00  0.00    +0.000 A 
ATOM     20  C   UNL     1      49.564   5.893  17.712  0.00  0.00    +0.000 A 
ATOM     21  C   UNL     1      50.234   4.706  17.379  0.00  0.00    +0.000 A 
ATOM     22  C   UNL     1      49.561   3.495  17.469  0.00  0.00    +0.000 A 
ATOM     23  C   UNL     1      48.248   3.531  17.908  0.00  0.00    +0.000 A 
ATOM     24  N   UNL     1      47.582   4.670  18.239  0.00  0.00    +0.000 NA
ATOM     25  H   UNL     1      46.563   6.603  18.713  0.00  0.00    +0.000 HD
BRANCH  22  26
ATOM     26  C   UNL     1      50.140   2.194  17.062  0.00  0.00    +0.000 C 
ATOM     27  N   UNL     1      51.098   1.639  17.862  0.00  0.00    +0.000 N 
ATOM     28  O   UNL     1      49.760   1.621  16.050  0.00  0.00    +0.000 OA
ATOM     29  H   UNL     1      51.298   1.955  18.799  0.00  0.00    +0.000 HD
ATOM     30  H   UNL     1      51.419   0.713  17.600  0.00  0.00    +0.000 HD
ENDBRANCH  22  26
ENDBRANCH   1  18
TORSDOF 3
ENDMDL
MODEL 4
REMARK VINA RESULT:    -6.821      1.801      2.025
REMARK INTER + INTRA:          -7.126
REMARK INTER:                  -6.627
REMARK INTRA:                  -0.499
REMARK UNBOUND:                 0.891
REMARK  Name = 
REMARK  5 active torsions:
REMARK  status: ('A' for Active; 'I' for Inactive)
REMARK    1  A    between atoms: C_1  and  C_2
REMARK    2  A    between atoms: C_9  and  C_10
REMARK    3  A    between atoms: C_10  and  N_11
REMARK    4  A    between atoms: C_15  and  C_16
REMARK    5  A    between atoms: C_25  and  C_26
REMARK                            x       y       z     vdW  Elec       q    Type
REMARK                         _______ _______ _______ _____ _____    ______ ____
ROOT
ATOM      1  C   UNL     1      49.303   8.113  13.999  0.00  0.00    +0.000 C 
ATOM      2  C   UNL     1      50.622   8.441  13.309  0.00  0.00    +0.000 C 
ATOM      3  C   UNL     1      49.395   9.214  12.950  0.00  0.00    +0.000 C 
ENDROOT
BRANCH   1  12
ATOM      4  C   UNL     1      47.048   5.909  19.126  0.00  0.00    +0.000 C 
ATOM      5  C   UNL     1      48.367   5.494  19.774  0.00  0.00    +0.000 C 
ATOM      6  C   UNL     1      49.450   6.597  19.777  0.00  0.00    +0.000 C 
ATOM      7  N   UNL     1      50.075   6.749  18.463  0.00  0.00    +0.000 N 
ATOM      8  C   UNL     1      49.610   7.758  17.646  0.00  0.00    +0.000 A 
ATOM      9  N   UNL     1      49.093   8.885  18.162  0.00  0.00    +0.000 NA
ATOM     10  C   UNL     1      48.704   9.841  17.293  0.00  0.00    +0.000 A 
ATOM     11  C   UNL     1      48.778   9.707  15.929  0.00  0.00    +0.000 A 
ATOM     12  C   UNL     1      49.290   8.509  15.470  0.00  0.00    +0.000 A 
ATOM     13  N   UNL     1      49.729   7.573  16.333  0.00  0.00    +0.000 NA
ATOM     14  C   UNL     1      50.488   5.487  17.828  0.00  0.00    +0.000 C 
ATOM     15  C   UNL     1      49.364   4.430  17.868  0.00  0.00    +0.000 C 
ATOM     16  C   UNL     1      49.890   3.070  17.414  0.00  0.00    +0.000 C 
ATOM     17  O   UNL     1      48.852   4.261  19.203  0.00  0.00    +0.000 OA
ENDBRANCH   1  12
BRANCH   1  18
ATOM     18  N   UNL     1      48.554   6.893  13.633  0.00  0.00    +0.000 N 
ATOM     19  C   UNL     1      47.303   6.932  12.994  0.00  0.00    +0.000 A 
ATOM     20  C   UNL     1      46.291   7.835  13.312  0.00  0.00    +0.000 A 
ATOM     21  C   UNL     1      45.028   7.708  12.713  0.00  0.00    +0.000 A 
ATOM     22  C   UNL     1      44.805   6.681  11.805  0.00  0.00    +0.000 A 
ATOM     23  C   UNL     1      45.869   5.840  11.526  0.00  0.00    +0.000 A 
ATOM     24  N   UNL     1      47.101   5.949  12.092  0.00  0.00    +0.000 NA
ATOM     25  H   UNL     1      49.075   6.187  13.115  0.00  0.00    +0.000 HD
BRANCH  22  26
ATOM     26  C   UNL     1      43.493   6.400  11.180  0.00  0.00    +0.000 C 
ATOM     27  N   UNL     1      42.586   7.419  11.101  0.00  0.00    +0.000 N 
ATOM     28  O   UNL     1      43.230   5.292  10.730  0.00  0.00    +0.000 OA
ATOM     29  H   UNL     1      42.818   8.387  11.261  0.00  0.00    +0.000 HD
ATOM     30  H   UNL     1      41.728   7.217  10.599  0.00  0.00    +0.000 HD
ENDBRANCH  22  26
ENDBRANCH   1  18
TORSDOF 3
ENDMDL
MODEL 5
REMARK VINA RESULT:    -6.585      2.138      2.863
REMARK INTER + INTRA:          -6.849
REMARK INTER:                  -6.641
REMARK INTRA:                  -0.209
REMARK UNBOUND:                 0.891
REMARK  Name = 
REMARK  5 active torsions:
REMARK  status: ('A' for Active; 'I' for Inactive)
REMARK    1  A    between atoms: C_1  and  C_2
REMARK    2  A    between atoms: C_9  and  C_10
REMARK    3  A    between atoms: C_10  and  N_11
REMARK    4  A    between atoms: C_15  and  C_16
REMARK    5  A    between atoms: C_25  and  C_26
REMARK                            x       y       z     vdW  Elec       q    Type
REMARK                         _______ _______ _______ _____ _____    ______ ____
ROOT
ATOM      1  C   UNL     1      49.116   7.803  13.163  0.00  0.00    +0.000 C 
ATOM      2  C   UNL     1      50.179   7.684  12.078  0.00  0.00    +0.000 C 
ATOM      3  C   UNL     1      48.791   8.089  11.702  0.00  0.00    +0.000 C 
ENDROOT
BRANCH   1  12
ATOM      4  C   UNL     1      47.574   9.341  18.774  0.00  0.00    +0.000 C 
ATOM      5  C   UNL     1      48.953   9.207  19.415  0.00  0.00    +0.000 C 
ATOM      6  C   UNL     1      50.082   9.943  18.657  0.00  0.00    +0.000 C 
ATOM      7  N   UNL     1      50.501   9.213  17.461  0.00  0.00    +0.000 N 
ATOM      8  C   UNL     1      49.970   9.606  16.251  0.00  0.00    +0.000 A 
ATOM      9  N   UNL     1      49.602  10.880  16.038  0.00  0.00    +0.000 NA
ATOM     10  C   UNL     1      49.134  11.191  14.811  0.00  0.00    +0.000 A 
ATOM     11  C   UNL     1      48.987  10.277  13.797  0.00  0.00    +0.000 A 
ATOM     12  C   UNL     1      49.355   8.980  14.099  0.00  0.00    +0.000 A 
ATOM     13  N   UNL     1      49.871   8.675  15.305  0.00  0.00    +0.000 NA
ATOM     14  C   UNL     1      50.740   7.775  17.671  0.00  0.00    +0.000 C 
ATOM     15  C   UNL     1      49.581   7.106  18.439  0.00  0.00    +0.000 C 
ATOM     16  C   UNL     1      49.954   5.681  18.840  0.00  0.00    +0.000 C 
ATOM     17  O   UNL     1      49.276   7.820  19.651  0.00  0.00    +0.000 OA
ENDBRANCH   1  12
BRANCH   1  18
ATOM     18  N   UNL     1      48.523   6.588  13.760  0.00  0.00    +0.000 N 
ATOM     19  C   UNL     1      47.313   6.033  13.310  0.00  0.00    +0.000 A 
ATOM     20  C   UNL     1      46.194   6.782  12.951  0.00  0.00    +0.000 A 
ATOM     21  C   UNL     1      44.988   6.132  12.644  0.00  0.00    +0.000 A 
ATOM     22  C   UNL     1      44.928   4.746  12.698  0.00  0.00    +0.000 A 
ATOM     23  C   UNL     1      46.089   4.074  13.041  0.00  0.00    +0.000 A 
ATOM     24  N   UNL     1      47.269   4.684  13.338  0.00  0.00    +0.000 NA
ATOM     25  H   UNL     1      49.145   5.786  13.854  0.00  0.00    +0.000 HD
BRANCH  22  26
ATOM     26  C   UNL     1      43.691   3.962  12.481  0.00  0.00    +0.000 C 
ATOM     27  N   UNL     1      43.759   2.604  12.611  0.00  0.00    +0.000 N 
ATOM     28  O   UNL     1      42.631   4.512  12.209  0.00  0.00    +0.000 OA
ATOM     29  H   UNL     1      44.539   2.121  13.031  0.00  0.00    +0.000 HD
ATOM     30  H   UNL     1      42.881   2.102  12.534  0.00  0.00    +0.000 HD
ENDBRANCH  22  26
ENDBRANCH   1  18
TORSDOF 3
ENDMDL
MODEL 6
REMARK VINA RESULT:    -6.577      2.179      4.329
REMARK INTER + INTRA:          -6.840
REMARK INTER:                  -6.671
REMARK INTRA:                  -0.169
REMARK UNBOUND:                 0.891
REMARK  Name = 
REMARK  5 active torsions:
REMARK  status: ('A' for Active; 'I' for Inactive)
REMARK    1  A    between atoms: C_1  and  C_2
REMARK    2  A    between atoms: C_9  and  C_10
REMARK    3  A    between atoms: C_10  and  N_11
REMARK    4  A    between atoms: C_15  and  C_16
REMARK    5  A    between atoms: C_25  and  C_26
REMARK                            x       y       z     vdW  Elec       q    Type
REMARK                         _______ _______ _______ _____ _____    ______ ____
ROOT
ATOM      1  C   UNL     1      47.645   4.110  16.522  0.00  0.00    +0.000 C 
ATOM      2  C   UNL     1      47.791   2.787  17.264  0.00  0.00    +0.000 C 
ATOM      3  C   UNL     1      48.443   2.955  15.931  0.00  0.00    +0.000 C 
ENDROOT
BRANCH   1  12
ATOM      4  C   UNL     1      52.618   7.322  15.434  0.00  0.00    +0.000 C 
ATOM      5  C   UNL     1      51.941   8.648  15.094  0.00  0.00    +0.000 C 
ATOM      6  C   UNL     1      50.891   9.111  16.131  0.00  0.00    +0.000 C 
ATOM      7  N   UNL     1      49.637   8.370  16.002  0.00  0.00    +0.000 N 
ATOM      8  C   UNL     1      49.431   7.307  16.856  0.00  0.00    +0.000 A 
ATOM      9  N   UNL     1      49.980   7.286  18.081  0.00  0.00    +0.000 NA
ATOM     10  C   UNL     1      49.691   6.230  18.870  0.00  0.00    +0.000 A 
ATOM     11  C   UNL     1      48.905   5.176  18.476  0.00  0.00    +0.000 A 
ATOM     12  C   UNL     1      48.401   5.250  17.191  0.00  0.00    +0.000 A 
ATOM     13  N   UNL     1      48.644   6.327  16.418  0.00  0.00    +0.000 NA
ATOM     14  C   UNL     1      49.129   8.253  14.625  0.00  0.00    +0.000 C 
ATOM     15  C   UNL     1      50.229   7.795  13.645  0.00  0.00    +0.000 C 
ATOM     16  C   UNL     1      49.741   7.902  12.202  0.00  0.00    +0.000 C 
ATOM     17  O   UNL     1      51.404   8.620  13.755  0.00  0.00    +0.000 OA
ENDBRANCH   1  12
BRANCH   1  18
ATOM     18  N   UNL     1      46.370   4.456  15.861  0.00  0.00    +0.000 N 
ATOM     19  C   UNL     1      46.259   4.644  14.472  0.00  0.00    +0.000 A 
ATOM     20  C   UNL     1      47.204   5.312  13.697  0.00  0.00    +0.000 A 
ATOM     21  C   UNL     1      46.940   5.568  12.342  0.00  0.00    +0.000 A 
ATOM     22  C   UNL     1      45.738   5.146  11.790  0.00  0.00    +0.000 A 
ATOM     23  C   UNL     1      44.862   4.468  12.622  0.00  0.00    +0.000 A 
ATOM     24  N   UNL     1      45.101   4.207  13.936  0.00  0.00    +0.000 NA
ATOM     25  H   UNL     1      45.570   3.870  16.096  0.00  0.00    +0.000 HD
BRANCH  22  26
ATOM     26  C   UNL     1      45.317   5.436  10.401  0.00  0.00    +0.000 C 
ATOM     27  N   UNL     1      43.997   5.283  10.084  0.00  0.00    +0.000 N 
ATOM     28  O   UNL     1      46.122   5.819   9.562  0.00  0.00    +0.000 OA
ATOM     29  H   UNL     1      43.266   5.175  10.770  0.00  0.00    +0.000 HD
ATOM     30  H   UNL     1      43.726   5.564   9.148  0.00  0.00    +0.000 HD
ENDBRANCH  22  26
ENDBRANCH   1  18
TORSDOF 3
ENDMDL
MODEL 7
REMARK VINA RESULT:    -6.531      3.559      7.304
REMARK INTER + INTRA:          -6.785
REMARK INTER:                  -6.256
REMARK INTRA:                  -0.529
REMARK UNBOUND:                 0.891
REMARK  Name = 
REMARK  5 active torsions:
REMARK  status: ('A' for Active; 'I' for Inactive)
REMARK    1  A    between atoms: C_1  and  C_2
REMARK    2  A    between atoms: C_9  and  C_10
REMARK    3  A    between atoms: C_10  and  N_11
REMARK    4  A    between atoms: C_15  and  C_16
REMARK    5  A    between atoms: C_25  and  C_26
REMARK                            x       y       z     vdW  Elec       q    Type
REMARK                         _______ _______ _______ _____ _____    ______ ____
ROOT
ATOM      1  C   UNL     1      48.532   5.811  18.146  0.00  0.00    +0.000 C 
ATOM      2  C   UNL     1      47.146   5.810  18.780  0.00  0.00    +0.000 C 
ATOM      3  C   UNL     1      48.329   5.419  19.604  0.00  0.00    +0.000 C 
ENDROOT
BRANCH   1  12
ATOM      4  C   UNL     1      51.542   8.502  13.682  0.00  0.00    +0.000 C 
ATOM      5  C   UNL     1      50.393   9.344  13.132  0.00  0.00    +0.000 C 
ATOM      6  C   UNL     1      49.635  10.162  14.203  0.00  0.00    +0.000 C 
ATOM      7  N   UNL     1      48.725   9.325  14.984  0.00  0.00    +0.000 N 
ATOM      8  C   UNL     1      49.165   8.872  16.210  0.00  0.00    +0.000 A 
ATOM      9  N   UNL     1      50.047   9.579  16.933  0.00  0.00    +0.000 NA
ATOM     10  C   UNL     1      50.390   9.088  18.142  0.00  0.00    +0.000 A 
ATOM     11  C   UNL     1      49.916   7.902  18.646  0.00  0.00    +0.000 A 
ATOM     12  C   UNL     1      49.038   7.212  17.832  0.00  0.00    +0.000 A 
ATOM     13  N   UNL     1      48.652   7.724  16.647  0.00  0.00    +0.000 NA
ATOM     14  C   UNL     1      47.877   8.425  14.184  0.00  0.00    +0.000 C 
ATOM     15  C   UNL     1      48.696   7.648  13.133  0.00  0.00    +0.000 C 
ATOM     16  C   UNL     1      47.770   6.903  12.174  0.00  0.00    +0.000 C 
ATOM     17  O   UNL     1      49.502   8.536  12.336  0.00  0.00    +0.000 OA
ENDBRANCH   1  12
BRANCH   1  18
ATOM     18  N   UNL     1      48.922   4.738  17.208  0.00  0.00    +0.000 N 
ATOM     19  C   UNL     1      49.972   3.841  17.472  0.00  0.00    +0.000 A 
ATOM     20  C   UNL     1      51.186   4.208  18.048  0.00  0.00    +0.000 A 
ATOM     21  C   UNL     1      52.224   3.268  18.146  0.00  0.00    +0.000 A 
ATOM     22  C   UNL     1      52.024   1.979  17.670  0.00  0.00    +0.000 A 
ATOM     23  C   UNL     1      50.781   1.688  17.131  0.00  0.00    +0.000 A 
ATOM     24  N   UNL     1      49.761   2.584  17.031  0.00  0.00    +0.000 NA
ATOM     25  H   UNL     1      48.167   4.143  16.869  0.00  0.00    +0.000 HD
BRANCH  22  26
ATOM     26  C   UNL     1      53.072   0.934  17.642  0.00  0.00    +0.000 C 
ATOM     27  N   UNL     1      52.822  -0.244  18.286  0.00  0.00    +0.000 N 
ATOM     28  O   UNL     1      54.126   1.110  17.046  0.00  0.00    +0.000 OA
ATOM     29  H   UNL     1      51.908  -0.522  18.610  0.00  0.00    +0.000 HD
ATOM     30  H   UNL     1      53.525  -0.968  18.184  0.00  0.00    +0.000 HD
ENDBRANCH  22  26
ENDBRANCH   1  18
TORSDOF 3
ENDMDL
MODEL 8
REMARK VINA RESULT:    -6.287      2.360      4.177
REMARK INTER + INTRA:          -6.498
REMARK INTER:                  -6.174
REMARK INTRA:                  -0.324
REMARK UNBOUND:                 0.891
REMARK  Name = 
REMARK  5 active torsions:
REMARK  status: ('A' for Active; 'I' for Inactive)
REMARK    1  A    between atoms: C_1  and  C_2
REMARK    2  A    between atoms: C_9  and  C_10
REMARK    3  A    between atoms: C_10  and  N_11
REMARK    4  A    between atoms: C_15  and  C_16
REMARK    5  A    between atoms: C_25  and  C_26
REMARK                            x       y       z     vdW  Elec       q    Type
REMARK                         _______ _______ _______ _____ _____    ______ ____
ROOT
ATOM      1  C   UNL     1      48.018   4.001  16.877  0.00  0.00    +0.000 C 
ATOM      2  C   UNL     1      48.647   2.852  17.656  0.00  0.00    +0.000 C 
ATOM      3  C   UNL     1      49.356   3.403  16.462  0.00  0.00    +0.000 C 
ENDROOT
BRANCH   1  12
ATOM      4  C   UNL     1      51.993   7.270  19.998  0.00  0.00    +0.000 C 
ATOM      5  C   UNL     1      52.116   8.437  19.022  0.00  0.00    +0.000 C 
ATOM      6  C   UNL     1      50.764   9.031  18.565  0.00  0.00    +0.000 C 
ATOM      7  N   UNL     1      50.109   8.188  17.565  0.00  0.00    +0.000 N 
ATOM      8  C   UNL     1      49.131   7.320  18.001  0.00  0.00    +0.000 A 
ATOM      9  N   UNL     1      48.385   7.603  19.081  0.00  0.00    +0.000 NA
ATOM     10  C   UNL     1      47.419   6.721  19.413  0.00  0.00    +0.000 A 
ATOM     11  C   UNL     1      47.188   5.552  18.733  0.00  0.00    +0.000 A 
ATOM     12  C   UNL     1      48.015   5.311  17.653  0.00  0.00    +0.000 A 
ATOM     13  N   UNL     1      48.946   6.213  17.286  0.00  0.00    +0.000 NA
ATOM     14  C   UNL     1      50.984   7.742  16.469  0.00  0.00    +0.000 C 
ATOM     15  C   UNL     1      52.317   7.169  16.995  0.00  0.00    +0.000 C 
ATOM     16  C   UNL     1      53.290   6.928  15.843  0.00  0.00    +0.000 C 
ATOM     17  O   UNL     1      52.957   8.084  17.904  0.00  0.00    +0.000 OA
ENDBRANCH   1  12
BRANCH   1  18
ATOM     18  N   UNL     1      46.864   3.753  15.987  0.00  0.00    +0.000 N 
ATOM     19  C   UNL     1      46.715   4.385  14.741  0.00  0.00    +0.000 A 
ATOM     20  C   UNL     1      47.008   5.727  14.505  0.00  0.00    +0.000 A 
ATOM     21  C   UNL     1      46.697   6.301  13.263  0.00  0.00    +0.000 A 
ATOM     22  C   UNL     1      46.105   5.520  12.279  0.00  0.00    +0.000 A 
ATOM     23  C   UNL     1      45.867   4.190  12.585  0.00  0.00    +0.000 A 
ATOM     24  N   UNL     1      46.164   3.613  13.781  0.00  0.00    +0.000 NA
ATOM     25  H   UNL     1      46.648   2.775  15.797  0.00  0.00    +0.000 HD
BRANCH  22  26
ATOM     26  C   UNL     1      45.656   6.039  10.968  0.00  0.00    +0.000 C 
ATOM     27  N   UNL     1      44.845   7.138  10.955  0.00  0.00    +0.000 N 
ATOM     28  O   UNL     1      46.014   5.513   9.922  0.00  0.00    +0.000 OA
ATOM     29  H   UNL     1      44.690   7.729  11.758  0.00  0.00    +0.000 HD
ATOM     30  H   UNL     1      44.618   7.517  10.042  0.00  0.00    +0.000 HD
ENDBRANCH  22  26
ENDBRANCH   1  18
TORSDOF 3
ENDMDL
MODEL 9
REMARK VINA RESULT:    -6.083      3.736      5.919
REMARK INTER + INTRA:          -6.258
REMARK INTER:                  -5.750
REMARK INTRA:                  -0.508
REMARK UNBOUND:                 0.891
REMARK  Name = 
REMARK  5 active torsions:
REMARK  status: ('A' for Active; 'I' for Inactive)
REMARK    1  A    between atoms: C_1  and  C_2
REMARK    2  A    between atoms: C_9  and  C_10
REMARK    3  A    between atoms: C_10  and  N_11
REMARK    4  A    between atoms: C_15  and  C_16
REMARK    5  A    between atoms: C_25  and  C_26
REMARK                            x       y       z     vdW  Elec       q    Type
REMARK                         _______ _______ _______ _____ _____    ______ ____
ROOT
ATOM      1  C   UNL     1      47.993   4.417  17.411  0.00  0.00    +0.000 C 
ATOM      2  C   UNL     1      47.424   3.004  17.426  0.00  0.00    +0.000 C 
ATOM      3  C   UNL     1      48.841   3.218  17.004  0.00  0.00    +0.000 C 
ENDROOT
BRANCH   1  12
ATOM      4  C   UNL     1      51.090   8.920  19.935  0.00  0.00    +0.000 C 
ATOM      5  C   UNL     1      49.908   9.828  20.264  0.00  0.00    +0.000 C 
ATOM      6  C   UNL     1      48.753   9.124  21.012  0.00  0.00    +0.000 C 
ATOM      7  N   UNL     1      47.945   8.300  20.114  0.00  0.00    +0.000 N 
ATOM      8  C   UNL     1      48.214   6.948  20.069  0.00  0.00    +0.000 A 
ATOM      9  N   UNL     1      48.707   6.305  21.139  0.00  0.00    +0.000 NA
ATOM     10  C   UNL     1      48.898   4.974  21.026  0.00  0.00    +0.000 A 
ATOM     11  C   UNL     1      48.650   4.263  19.878  0.00  0.00    +0.000 A 
ATOM     12  C   UNL     1      48.175   4.996  18.808  0.00  0.00    +0.000 A 
ATOM     13  N   UNL     1      47.933   6.316  18.932  0.00  0.00    +0.000 NA
ATOM     14  C   UNL     1      47.549   8.963  18.860  0.00  0.00    +0.000 C 
ATOM     15  C   UNL     1      48.747   9.651  18.172  0.00  0.00    +0.000 C 
ATOM     16  C   UNL     1      48.273  10.516  17.006  0.00  0.00    +0.000 C 
ATOM     17  O   UNL     1      49.447  10.517  19.083  0.00  0.00    +0.000 OA
ENDBRANCH   1  12
BRANCH   1  18
ATOM     18  N   UNL     1      47.608   5.364  16.344  0.00  0.00    +0.000 N 
ATOM     19  C   UNL     1      48.551   6.064  15.572  0.00  0.00    +0.000 A 
ATOM     20  C   UNL     1      49.716   6.630  16.085  0.00  0.00    +0.000 A 
ATOM     21  C   UNL     1      50.526   7.427  15.261  0.00  0.00    +0.000 A 
ATOM     22  C   UNL     1      50.157   7.636  13.939  0.00  0.00    +0.000 A 
ATOM     23  C   UNL     1      48.997   7.020  13.500  0.00  0.00    +0.000 A 
ATOM     24  N   UNL     1      48.200   6.241  14.281  0.00  0.00    +0.000 NA
ATOM     25  H   UNL     1      46.935   5.018  15.661  0.00  0.00    +0.000 HD
BRANCH  22  26
ATOM     26  C   UNL     1      50.886   8.525  13.006  0.00  0.00    +0.000 C 
ATOM     27  N   UNL     1      51.807   7.962  12.169  0.00  0.00    +0.000 N 
ATOM     28  O   UNL     1      50.662   9.728  12.971  0.00  0.00    +0.000 OA
ATOM     29  H   UNL     1      51.883   6.968  12.008  0.00  0.00    +0.000 HD
ATOM     30  H   UNL     1      52.233   8.582  11.489  0.00  0.00    +0.000 HD
ENDBRANCH  22  26
ENDBRANCH   1  18
TORSDOF 3
ENDMDL
