MODEL 1
REMARK VINA RESULT:    -7.759      0.000      0.000
REMARK INTER + INTRA:         -11.414
REMARK INTER:                 -10.481
REMARK INTRA:                  -0.933
REMARK UNBOUND:                -0.933
REMARK  Name = 
REMARK  8 active torsions:
REMARK  status: ('A' for Active; 'I' for Inactive)
REMARK    1  A    between atoms: C_1  and  O_2
REMARK    2  A    between atoms: O_2  and  C_3
REMARK    3  A    between atoms: N_10  and  C_11
REMARK    4  A    between atoms: C_11  and  C_12
REMARK    5  A    between atoms: C_15  and  C_16
REMARK    6  A    between atoms: C_16  and  N_17
REMARK    7  A    between atoms: C_18  and  C_20
REMARK    8  A    between atoms: N_26  and  C_27
REMARK                            x       y       z     vdW  Elec       q    Type
REMARK                         _______ _______ _______ _____ _____    ______ ____
ROOT
ATOM      1  C   UNL     1      45.291   4.427  11.558  0.00  0.00    +0.000 A 
ATOM      2  C   UNL     1      45.776   4.306  12.868  0.00  0.00    +0.000 A 
ATOM      3  C   UNL     1      46.354   5.405  13.517  0.00  0.00    +0.000 A 
ATOM      4  C   UNL     1      46.446   6.648  12.875  0.00  0.00    +0.000 A 
ATOM      5  C   UNL     1      45.977   6.761  11.560  0.00  0.00    +0.000 A 
ATOM      6  C   UNL     1      45.399   5.666  10.914  0.00  0.00    +0.000 A 
ENDROOT
BRANCH   1   7
ATOM      7  C   UNL     1      44.670   3.255  10.844  0.00  0.00    +0.000 C 
BRANCH   7  15
ATOM      8  C   UNL     1      46.780   1.622   7.354  0.00  0.00    +0.000 A 
ATOM      9  C   UNL     1      47.631   1.751   6.266  0.00  0.00    +0.000 A 
ATOM     10  C   UNL     1      47.462   3.038   5.716  0.00  0.00    +0.000 A 
ATOM     11  C   UNL     1      46.480   3.657   6.448  0.00  0.00    +0.000 A 
ATOM     12  N   UNL     1      46.088   2.829   7.490  0.00  0.00    +0.000 N 
ATOM     13  C   UNL     1      45.137   3.210   8.459  0.00  0.00    +0.000 C 
ATOM     14  O   UNL     1      44.216   3.950   8.147  0.00  0.00    +0.000 OA
ATOM     15  N   UNL     1      45.462   2.794   9.729  0.00  0.00    +0.000 N 
ATOM     16  H   UNL     1      46.324   2.285   9.893  0.00  0.00    +0.000 HD
BRANCH   8  18
ATOM     17  C   UNL     1      46.544  -0.700   7.555  0.00  0.00    +0.000 C 
ATOM     18  O   UNL     1      46.513   0.590   8.165  0.00  0.00    +0.000 OA
ENDBRANCH   8  18
ENDBRANCH   7  15
ENDBRANCH   1   7
BRANCH   4  19
ATOM     19  C   UNL     1      47.054   7.844  13.561  0.00  0.00    +0.000 C 
BRANCH  19  20
ATOM     20  N   UNL     1      47.944   7.469  14.629  0.00  0.00    +0.000 N 
ATOM     21  C   UNL     1      49.295   7.354  14.404  0.00  0.00    +0.000 C 
ATOM     22  O   UNL     1      49.776   7.520  13.289  0.00  0.00    +0.000 OA
ATOM     23  H   UNL     1      47.551   7.300  15.551  0.00  0.00    +0.000 HD
BRANCH  21  24
ATOM     24  C   UNL     1      50.153   7.038  15.561  0.00  0.00    +0.000 A 
ATOM     25  C   UNL     1      51.308   7.788  15.758  0.00  0.00    +0.000 A 
ATOM     26  S   UNL     1      52.171   7.378  17.166  0.00  0.00    +0.000 S 
ATOM     27  C   UNL     1      51.000   6.225  17.601  0.00  0.00    +0.000 A 
ATOM     28  N   UNL     1      51.083   5.584  18.795  0.00  0.00    +0.000 NA
ATOM     29  C   UNL     1      50.166   4.696  18.989  0.00  0.00    +0.000 A 
ATOM     30  N   UNL     1      49.187   4.346  18.084  0.00  0.00    +0.000 N 
ATOM     31  C   UNL     1      48.303   3.238  18.380  0.00  0.00    +0.000 C 
ATOM     32  C   UNL     1      49.049   5.011  16.865  0.00  0.00    +0.000 A 
ATOM     33  O   UNL     1      48.182   4.724  16.043  0.00  0.00    +0.000 OA
ATOM     34  C   UNL     1      50.028   6.066  16.631  0.00  0.00    +0.000 A 
ENDBRANCH  21  24
ENDBRANCH  19  20
ENDBRANCH   4  19
TORSDOF 6
ENDMDL
MODEL 2
REMARK VINA RESULT:    -7.252      4.794      8.332
REMARK INTER + INTRA:         -10.728
REMARK INTER:                  -9.755
REMARK INTRA:                  -0.973
REMARK UNBOUND:                -0.933
REMARK  Name = 
REMARK  8 active torsions:
REMARK  status: ('A' for Active; 'I' for Inactive)
REMARK    1  A    between atoms: C_1  and  O_2
REMARK    2  A    between atoms: O_2  and  C_3
REMARK    3  A    between atoms: N_10  and  C_11
REMARK    4  A    between atoms: C_11  and  C_12
REMARK    5  A    between atoms: C_15  and  C_16
REMARK    6  A    between atoms: C_16  and  N_17
REMARK    7  A    between atoms: C_18  and  C_20
REMARK    8  A    between atoms: N_26  and  C_27
REMARK                            x       y       z     vdW  Elec       q    Type
REMARK                         _______ _______ _______ _____ _____    ______ ____
ROOT
ATOM      1  C   UNL     1      50.343   9.020  11.343  0.00  0.00    +0.000 A 
ATOM      2  C   UNL     1      49.516  10.098  11.692  0.00  0.00    +0.000 A 
ATOM      3  C   UNL     1      48.225   9.871  12.189  0.00  0.00    +0.000 A 
ATOM      4  C   UNL     1      47.744   8.566  12.359  0.00  0.00    +0.000 A 
ATOM      5  C   UNL     1      48.565   7.493  11.993  0.00  0.00    +0.000 A 
ATOM      6  C   UNL     1      49.853   7.718  11.499  0.00  0.00    +0.000 A 
ENDROOT
BRANCH   1   7
ATOM      7  C   UNL     1      51.731   9.246  10.803  0.00  0.00    +0.000 C 
BRANCH   7  15
ATOM      8  C   UNL     1      53.202   6.303   7.893  0.00  0.00    +0.000 A 
ATOM      9  C   UNL     1      53.791   5.089   7.569  0.00  0.00    +0.000 A 
ATOM     10  C   UNL     1      54.755   4.782   8.551  0.00  0.00    +0.000 A 
ATOM     11  C   UNL     1      54.771   5.833   9.433  0.00  0.00    +0.000 A 
ATOM     12  N   UNL     1      53.789   6.749   9.080  0.00  0.00    +0.000 N 
ATOM     13  C   UNL     1      53.514   7.910   9.833  0.00  0.00    +0.000 C 
ATOM     14  O   UNL     1      54.420   8.478  10.424  0.00  0.00    +0.000 OA
ATOM     15  N   UNL     1      52.171   8.188   9.926  0.00  0.00    +0.000 N 
ATOM     16  H   UNL     1      51.492   7.572   9.492  0.00  0.00    +0.000 HD
BRANCH   8  18
ATOM     17  C   UNL     1      52.816   8.020   6.347  0.00  0.00    +0.000 C 
ATOM     18  O   UNL     1      52.293   7.055   7.260  0.00  0.00    +0.000 OA
ENDBRANCH   8  18
ENDBRANCH   7  15
ENDBRANCH   1   7
BRANCH   4  19
ATOM     19  C   UNL     1      46.363   8.302  12.904  0.00  0.00    +0.000 C 
BRANCH  19  20
ATOM     20  N   UNL     1      45.934   6.946  12.678  0.00  0.00    +0.000 N 
ATOM     21  C   UNL     1      44.951   6.668  11.760  0.00  0.00    +0.000 C 
ATOM     22  O   UNL     1      44.378   7.560  11.144  0.00  0.00    +0.000 OA
ATOM     23  H   UNL     1      46.383   6.203  13.206  0.00  0.00    +0.000 HD
BRANCH  21  24
ATOM     24  C   UNL     1      44.616   5.251  11.529  0.00  0.00    +0.000 A 
ATOM     25  C   UNL     1      43.913   4.564  12.513  0.00  0.00    +0.000 A 
ATOM     26  S   UNL     1      43.522   2.962  12.097  0.00  0.00    +0.000 S 
ATOM     27  C   UNL     1      44.221   3.143  10.558  0.00  0.00    +0.000 A 
ATOM     28  N   UNL     1      44.117   2.151   9.639  0.00  0.00    +0.000 NA
ATOM     29  C   UNL     1      44.732   2.385   8.527  0.00  0.00    +0.000 A 
ATOM     30  N   UNL     1      45.487   3.506   8.252  0.00  0.00    +0.000 N 
ATOM     31  C   UNL     1      46.233   3.578   7.012  0.00  0.00    +0.000 C 
ATOM     32  C   UNL     1      45.583   4.561   9.158  0.00  0.00    +0.000 A 
ATOM     33  O   UNL     1      46.243   5.573   8.936  0.00  0.00    +0.000 OA
ATOM     34  C   UNL     1      44.851   4.364  10.404  0.00  0.00    +0.000 A 
ENDBRANCH  21  24
ENDBRANCH  19  20
ENDBRANCH   4  19
TORSDOF 6
ENDMDL
MODEL 3
REMARK VINA RESULT:    -6.632      2.958      9.491
REMARK INTER + INTRA:          -9.890
REMARK INTER:                  -8.936
REMARK INTRA:                  -0.954
REMARK UNBOUND:                -0.933
REMARK  Name = 
REMARK  8 active torsions:
REMARK  status: ('A' for Active; 'I' for Inactive)
REMARK    1  A    between atoms: C_1  and  O_2
REMARK    2  A    between atoms: O_2  and  C_3
REMARK    3  A    between atoms: N_10  and  C_11
REMARK    4  A    between atoms: C_11  and  C_12
REMARK    5  A    between atoms: C_15  and  C_16
REMARK    6  A    between atoms: C_16  and  N_17
REMARK    7  A    between atoms: C_18  and  C_20
REMARK    8  A    between atoms: N_26  and  C_27
REMARK                            x       y       z     vdW  Elec       q    Type
REMARK                         _______ _______ _______ _____ _____    ______ ____
ROOT
ATOM      1  C   UNL     1      49.719   8.337  15.221  0.00  0.00    +0.000 A 
ATOM      2  C   UNL     1      48.503   9.031  15.298  0.00  0.00    +0.000 A 
ATOM      3  C   UNL     1      47.585   8.975  14.240  0.00  0.00    +0.000 A 
ATOM      4  C   UNL     1      47.860   8.216  13.095  0.00  0.00    +0.000 A 
ATOM      5  C   UNL     1      49.082   7.538  13.014  0.00  0.00    +0.000 A 
ATOM      6  C   UNL     1      49.996   7.592  14.069  0.00  0.00    +0.000 A 
ENDROOT
BRANCH   1   7
ATOM      7  C   UNL     1      50.719   8.388  16.348  0.00  0.00    +0.000 C 
BRANCH   7  15
ATOM      8  C   UNL     1      51.651   4.274  17.571  0.00  0.00    +0.000 A 
ATOM      9  C   UNL     1      52.376   3.350  18.310  0.00  0.00    +0.000 A 
ATOM     10  C   UNL     1      53.699   3.819  18.440  0.00  0.00    +0.000 A 
ATOM     11  C   UNL     1      53.772   4.997  17.742  0.00  0.00    +0.000 A 
ATOM     12  N   UNL     1      52.516   5.323  17.249  0.00  0.00    +0.000 N 
ATOM     13  C   UNL     1      52.253   6.513  16.539  0.00  0.00    +0.000 C 
ATOM     14  O   UNL     1      53.119   6.998  15.825  0.00  0.00    +0.000 OA
ATOM     15  N   UNL     1      51.045   7.082  16.868  0.00  0.00    +0.000 N 
ATOM     16  H   UNL     1      50.455   6.653  17.572  0.00  0.00    +0.000 HD
BRANCH   8  18
ATOM     17  C   UNL     1      49.541   3.261  17.668  0.00  0.00    +0.000 C 
ATOM     18  O   UNL     1      50.390   4.269  17.120  0.00  0.00    +0.000 OA
ENDBRANCH   8  18
ENDBRANCH   7  15
ENDBRANCH   1   7
BRANCH   4  19
ATOM     19  C   UNL     1      46.879   8.135  11.953  0.00  0.00    +0.000 C 
BRANCH  19  20
ATOM     20  N   UNL     1      46.414   6.792  11.724  0.00  0.00    +0.000 N 
ATOM     21  C   UNL     1      45.069   6.523  11.635  0.00  0.00    +0.000 C 
ATOM     22  O   UNL     1      44.228   7.401  11.793  0.00  0.00    +0.000 OA
ATOM     23  H   UNL     1      47.103   6.051  11.622  0.00  0.00    +0.000 HD
BRANCH  21  24
ATOM     24  C   UNL     1      44.670   5.137  11.327  0.00  0.00    +0.000 A 
ATOM     25  C   UNL     1      43.899   4.445  12.255  0.00  0.00    +0.000 A 
ATOM     26  S   UNL     1      43.442   2.885  11.750  0.00  0.00    +0.000 S 
ATOM     27  C   UNL     1      44.202   3.100  10.245  0.00  0.00    +0.000 A 
ATOM     28  N   UNL     1      44.079   2.157   9.277  0.00  0.00    +0.000 NA
ATOM     29  C   UNL     1      44.743   2.409   8.199  0.00  0.00    +0.000 A 
ATOM     30  N   UNL     1      45.564   3.499   8.001  0.00  0.00    +0.000 N 
ATOM     31  C   UNL     1      46.355   3.588   6.791  0.00  0.00    +0.000 C 
ATOM     32  C   UNL     1      45.682   4.506   8.959  0.00  0.00    +0.000 A 
ATOM     33  O   UNL     1      46.401   5.491   8.806  0.00  0.00    +0.000 OA
ATOM     34  C   UNL     1      44.899   4.292  10.170  0.00  0.00    +0.000 A 
ENDBRANCH  21  24
ENDBRANCH  19  20
ENDBRANCH   4  19
TORSDOF 6
ENDMDL
MODEL 4
REMARK VINA RESULT:    -6.569      2.531      4.232
REMARK INTER + INTRA:          -9.806
REMARK INTER:                  -8.905
REMARK INTRA:                  -0.900
REMARK UNBOUND:                -0.933
REMARK  Name = 
REMARK  8 active torsions:
REMARK  status: ('A' for Active; 'I' for Inactive)
REMARK    1  A    between atoms: C_1  and  O_2
REMARK    2  A    between atoms: O_2  and  C_3
REMARK    3  A    between atoms: N_10  and  C_11
REMARK    4  A    between atoms: C_11  and  C_12
REMARK    5  A    between atoms: C_15  and  C_16
REMARK    6  A    between atoms: C_16  and  N_17
REMARK    7  A    between atoms: C_18  and  C_20
REMARK    8  A    between atoms: N_26  and  C_27
REMARK                            x       y       z     vdW  Elec       q    Type
REMARK                         _______ _______ _______ _____ _____    ______ ____
ROOT
ATOM      1  C   UNL     1      45.268   3.785  12.078  0.00  0.00    +0.000 A 
ATOM      2  C   UNL     1      46.126   3.038  12.898  0.00  0.00    +0.000 A 
ATOM      3  C   UNL     1      46.868   3.666  13.908  0.00  0.00    +0.000 A 
ATOM      4  C   UNL     1      46.756   5.046  14.125  0.00  0.00    +0.000 A 
ATOM      5  C   UNL     1      45.912   5.791  13.293  0.00  0.00    +0.000 A 
ATOM      6  C   UNL     1      45.171   5.166  12.288  0.00  0.00    +0.000 A 
ENDROOT
BRANCH   1   7
ATOM      7  C   UNL     1      44.466   3.127  10.986  0.00  0.00    +0.000 C 
BRANCH   7  15
ATOM      8  C   UNL     1      46.630   1.639   7.465  0.00  0.00    +0.000 A 
ATOM      9  C   UNL     1      47.535   1.799   6.425  0.00  0.00    +0.000 A 
ATOM     10  C   UNL     1      47.466   3.132   5.972  0.00  0.00    +0.000 A 
ATOM     11  C   UNL     1      46.490   3.752   6.710  0.00  0.00    +0.000 A 
ATOM     12  N   UNL     1      46.005   2.872   7.668  0.00  0.00    +0.000 N 
ATOM     13  C   UNL     1      45.035   3.236   8.625  0.00  0.00    +0.000 C 
ATOM     14  O   UNL     1      44.173   4.053   8.335  0.00  0.00    +0.000 OA
ATOM     15  N   UNL     1      45.279   2.705   9.870  0.00  0.00    +0.000 N 
ATOM     16  H   UNL     1      46.101   2.133  10.028  0.00  0.00    +0.000 HD
BRANCH   8  18
ATOM     17  C   UNL     1      46.518  -0.698   7.568  0.00  0.00    +0.000 C 
ATOM     18  O   UNL     1      46.268   0.567   8.180  0.00  0.00    +0.000 OA
ENDBRANCH   8  18
ENDBRANCH   7  15
ENDBRANCH   1   7
BRANCH   4  19
ATOM     19  C   UNL     1      47.538   5.736  15.214  0.00  0.00    +0.000 C 
BRANCH  19  20
ATOM     20  N   UNL     1      47.898   7.084  14.860  0.00  0.00    +0.000 N 
ATOM     21  C   UNL     1      49.215   7.474  14.841  0.00  0.00    +0.000 C 
ATOM     22  O   UNL     1      50.115   6.709  15.168  0.00  0.00    +0.000 OA
ATOM     23  H   UNL     1      47.155   7.735  14.616  0.00  0.00    +0.000 HD
BRANCH  21  24
ATOM     24  C   UNL     1      49.512   8.849  14.398  0.00  0.00    +0.000 A 
ATOM     25  C   UNL     1      49.077   9.910  15.184  0.00  0.00    +0.000 A 
ATOM     26  S   UNL     1      49.546  11.440  14.605  0.00  0.00    +0.000 S 
ATOM     27  C   UNL     1      50.404  10.740  13.316  0.00  0.00    +0.000 A 
ATOM     28  N   UNL     1      51.153  11.515  12.492  0.00  0.00    +0.000 NA
ATOM     29  C   UNL     1      51.715  10.876  11.521  0.00  0.00    +0.000 A 
ATOM     30  N   UNL     1      51.570   9.530  11.260  0.00  0.00    +0.000 N 
ATOM     31  C   UNL     1      52.150   8.968  10.057  0.00  0.00    +0.000 C 
ATOM     32  C   UNL     1      50.839   8.697  12.107  0.00  0.00    +0.000 A 
ATOM     33  O   UNL     1      50.699   7.494  11.902  0.00  0.00    +0.000 OA
ATOM     34  C   UNL     1      50.238   9.369  13.253  0.00  0.00    +0.000 A 
ENDBRANCH  21  24
ENDBRANCH  19  20
ENDBRANCH   4  19
TORSDOF 6
ENDMDL
MODEL 5
REMARK VINA RESULT:    -6.548      2.639      2.727
REMARK INTER + INTRA:          -9.777
REMARK INTER:                  -9.040
REMARK INTRA:                  -0.737
REMARK UNBOUND:                -0.933
REMARK  Name = 
REMARK  8 active torsions:
REMARK  status: ('A' for Active; 'I' for Inactive)
REMARK    1  A    between atoms: C_1  and  O_2
REMARK    2  A    between atoms: O_2  and  C_3
REMARK    3  A    between atoms: N_10  and  C_11
REMARK    4  A    between atoms: C_11  and  C_12
REMARK    5  A    between atoms: C_15  and  C_16
REMARK    6  A    between atoms: C_16  and  N_17
REMARK    7  A    between atoms: C_18  and  C_20
REMARK    8  A    between atoms: N_26  and  C_27
REMARK                            x       y       z     vdW  Elec       q    Type
REMARK                         _______ _______ _______ _____ _____    ______ ____
ROOT
ATOM      1  C   UNL     1      44.681   4.359  11.329  0.00  0.00    +0.000 A 
ATOM      2  C   UNL     1      44.055   4.813  12.500  0.00  0.00    +0.000 A 
ATOM      3  C   UNL     1      44.432   6.032  13.079  0.00  0.00    +0.000 A 
ATOM      4  C   UNL     1      45.429   6.824  12.495  0.00  0.00    +0.000 A 
ATOM      5  C   UNL     1      46.064   6.360  11.336  0.00  0.00    +0.000 A 
ATOM      6  C   UNL     1      45.687   5.146  10.756  0.00  0.00    +0.000 A 
ENDROOT
BRANCH   1   7
ATOM      7  C   UNL     1      44.290   3.050  10.694  0.00  0.00    +0.000 C 
BRANCH   7  15
ATOM      8  C   UNL     1      46.816   1.536   7.435  0.00  0.00    +0.000 A 
ATOM      9  C   UNL     1      47.797   1.700   6.467  0.00  0.00    +0.000 A 
ATOM     10  C   UNL     1      47.701   3.008   5.950  0.00  0.00    +0.000 A 
ATOM     11  C   UNL     1      46.637   3.606   6.577  0.00  0.00    +0.000 A 
ATOM     12  N   UNL     1      46.116   2.741   7.530  0.00  0.00    +0.000 N 
ATOM     13  C   UNL     1      45.051   3.092   8.386  0.00  0.00    +0.000 C 
ATOM     14  O   UNL     1      44.178   3.850   7.990  0.00  0.00    +0.000 OA
ATOM     15  N   UNL     1      45.214   2.626   9.670  0.00  0.00    +0.000 N 
ATOM     16  H   UNL     1      46.047   2.105   9.921  0.00  0.00    +0.000 HD
BRANCH   8  18
ATOM     17  C   UNL     1      46.545  -0.789   7.512  0.00  0.00    +0.000 C 
ATOM     18  O   UNL     1      46.448   0.476   8.165  0.00  0.00    +0.000 OA
ENDBRANCH   8  18
ENDBRANCH   7  15
ENDBRANCH   1   7
BRANCH   4  19
ATOM     19  C   UNL     1      45.839   8.143  13.098  0.00  0.00    +0.000 C 
BRANCH  19  20
ATOM     20  N   UNL     1      47.144   8.086  13.705  0.00  0.00    +0.000 N 
ATOM     21  C   UNL     1      48.182   8.833  13.203  0.00  0.00    +0.000 C 
ATOM     22  O   UNL     1      48.046   9.529  12.203  0.00  0.00    +0.000 OA
ATOM     23  H   UNL     1      47.274   7.488  14.517  0.00  0.00    +0.000 HD
BRANCH  21  24
ATOM     24  C   UNL     1      49.469   8.779  13.921  0.00  0.00    +0.000 A 
ATOM     25  C   UNL     1      50.615   8.446  13.207  0.00  0.00    +0.000 A 
ATOM     26  S   UNL     1      52.044   8.492  14.130  0.00  0.00    +0.000 S 
ATOM     27  C   UNL     1      51.195   9.023  15.503  0.00  0.00    +0.000 A 
ATOM     28  N   UNL     1      51.866   9.371  16.629  0.00  0.00    +0.000 NA
ATOM     29  C   UNL     1      51.109   9.708  17.620  0.00  0.00    +0.000 A 
ATOM     30  N   UNL     1      49.730   9.691  17.615  0.00  0.00    +0.000 N 
ATOM     31  C   UNL     1      49.008   9.965  18.840  0.00  0.00    +0.000 C 
ATOM     32  C   UNL     1      49.009   9.376  16.463  0.00  0.00    +0.000 A 
ATOM     33  O   UNL     1      47.781   9.359  16.429  0.00  0.00    +0.000 OA
ATOM     34  C   UNL     1      49.827   9.049  15.301  0.00  0.00    +0.000 A 
ENDBRANCH  21  24
ENDBRANCH  19  20
ENDBRANCH   4  19
TORSDOF 6
ENDMDL
MODEL 6
REMARK VINA RESULT:    -6.433      2.303      3.745
REMARK INTER + INTRA:          -9.622
REMARK INTER:                  -8.671
REMARK INTRA:                  -0.951
REMARK UNBOUND:                -0.933
REMARK  Name = 
REMARK  8 active torsions:
REMARK  status: ('A' for Active; 'I' for Inactive)
REMARK    1  A    between atoms: C_1  and  O_2
REMARK    2  A    between atoms: O_2  and  C_3
REMARK    3  A    between atoms: N_10  and  C_11
REMARK    4  A    between atoms: C_11  and  C_12
REMARK    5  A    between atoms: C_15  and  C_16
REMARK    6  A    between atoms: C_16  and  N_17
REMARK    7  A    between atoms: C_18  and  C_20
REMARK    8  A    between atoms: N_26  and  C_27
REMARK                            x       y       z     vdW  Elec       q    Type
REMARK                         _______ _______ _______ _____ _____    ______ ____
ROOT
ATOM      1  C   UNL     1      46.598   8.049  12.159  0.00  0.00    +0.000 A 
ATOM      2  C   UNL     1      46.788   8.823  13.313  0.00  0.00    +0.000 A 
ATOM      3  C   UNL     1      48.059   8.936  13.891  0.00  0.00    +0.000 A 
ATOM      4  C   UNL     1      49.165   8.290  13.321  0.00  0.00    +0.000 A 
ATOM      5  C   UNL     1      48.968   7.504  12.179  0.00  0.00    +0.000 A 
ATOM      6  C   UNL     1      47.701   7.392  11.601  0.00  0.00    +0.000 A 
ENDROOT
BRANCH   1   7
ATOM      7  C   UNL     1      45.237   7.913  11.527  0.00  0.00    +0.000 C 
BRANCH   7  15
ATOM      8  C   UNL     1      44.704   3.712  10.362  0.00  0.00    +0.000 A 
ATOM      9  C   UNL     1      43.970   2.535  10.322  0.00  0.00    +0.000 A 
ATOM     10  C   UNL     1      43.237   2.423  11.521  0.00  0.00    +0.000 A 
ATOM     11  C   UNL     1      43.568   3.509  12.291  0.00  0.00    +0.000 A 
ATOM     12  N   UNL     1      44.422   4.339  11.578  0.00  0.00    +0.000 N 
ATOM     13  C   UNL     1      44.892   5.571  12.078  0.00  0.00    +0.000 C 
ATOM     14  O   UNL     1      45.087   5.705  13.278  0.00  0.00    +0.000 OA
ATOM     15  N   UNL     1      44.938   6.560  11.124  0.00  0.00    +0.000 N 
ATOM     16  H   UNL     1      44.633   6.367  10.176  0.00  0.00    +0.000 HD
BRANCH   8  18
ATOM     17  C   UNL     1      45.401   3.926   8.136  0.00  0.00    +0.000 C 
ATOM     18  O   UNL     1      45.597   4.239   9.515  0.00  0.00    +0.000 OA
ENDBRANCH   8  18
ENDBRANCH   7  15
ENDBRANCH   1   7
BRANCH   4  19
ATOM     19  C   UNL     1      50.542   8.410  13.922  0.00  0.00    +0.000 C 
BRANCH  19  20
ATOM     20  N   UNL     1      50.693   7.608  15.109  0.00  0.00    +0.000 N 
ATOM     21  C   UNL     1      50.563   8.172  16.355  0.00  0.00    +0.000 C 
ATOM     22  O   UNL     1      50.364   9.374  16.497  0.00  0.00    +0.000 OA
ATOM     23  H   UNL     1      50.888   6.616  15.001  0.00  0.00    +0.000 HD
BRANCH  21  24
ATOM     24  C   UNL     1      50.658   7.276  17.522  0.00  0.00    +0.000 A 
ATOM     25  C   UNL     1      51.562   7.589  18.530  0.00  0.00    +0.000 A 
ATOM     26  S   UNL     1      51.523   6.521  19.854  0.00  0.00    +0.000 S 
ATOM     27  C   UNL     1      50.249   5.635  19.159  0.00  0.00    +0.000 A 
ATOM     28  N   UNL     1      49.655   4.633  19.855  0.00  0.00    +0.000 NA
ATOM     29  C   UNL     1      48.736   4.002  19.203  0.00  0.00    +0.000 A 
ATOM     30  N   UNL     1      48.375   4.243  17.894  0.00  0.00    +0.000 N 
ATOM     31  C   UNL     1      47.421   3.369  17.244  0.00  0.00    +0.000 C 
ATOM     32  C   UNL     1      48.938   5.289  17.163  0.00  0.00    +0.000 A 
ATOM     33  O   UNL     1      48.631   5.530  15.999  0.00  0.00    +0.000 OA
ATOM     34  C   UNL     1      49.938   6.069  17.884  0.00  0.00    +0.000 A 
ENDBRANCH  21  24
ENDBRANCH  19  20
ENDBRANCH   4  19
TORSDOF 6
ENDMDL
MODEL 7
REMARK VINA RESULT:    -6.286      6.174      8.782
REMARK INTER + INTRA:          -9.424
REMARK INTER:                  -8.552
REMARK INTRA:                  -0.872
REMARK UNBOUND:                -0.933
REMARK  Name = 
REMARK  8 active torsions:
REMARK  status: ('A' for Active; 'I' for Inactive)
REMARK    1  A    between atoms: C_1  and  O_2
REMARK    2  A    between atoms: O_2  and  C_3
REMARK    3  A    between atoms: N_10  and  C_11
REMARK    4  A    between atoms: C_11  and  C_12
REMARK    5  A    between atoms: C_15  and  C_16
REMARK    6  A    between atoms: C_16  and  N_17
REMARK    7  A    between atoms: C_18  and  C_20
REMARK    8  A    between atoms: N_26  and  C_27
REMARK                            x       y       z     vdW  Elec       q    Type
REMARK                         _______ _______ _______ _____ _____    ______ ____
ROOT
ATOM      1  C   UNL     1      48.790   3.422  17.061  0.00  0.00    +0.000 A 
ATOM      2  C   UNL     1      49.273   2.156  16.697  0.00  0.00    +0.000 A 
ATOM      3  C   UNL     1      50.583   1.777  17.019  0.00  0.00    +0.000 A 
ATOM      4  C   UNL     1      51.428   2.648  17.719  0.00  0.00    +0.000 A 
ATOM      5  C   UNL     1      50.949   3.917  18.065  0.00  0.00    +0.000 A 
ATOM      6  C   UNL     1      49.642   4.295  17.747  0.00  0.00    +0.000 A 
ENDROOT
BRANCH   1   7
ATOM      7  C   UNL     1      47.385   3.847  16.720  0.00  0.00    +0.000 C 
BRANCH   7  15
ATOM      8  C   UNL     1      47.567   6.441  13.180  0.00  0.00    +0.000 A 
ATOM      9  C   UNL     1      46.980   7.076  12.094  0.00  0.00    +0.000 A 
ATOM     10  C   UNL     1      45.964   6.243  11.583  0.00  0.00    +0.000 A 
ATOM     11  C   UNL     1      45.977   5.095  12.335  0.00  0.00    +0.000 A 
ATOM     12  N   UNL     1      46.913   5.219  13.353  0.00  0.00    +0.000 N 
ATOM     13  C   UNL     1      47.117   4.226  14.334  0.00  0.00    +0.000 C 
ATOM     14  O   UNL     1      46.969   3.048  14.045  0.00  0.00    +0.000 OA
ATOM     15  N   UNL     1      47.329   4.744  15.590  0.00  0.00    +0.000 N 
ATOM     16  H   UNL     1      47.309   5.747  15.738  0.00  0.00    +0.000 HD
BRANCH   8  18
ATOM     17  C   UNL     1      48.655   8.141  14.368  0.00  0.00    +0.000 C 
ATOM     18  O   UNL     1      48.603   6.775  13.959  0.00  0.00    +0.000 OA
ENDBRANCH   8  18
ENDBRANCH   7  15
ENDBRANCH   1   7
BRANCH   4  19
ATOM     19  C   UNL     1      52.837   2.252  18.084  0.00  0.00    +0.000 C 
BRANCH  19  20
ATOM     20  N   UNL     1      53.001   0.824  18.164  0.00  0.00    +0.000 N 
ATOM     21  C   UNL     1      54.256   0.267  18.218  0.00  0.00    +0.000 C 
ATOM     22  O   UNL     1      55.267   0.956  18.152  0.00  0.00    +0.000 OA
ATOM     23  H   UNL     1      52.167   0.242  18.189  0.00  0.00    +0.000 HD
BRANCH  21  24
ATOM     24  C   UNL     1      54.344  -1.197  18.373  0.00  0.00    +0.000 A 
ATOM     25  C   UNL     1      54.026  -1.756  19.606  0.00  0.00    +0.000 A 
ATOM     26  S   UNL     1      54.094  -3.456  19.635  0.00  0.00    +0.000 S 
ATOM     27  C   UNL     1      54.489  -3.514  17.983  0.00  0.00    +0.000 A 
ATOM     28  N   UNL     1      54.572  -4.707  17.342  0.00  0.00    +0.000 NA
ATOM     29  C   UNL     1      54.928  -4.625  16.104  0.00  0.00    +0.000 A 
ATOM     30  N   UNL     1      55.258  -3.460  15.442  0.00  0.00    +0.000 N 
ATOM     31  C   UNL     1      55.772  -3.528  14.090  0.00  0.00    +0.000 C 
ATOM     32  C   UNL     1      55.147  -2.214  16.059  0.00  0.00    +0.000 A 
ATOM     33  O   UNL     1      55.428  -1.162  15.492  0.00  0.00    +0.000 OA
ATOM     34  C   UNL     1      54.686  -2.257  17.442  0.00  0.00    +0.000 A 
ENDBRANCH  21  24
ENDBRANCH  19  20
ENDBRANCH   4  19
TORSDOF 6
ENDMDL
MODEL 8
REMARK VINA RESULT:    -6.283      4.567      9.480
REMARK INTER + INTRA:          -9.420
REMARK INTER:                  -8.307
REMARK INTRA:                  -1.113
REMARK UNBOUND:                -0.933
REMARK  Name = 
REMARK  8 active torsions:
REMARK  status: ('A' for Active; 'I' for Inactive)
REMARK    1  A    between atoms: C_1  and  O_2
REMARK    2  A    between atoms: O_2  and  C_3
REMARK    3  A    between atoms: N_10  and  C_11
REMARK    4  A    between atoms: C_11  and  C_12
REMARK    5  A    between atoms: C_15  and  C_16
REMARK    6  A    between atoms: C_16  and  N_17
REMARK    7  A    between atoms: C_18  and  C_20
REMARK    8  A    between atoms: N_26  and  C_27
REMARK                            x       y       z     vdW  Elec       q    Type
REMARK                         _______ _______ _______ _____ _____    ______ ____
ROOT
ATOM      1  C   UNL     1      51.444   3.715  18.020  0.00  0.00    +0.000 A 
ATOM      2  C   UNL     1      50.549   4.755  18.315  0.00  0.00    +0.000 A 
ATOM      3  C   UNL     1      49.188   4.630  18.005  0.00  0.00    +0.000 A 
ATOM      4  C   UNL     1      48.694   3.461  17.409  0.00  0.00    +0.000 A 
ATOM      5  C   UNL     1      49.593   2.433  17.100  0.00  0.00    +0.000 A 
ATOM      6  C   UNL     1      50.949   2.556  17.410  0.00  0.00    +0.000 A 
ENDROOT
BRANCH   1   7
ATOM      7  C   UNL     1      52.910   3.834  18.342  0.00  0.00    +0.000 C 
BRANCH   7  15
ATOM      8  C   UNL     1      55.102   7.241  16.643  0.00  0.00    +0.000 A 
ATOM      9  C   UNL     1      55.536   8.007  15.571  0.00  0.00    +0.000 A 
ATOM     10  C   UNL     1      55.774   7.150  14.477  0.00  0.00    +0.000 A 
ATOM     11  C   UNL     1      55.525   5.873  14.911  0.00  0.00    +0.000 A 
ATOM     12  N   UNL     1      55.059   5.911  16.218  0.00  0.00    +0.000 N 
ATOM     13  C   UNL     1      54.654   4.759  16.924  0.00  0.00    +0.000 C 
ATOM     14  O   UNL     1      55.209   3.691  16.710  0.00  0.00    +0.000 OA
ATOM     15  N   UNL     1      53.536   4.964  17.697  0.00  0.00    +0.000 N 
ATOM     16  H   UNL     1      53.080   5.869  17.704  0.00  0.00    +0.000 HD
BRANCH   8  18
ATOM     17  C   UNL     1      53.785   8.536  18.083  0.00  0.00    +0.000 C 
ATOM     18  O   UNL     1      54.811   7.560  17.911  0.00  0.00    +0.000 OA
ENDBRANCH   8  18
ENDBRANCH   7  15
ENDBRANCH   1   7
BRANCH   4  19
ATOM     19  C   UNL     1      47.231   3.305  17.080  0.00  0.00    +0.000 C 
BRANCH  19  20
ATOM     20  N   UNL     1      46.781   4.272  16.114  0.00  0.00    +0.000 N 
ATOM     21  C   UNL     1      46.898   4.022  14.768  0.00  0.00    +0.000 C 
ATOM     22  O   UNL     1      47.428   2.998  14.350  0.00  0.00    +0.000 OA
ATOM     23  H   UNL     1      46.368   5.138  16.451  0.00  0.00    +0.000 HD
BRANCH  21  24
ATOM     24  C   UNL     1      46.349   5.026  13.838  0.00  0.00    +0.000 A 
ATOM     25  C   UNL     1      45.096   4.799  13.278  0.00  0.00    +0.000 A 
ATOM     26  S   UNL     1      44.541   6.064  12.284  0.00  0.00    +0.000 S 
ATOM     27  C   UNL     1      45.927   6.992  12.614  0.00  0.00    +0.000 A 
ATOM     28  N   UNL     1      46.022   8.264  12.152  0.00  0.00    +0.000 NA
ATOM     29  C   UNL     1      47.142   8.848  12.424  0.00  0.00    +0.000 A 
ATOM     30  N   UNL     1      48.207   8.269  13.081  0.00  0.00    +0.000 N 
ATOM     31  C   UNL     1      49.454   8.997  13.201  0.00  0.00    +0.000 C 
ATOM     32  C   UNL     1      48.128   6.978  13.603  0.00  0.00    +0.000 A 
ATOM     33  O   UNL     1      49.059   6.441  14.197  0.00  0.00    +0.000 OA
ATOM     34  C   UNL     1      46.856   6.304  13.372  0.00  0.00    +0.000 A 
ENDBRANCH  21  24
ENDBRANCH  19  20
ENDBRANCH   4  19
TORSDOF 6
ENDMDL
MODEL 9
REMARK VINA RESULT:    -6.017      4.899      6.929
REMARK INTER + INTRA:          -9.060
REMARK INTER:                  -8.298
REMARK INTRA:                  -0.763
REMARK UNBOUND:                -0.933
REMARK  Name = 
REMARK  8 active torsions:
REMARK  status: ('A' for Active; 'I' for Inactive)
REMARK    1  A    between atoms: C_1  and  O_2
REMARK    2  A    between atoms: O_2  and  C_3
REMARK    3  A    between atoms: N_10  and  C_11
REMARK    4  A    between atoms: C_11  and  C_12
REMARK    5  A    between atoms: C_15  and  C_16
REMARK    6  A    between atoms: C_16  and  N_17
REMARK    7  A    between atoms: C_18  and  C_20
REMARK    8  A    between atoms: N_26  and  C_27
REMARK                            x       y       z     vdW  Elec       q    Type
REMARK                         _______ _______ _______ _____ _____    ______ ____
ROOT
ATOM      1  C   UNL     1      46.691   8.465  12.217  0.00  0.00    +0.000 A 
ATOM      2  C   UNL     1      46.892   9.851  12.122  0.00  0.00    +0.000 A 
ATOM      3  C   UNL     1      48.143  10.363  11.753  0.00  0.00    +0.000 A 
ATOM      4  C   UNL     1      49.210   9.504  11.461  0.00  0.00    +0.000 A 
ATOM      5  C   UNL     1      49.012   8.123  11.574  0.00  0.00    +0.000 A 
ATOM      6  C   UNL     1      47.765   7.610  11.939  0.00  0.00    +0.000 A 
ENDROOT
BRANCH   1   7
ATOM      7  C   UNL     1      45.354   7.897  12.615  0.00  0.00    +0.000 C 
BRANCH   7  15
ATOM      8  C   UNL     1      44.772   4.088  10.507  0.00  0.00    +0.000 A 
ATOM      9  C   UNL     1      44.056   2.927  10.249  0.00  0.00    +0.000 A 
ATOM     10  C   UNL     1      43.453   2.497  11.448  0.00  0.00    +0.000 A 
ATOM     11  C   UNL     1      43.844   3.375  12.427  0.00  0.00    +0.000 A 
ATOM     12  N   UNL     1      44.607   4.387  11.862  0.00  0.00    +0.000 N 
ATOM     13  C   UNL     1      45.106   5.479  12.603  0.00  0.00    +0.000 C 
ATOM     14  O   UNL     1      45.421   5.324  13.773  0.00  0.00    +0.000 OA
ATOM     15  N   UNL     1      45.037   6.671  11.921  0.00  0.00    +0.000 N 
ATOM     16  H   UNL     1      44.639   6.703  10.989  0.00  0.00    +0.000 HD
BRANCH   8  18
ATOM     17  C   UNL     1      45.656   4.442   8.367  0.00  0.00    +0.000 C 
ATOM     18  O   UNL     1      45.564   4.842   9.734  0.00  0.00    +0.000 OA
ENDBRANCH   8  18
ENDBRANCH   7  15
ENDBRANCH   1   7
BRANCH   4  19
ATOM     19  C   UNL     1      50.560  10.038  11.052  0.00  0.00    +0.000 C 
BRANCH  19  20
ATOM     20  N   UNL     1      51.587   9.030  11.106  0.00  0.00    +0.000 N 
ATOM     21  C   UNL     1      52.522   8.931  10.104  0.00  0.00    +0.000 C 
ATOM     22  O   UNL     1      52.485   9.659   9.119  0.00  0.00    +0.000 OA
ATOM     23  H   UNL     1      51.607   8.402  11.905  0.00  0.00    +0.000 HD
BRANCH  21  24
ATOM     24  C   UNL     1      53.587   7.923  10.264  0.00  0.00    +0.000 A 
ATOM     25  C   UNL     1      54.404   7.991  11.387  0.00  0.00    +0.000 A 
ATOM     26  S   UNL     1      55.542   6.730  11.493  0.00  0.00    +0.000 S 
ATOM     27  C   UNL     1      54.943   6.009  10.075  0.00  0.00    +0.000 A 
ATOM     28  N   UNL     1      55.417   4.804   9.669  0.00  0.00    +0.000 NA
ATOM     29  C   UNL     1      54.923   4.384   8.553  0.00  0.00    +0.000 A 
ATOM     30  N   UNL     1      54.023   5.073   7.767  0.00  0.00    +0.000 N 
ATOM     31  C   UNL     1      53.653   4.543   6.471  0.00  0.00    +0.000 C 
ATOM     32  C   UNL     1      53.487   6.295   8.173  0.00  0.00    +0.000 A 
ATOM     33  O   UNL     1      52.680   6.927   7.496  0.00  0.00    +0.000 OA
ATOM     34  C   UNL     1      53.972   6.777   9.461  0.00  0.00    +0.000 A 
ENDBRANCH  21  24
ENDBRANCH  19  20
ENDBRANCH   4  19
TORSDOF 6
ENDMDL
