MODEL 1
REMARK VINA RESULT:    -7.442      0.000      0.000
REMARK INTER + INTRA:         -12.982
REMARK INTER:                 -11.358
REMARK INTRA:                  -1.624
REMARK UNBOUND:                -1.624
REMARK  Name = 
REMARK  11 active torsions:
REMARK  status: ('A' for Active; 'I' for Inactive)
REMARK    1  A    between atoms: C_1  and  C_2
REMARK    2  A    between atoms: C_2  and  C_3
REMARK    3  A    between atoms: C_3  and  C_4
REMARK    4  A    between atoms: C_4  and  N_5
REMARK    5  A    between atoms: C_4  and  C_19
REMARK    6  A    between atoms: C_6  and  C_8
REMARK    7  A    between atoms: N_14  and  C_15
REMARK    8  A    between atoms: C_22  and  C_23
REMARK    9  A    between atoms: C_23  and  N_24
REMARK   10  A    between atoms: N_24  and  C_25
REMARK   11  A    between atoms: C_25  and  C_26
REMARK                            x       y       z     vdW  Elec       q    Type
REMARK                         _______ _______ _______ _____ _____    ______ ____
ROOT
ATOM      1  C   UNL     1      46.971   7.639  13.224  0.00  0.00    +0.000 C 
ENDROOT
BRANCH   1   2
ATOM      2  C   UNL     1      46.065   6.535  12.692  0.00  0.00    +0.000 A 
ATOM      3  C   UNL     1      46.427   5.202  12.944  0.00  0.00    +0.000 A 
ATOM      4  C   UNL     1      45.665   4.140  12.455  0.00  0.00    +0.000 A 
ATOM      5  C   UNL     1      44.508   4.374  11.701  0.00  0.00    +0.000 A 
ATOM      6  C   UNL     1      44.167   5.698  11.400  0.00  0.00    +0.000 A 
ATOM      7  C   UNL     1      44.942   6.766  11.883  0.00  0.00    +0.000 A 
BRANCH   5   8
ATOM      8  C   UNL     1      43.645   3.205  11.270  0.00  0.00    +0.000 C 
BRANCH   8   9
ATOM      9  N   UNL     1      44.379   2.387  10.308  0.00  0.00    +0.000 NA
ATOM     10  H   UNL     1      43.885   1.503  10.177  0.00  0.00    +0.000 HD
BRANCH   9  11
ATOM     11  C   UNL     1      44.532   3.031   9.004  0.00  0.00    +0.000 C 
BRANCH  11  12
ATOM     12  C   UNL     1      45.671   2.399   8.241  0.00  0.00    +0.000 A 
ATOM     13  N   UNL     1      46.023   1.130   8.345  0.00  0.00    +0.000 NA
ATOM     14  C   UNL     1      47.129   0.889   7.553  0.00  0.00    +0.000 A 
ATOM     15  C   UNL     1      47.607   1.971   6.848  0.00  0.00    +0.000 A 
ATOM     16  S   UNL     1      46.643   3.348   7.179  0.00  0.00    +0.000 S 
ENDBRANCH  11  12
ENDBRANCH   9  11
ENDBRANCH   8   9
ENDBRANCH   5   8
ENDBRANCH   1   2
BRANCH   1  17
ATOM     17  N   UNL     1      47.940   7.020  14.111  0.00  0.00    +0.000 N 
ATOM     18  C   UNL     1      48.558   7.699  15.129  0.00  0.00    +0.000 C 
ATOM     19  O   UNL     1      48.242   8.838  15.455  0.00  0.00    +0.000 OA
ATOM     20  H   UNL     1      48.365   6.173  13.752  0.00  0.00    +0.000 HD
BRANCH  18  21
ATOM     21  C   UNL     1      49.584   6.941  15.853  0.00  0.00    +0.000 A 
ATOM     22  C   UNL     1      50.883   7.423  15.922  0.00  0.00    +0.000 A 
ATOM     23  S   UNL     1      51.903   6.479  16.915  0.00  0.00    +0.000 S 
ATOM     24  C   UNL     1      50.652   5.369  17.238  0.00  0.00    +0.000 A 
ATOM     25  N   UNL     1      50.849   4.311  18.065  0.00  0.00    +0.000 NA
ATOM     26  C   UNL     1      49.821   3.536  18.196  0.00  0.00    +0.000 A 
ATOM     27  N   UNL     1      48.608   3.699  17.562  0.00  0.00    +0.000 N 
ATOM     28  C   UNL     1      47.535   2.747  17.756  0.00  0.00    +0.000 C 
ATOM     29  C   UNL     1      48.376   4.768  16.703  0.00  0.00    +0.000 A 
ATOM     30  O   UNL     1      47.311   4.926  16.112  0.00  0.00    +0.000 OA
ATOM     31  C   UNL     1      49.488   5.692  16.572  0.00  0.00    +0.000 A 
ENDBRANCH  18  21
ENDBRANCH   1  17
BRANCH   1  32
ATOM     32  C   UNL     1      47.720   8.503  12.185  0.00  0.00    +0.000 C 
BRANCH  32  34
ATOM     33  C   UNL     1      50.212   8.420  11.621  0.00  0.00    +0.000 C 
ATOM     34  C   UNL     1      48.836   7.807  11.405  0.00  0.00    +0.000 C 
ENDBRANCH  32  34
ENDBRANCH   1  32
TORSDOF 9
ENDMDL
MODEL 2
REMARK VINA RESULT:    -7.361      1.745      2.040
REMARK INTER + INTRA:         -12.858
REMARK INTER:                 -11.375
REMARK INTRA:                  -1.483
REMARK UNBOUND:                -1.624
REMARK  Name = 
REMARK  11 active torsions:
REMARK  status: ('A' for Active; 'I' for Inactive)
REMARK    1  A    between atoms: C_1  and  C_2
REMARK    2  A    between atoms: C_2  and  C_3
REMARK    3  A    between atoms: C_3  and  C_4
REMARK    4  A    between atoms: C_4  and  N_5
REMARK    5  A    between atoms: C_4  and  C_19
REMARK    6  A    between atoms: C_6  and  C_8
REMARK    7  A    between atoms: N_14  and  C_15
REMARK    8  A    between atoms: C_22  and  C_23
REMARK    9  A    between atoms: C_23  and  N_24
REMARK   10  A    between atoms: N_24  and  C_25
REMARK   11  A    between atoms: C_25  and  C_26
REMARK                            x       y       z     vdW  Elec       q    Type
REMARK                         _______ _______ _______ _____ _____    ______ ____
ROOT
ATOM      1  C   UNL     1      48.029   7.495  13.287  0.00  0.00    +0.000 C 
ENDROOT
BRANCH   1   2
ATOM      2  C   UNL     1      47.026   6.477  12.757  0.00  0.00    +0.000 A 
ATOM      3  C   UNL     1      46.560   6.630  11.441  0.00  0.00    +0.000 A 
ATOM      4  C   UNL     1      45.611   5.759  10.903  0.00  0.00    +0.000 A 
ATOM      5  C   UNL     1      45.102   4.696  11.660  0.00  0.00    +0.000 A 
ATOM      6  C   UNL     1      45.521   4.566  12.989  0.00  0.00    +0.000 A 
ATOM      7  C   UNL     1      46.466   5.452  13.534  0.00  0.00    +0.000 A 
BRANCH   5   8
ATOM      8  C   UNL     1      44.151   3.706  11.017  0.00  0.00    +0.000 C 
BRANCH   8   9
ATOM      9  N   UNL     1      44.895   2.524  10.589  0.00  0.00    +0.000 NA
ATOM     10  H   UNL     1      44.743   1.773  11.264  0.00  0.00    +0.000 HD
BRANCH   9  11
ATOM     11  C   UNL     1      44.501   2.045   9.265  0.00  0.00    +0.000 C 
BRANCH  11  12
ATOM     12  C   UNL     1      45.695   2.025   8.341  0.00  0.00    +0.000 A 
ATOM     13  N   UNL     1      46.413   0.948   8.077  0.00  0.00    +0.000 NA
ATOM     14  C   UNL     1      47.457   1.281   7.237  0.00  0.00    +0.000 A 
ATOM     15  C   UNL     1      47.523   2.605   6.862  0.00  0.00    +0.000 A 
ATOM     16  S   UNL     1      46.234   3.474   7.580  0.00  0.00    +0.000 S 
ENDBRANCH  11  12
ENDBRANCH   9  11
ENDBRANCH   8   9
ENDBRANCH   5   8
ENDBRANCH   1   2
BRANCH   1  17
ATOM     17  N   UNL     1      47.973   7.450  14.737  0.00  0.00    +0.000 N 
ATOM     18  C   UNL     1      48.413   8.478  15.532  0.00  0.00    +0.000 C 
ATOM     19  O   UNL     1      48.760   9.564  15.080  0.00  0.00    +0.000 OA
ATOM     20  H   UNL     1      47.891   6.520  15.132  0.00  0.00    +0.000 HD
BRANCH  18  21
ATOM     21  C   UNL     1      48.376   8.212  16.974  0.00  0.00    +0.000 A 
ATOM     22  C   UNL     1      47.996   9.215  17.854  0.00  0.00    +0.000 A 
ATOM     23  S   UNL     1      47.884   8.685  19.474  0.00  0.00    +0.000 S 
ATOM     24  C   UNL     1      48.391   7.115  19.054  0.00  0.00    +0.000 A 
ATOM     25  N   UNL     1      48.483   6.134  19.986  0.00  0.00    +0.000 NA
ATOM     26  C   UNL     1      48.909   5.000  19.531  0.00  0.00    +0.000 A 
ATOM     27  N   UNL     1      49.278   4.748  18.226  0.00  0.00    +0.000 N 
ATOM     28  C   UNL     1      49.775   3.446  17.834  0.00  0.00    +0.000 C 
ATOM     29  C   UNL     1      49.203   5.733  17.248  0.00  0.00    +0.000 A 
ATOM     30  O   UNL     1      49.542   5.540  16.084  0.00  0.00    +0.000 OA
ATOM     31  C   UNL     1      48.677   7.006  17.708  0.00  0.00    +0.000 A 
ENDBRANCH  18  21
ENDBRANCH   1  17
BRANCH   1  32
ATOM     32  C   UNL     1      49.498   7.342  12.835  0.00  0.00    +0.000 C 
BRANCH  32  34
ATOM     33  C   UNL     1      49.167   9.508  11.517  0.00  0.00    +0.000 C 
ATOM     34  C   UNL     1      49.931   8.198  11.642  0.00  0.00    +0.000 C 
ENDBRANCH  32  34
ENDBRANCH   1  32
TORSDOF 9
ENDMDL
MODEL 3
REMARK VINA RESULT:    -6.761      1.638      2.607
REMARK INTER + INTRA:         -11.943
REMARK INTER:                 -10.442
REMARK INTRA:                  -1.501
REMARK UNBOUND:                -1.624
REMARK  Name = 
REMARK  11 active torsions:
REMARK  status: ('A' for Active; 'I' for Inactive)
REMARK    1  A    between atoms: C_1  and  C_2
REMARK    2  A    between atoms: C_2  and  C_3
REMARK    3  A    between atoms: C_3  and  C_4
REMARK    4  A    between atoms: C_4  and  N_5
REMARK    5  A    between atoms: C_4  and  C_19
REMARK    6  A    between atoms: C_6  and  C_8
REMARK    7  A    between atoms: N_14  and  C_15
REMARK    8  A    between atoms: C_22  and  C_23
REMARK    9  A    between atoms: C_23  and  N_24
REMARK   10  A    between atoms: N_24  and  C_25
REMARK   11  A    between atoms: C_25  and  C_26
REMARK                            x       y       z     vdW  Elec       q    Type
REMARK                         _______ _______ _______ _____ _____    ______ ____
ROOT
ATOM      1  C   UNL     1      47.944   7.466  13.202  0.00  0.00    +0.000 C 
ENDROOT
BRANCH   1   2
ATOM      2  C   UNL     1      46.946   6.532  12.527  0.00  0.00    +0.000 A 
ATOM      3  C   UNL     1      46.582   5.354  13.200  0.00  0.00    +0.000 A 
ATOM      4  C   UNL     1      45.703   4.434  12.626  0.00  0.00    +0.000 A 
ATOM      5  C   UNL     1      45.151   4.663  11.360  0.00  0.00    +0.000 A 
ATOM      6  C   UNL     1      45.548   5.808  10.658  0.00  0.00    +0.000 A 
ATOM      7  C   UNL     1      46.443   6.727  11.232  0.00  0.00    +0.000 A 
BRANCH   5   8
ATOM      8  C   UNL     1      44.122   3.699  10.805  0.00  0.00    +0.000 C 
BRANCH   8   9
ATOM      9  N   UNL     1      44.760   2.416  10.520  0.00  0.00    +0.000 NA
ATOM     10  H   UNL     1      44.461   1.733  11.218  0.00  0.00    +0.000 HD
BRANCH   9  11
ATOM     11  C   UNL     1      44.437   1.895   9.193  0.00  0.00    +0.000 C 
BRANCH  11  12
ATOM     12  C   UNL     1      45.656   1.945   8.302  0.00  0.00    +0.000 A 
ATOM     13  N   UNL     1      46.434   0.909   8.047  0.00  0.00    +0.000 NA
ATOM     14  C   UNL     1      47.483   1.303   7.241  0.00  0.00    +0.000 A 
ATOM     15  C   UNL     1      47.494   2.633   6.882  0.00  0.00    +0.000 A 
ATOM     16  S   UNL     1      46.144   3.429   7.573  0.00  0.00    +0.000 S 
ENDBRANCH  11  12
ENDBRANCH   9  11
ENDBRANCH   8   9
ENDBRANCH   5   8
ENDBRANCH   1   2
BRANCH   1  17
ATOM     17  N   UNL     1      48.528   6.747  14.320  0.00  0.00    +0.000 N 
ATOM     18  C   UNL     1      48.835   7.349  15.513  0.00  0.00    +0.000 C 
ATOM     19  O   UNL     1      48.517   8.504  15.776  0.00  0.00    +0.000 OA
ATOM     20  H   UNL     1      48.981   5.874  14.075  0.00  0.00    +0.000 HD
BRANCH  18  21
ATOM     21  C   UNL     1      49.516   6.491  16.489  0.00  0.00    +0.000 A 
ATOM     22  C   UNL     1      48.775   5.766  17.411  0.00  0.00    +0.000 A 
ATOM     23  S   UNL     1      49.726   4.725  18.374  0.00  0.00    +0.000 S 
ATOM     24  C   UNL     1      51.161   5.251  17.624  0.00  0.00    +0.000 A 
ATOM     25  N   UNL     1      52.365   4.726  17.963  0.00  0.00    +0.000 NA
ATOM     26  C   UNL     1      53.372   5.240  17.333  0.00  0.00    +0.000 A 
ATOM     27  N   UNL     1      53.300   6.253  16.401  0.00  0.00    +0.000 N 
ATOM     28  C   UNL     1      54.499   6.778  15.781  0.00  0.00    +0.000 C 
ATOM     29  C   UNL     1      52.083   6.819  16.035  0.00  0.00    +0.000 A 
ATOM     30  O   UNL     1      51.994   7.734  15.222  0.00  0.00    +0.000 OA
ATOM     31  C   UNL     1      50.923   6.230  16.681  0.00  0.00    +0.000 A 
ENDBRANCH  18  21
ENDBRANCH   1  17
BRANCH   1  32
ATOM     32  C   UNL     1      49.078   8.042  12.326  0.00  0.00    +0.000 C 
BRANCH  32  34
ATOM     33  C   UNL     1      47.823  10.270  12.318  0.00  0.00    +0.000 C 
ATOM     34  C   UNL     1      49.172   9.568  12.261  0.00  0.00    +0.000 C 
ENDBRANCH  32  34
ENDBRANCH   1  32
TORSDOF 9
ENDMDL
MODEL 4
REMARK VINA RESULT:    -6.055      2.297      3.528
REMARK INTER + INTRA:         -10.865
REMARK INTER:                  -9.343
REMARK INTRA:                  -1.523
REMARK UNBOUND:                -1.624
REMARK  Name = 
REMARK  11 active torsions:
REMARK  status: ('A' for Active; 'I' for Inactive)
REMARK    1  A    between atoms: C_1  and  C_2
REMARK    2  A    between atoms: C_2  and  C_3
REMARK    3  A    between atoms: C_3  and  C_4
REMARK    4  A    between atoms: C_4  and  N_5
REMARK    5  A    between atoms: C_4  and  C_19
REMARK    6  A    between atoms: C_6  and  C_8
REMARK    7  A    between atoms: N_14  and  C_15
REMARK    8  A    between atoms: C_22  and  C_23
REMARK    9  A    between atoms: C_23  and  N_24
REMARK   10  A    between atoms: N_24  and  C_25
REMARK   11  A    between atoms: C_25  and  C_26
REMARK                            x       y       z     vdW  Elec       q    Type
REMARK                         _______ _______ _______ _____ _____    ______ ____
ROOT
ATOM      1  C   UNL     1      49.420   7.956  13.053  0.00  0.00    +0.000 C 
ENDROOT
BRANCH   1   2
ATOM      2  C   UNL     1      48.059   7.343  12.744  0.00  0.00    +0.000 A 
ATOM      3  C   UNL     1      47.059   8.179  12.221  0.00  0.00    +0.000 A 
ATOM      4  C   UNL     1      45.778   7.695  11.951  0.00  0.00    +0.000 A 
ATOM      5  C   UNL     1      45.454   6.353  12.187  0.00  0.00    +0.000 A 
ATOM      6  C   UNL     1      46.428   5.523  12.756  0.00  0.00    +0.000 A 
ATOM      7  C   UNL     1      47.713   6.016  13.040  0.00  0.00    +0.000 A 
BRANCH   5   8
ATOM      8  C   UNL     1      44.088   5.830  11.789  0.00  0.00    +0.000 C 
BRANCH   8   9
ATOM      9  N   UNL     1      44.073   5.546  10.356  0.00  0.00    +0.000 NA
ATOM     10  H   UNL     1      44.946   5.877   9.943  0.00  0.00    +0.000 HD
BRANCH   9  11
ATOM     11  C   UNL     1      43.926   4.123  10.055  0.00  0.00    +0.000 C 
BRANCH  11  12
ATOM     12  C   UNL     1      44.951   3.698   9.030  0.00  0.00    +0.000 A 
ATOM     13  N   UNL     1      45.579   4.529   8.218  0.00  0.00    +0.000 NA
ATOM     14  C   UNL     1      46.410   3.816   7.377  0.00  0.00    +0.000 A 
ATOM     15  C   UNL     1      46.414   2.450   7.557  0.00  0.00    +0.000 A 
ATOM     16  S   UNL     1      45.342   2.032   8.826  0.00  0.00    +0.000 S 
ENDBRANCH  11  12
ENDBRANCH   9  11
ENDBRANCH   8   9
ENDBRANCH   5   8
ENDBRANCH   1   2
BRANCH   1  17
ATOM     17  N   UNL     1      50.029   7.162  14.104  0.00  0.00    +0.000 N 
ATOM     18  C   UNL     1      49.937   7.489  15.433  0.00  0.00    +0.000 C 
ATOM     19  O   UNL     1      49.222   8.395  15.845  0.00  0.00    +0.000 OA
ATOM     20  H   UNL     1      50.775   6.549  13.796  0.00  0.00    +0.000 HD
BRANCH  18  21
ATOM     21  C   UNL     1      50.704   6.630  16.341  0.00  0.00    +0.000 A 
ATOM     22  C   UNL     1      50.052   5.916  17.337  0.00  0.00    +0.000 A 
ATOM     23  S   UNL     1      51.086   4.872  18.207  0.00  0.00    +0.000 S 
ATOM     24  C   UNL     1      52.444   5.383  17.315  0.00  0.00    +0.000 A 
ATOM     25  N   UNL     1      53.671   4.849  17.538  0.00  0.00    +0.000 NA
ATOM     26  C   UNL     1      54.615   5.352  16.808  0.00  0.00    +0.000 A 
ATOM     27  N   UNL     1      54.459   6.361  15.881  0.00  0.00    +0.000 N 
ATOM     28  C   UNL     1      55.595   6.872  15.143  0.00  0.00    +0.000 C 
ATOM     29  C   UNL     1      53.216   6.934  15.634  0.00  0.00    +0.000 A 
ATOM     30  O   UNL     1      53.054   7.846  14.828  0.00  0.00    +0.000 OA
ATOM     31  C   UNL     1      52.121   6.359  16.395  0.00  0.00    +0.000 A 
ENDBRANCH  18  21
ENDBRANCH   1  17
BRANCH   1  32
ATOM     32  C   UNL     1      50.417   8.093  11.881  0.00  0.00    +0.000 C 
BRANCH  32  34
ATOM     33  C   UNL     1      49.706  10.516  11.480  0.00  0.00    +0.000 C 
ATOM     34  C   UNL     1      50.852   9.516  11.525  0.00  0.00    +0.000 C 
ENDBRANCH  32  34
ENDBRANCH   1  32
TORSDOF 9
ENDMDL
MODEL 5
REMARK VINA RESULT:    -6.011      2.624      8.105
REMARK INTER + INTRA:         -10.799
REMARK INTER:                 -10.231
REMARK INTRA:                  -0.567
REMARK UNBOUND:                -1.624
REMARK  Name = 
REMARK  11 active torsions:
REMARK  status: ('A' for Active; 'I' for Inactive)
REMARK    1  A    between atoms: C_1  and  C_2
REMARK    2  A    between atoms: C_2  and  C_3
REMARK    3  A    between atoms: C_3  and  C_4
REMARK    4  A    between atoms: C_4  and  N_5
REMARK    5  A    between atoms: C_4  and  C_19
REMARK    6  A    between atoms: C_6  and  C_8
REMARK    7  A    between atoms: N_14  and  C_15
REMARK    8  A    between atoms: C_22  and  C_23
REMARK    9  A    between atoms: C_23  and  N_24
REMARK   10  A    between atoms: N_24  and  C_25
REMARK   11  A    between atoms: C_25  and  C_26
REMARK                            x       y       z     vdW  Elec       q    Type
REMARK                         _______ _______ _______ _____ _____    ______ ____
ROOT
ATOM      1  C   UNL     1      46.849   8.294  12.301  0.00  0.00    +0.000 C 
ENDROOT
BRANCH   1   2
ATOM      2  C   UNL     1      47.905   8.150  13.391  0.00  0.00    +0.000 A 
ATOM      3  C   UNL     1      47.719   8.858  14.590  0.00  0.00    +0.000 A 
ATOM      4  C   UNL     1      48.664   8.803  15.617  0.00  0.00    +0.000 A 
ATOM      5  C   UNL     1      49.825   8.031  15.484  0.00  0.00    +0.000 A 
ATOM      6  C   UNL     1      50.044   7.364  14.272  0.00  0.00    +0.000 A 
ATOM      7  C   UNL     1      49.098   7.430  13.235  0.00  0.00    +0.000 A 
BRANCH   5   8
ATOM      8  C   UNL     1      50.782   7.909  16.652  0.00  0.00    +0.000 C 
BRANCH   8   9
ATOM      9  N   UNL     1      50.177   7.083  17.694  0.00  0.00    +0.000 NA
ATOM     10  H   UNL     1      49.160   7.146  17.619  0.00  0.00    +0.000 HD
BRANCH   9  11
ATOM     11  C   UNL     1      50.563   5.676  17.608  0.00  0.00    +0.000 C 
BRANCH  11  12
ATOM     12  C   UNL     1      49.342   4.811  17.410  0.00  0.00    +0.000 A 
ATOM     13  N   UNL     1      49.319   3.713  16.676  0.00  0.00    +0.000 NA
ATOM     14  C   UNL     1      48.041   3.189  16.665  0.00  0.00    +0.000 A 
ATOM     15  C   UNL     1      47.103   3.886  17.393  0.00  0.00    +0.000 A 
ATOM     16  S   UNL     1      47.836   5.249  18.127  0.00  0.00    +0.000 S 
ENDBRANCH  11  12
ENDBRANCH   9  11
ENDBRANCH   8   9
ENDBRANCH   5   8
ENDBRANCH   1   2
BRANCH   1  17
ATOM     17  N   UNL     1      46.321   6.970  12.025  0.00  0.00    +0.000 N 
ATOM     18  C   UNL     1      45.094   6.763  11.449  0.00  0.00    +0.000 C 
ATOM     19  O   UNL     1      44.409   7.675  11.000  0.00  0.00    +0.000 OA
ATOM     20  H   UNL     1      46.752   6.222  12.555  0.00  0.00    +0.000 HD
BRANCH  18  21
ATOM     21  C   UNL     1      44.682   5.359  11.344  0.00  0.00    +0.000 A 
ATOM     22  C   UNL     1      43.990   4.759  12.386  0.00  0.00    +0.000 A 
ATOM     23  S   UNL     1      43.479   3.169  12.032  0.00  0.00    +0.000 S 
ATOM     24  C   UNL     1      44.215   3.216  10.496  0.00  0.00    +0.000 A 
ATOM     25  N   UNL     1      44.128   2.164   9.644  0.00  0.00    +0.000 NA
ATOM     26  C   UNL     1      44.758   2.328   8.525  0.00  0.00    +0.000 A 
ATOM     27  N   UNL     1      45.493   3.441   8.175  0.00  0.00    +0.000 N 
ATOM     28  C   UNL     1      46.188   3.502   6.907  0.00  0.00    +0.000 C 
ATOM     29  C   UNL     1      45.608   4.533   9.028  0.00  0.00    +0.000 A 
ATOM     30  O   UNL     1      46.272   5.527   8.749  0.00  0.00    +0.000 OA
ATOM     31  C   UNL     1      44.869   4.410  10.273  0.00  0.00    +0.000 A 
ENDBRANCH  18  21
ENDBRANCH   1  17
BRANCH   1  32
ATOM     32  C   UNL     1      45.674   9.258  12.577  0.00  0.00    +0.000 C 
BRANCH  32  34
ATOM     33  C   UNL     1      47.023  11.275  11.772  0.00  0.00    +0.000 C 
ATOM     34  C   UNL     1      45.675  10.569  11.789  0.00  0.00    +0.000 C 
ENDBRANCH  32  34
ENDBRANCH   1  32
TORSDOF 9
ENDMDL
MODEL 6
REMARK VINA RESULT:    -5.632      2.018      3.008
REMARK INTER + INTRA:         -10.219
REMARK INTER:                  -8.680
REMARK INTRA:                  -1.539
REMARK UNBOUND:                -1.624
REMARK  Name = 
REMARK  11 active torsions:
REMARK  status: ('A' for Active; 'I' for Inactive)
REMARK    1  A    between atoms: C_1  and  C_2
REMARK    2  A    between atoms: C_2  and  C_3
REMARK    3  A    between atoms: C_3  and  C_4
REMARK    4  A    between atoms: C_4  and  N_5
REMARK    5  A    between atoms: C_4  and  C_19
REMARK    6  A    between atoms: C_6  and  C_8
REMARK    7  A    between atoms: N_14  and  C_15
REMARK    8  A    between atoms: C_22  and  C_23
REMARK    9  A    between atoms: C_23  and  N_24
REMARK   10  A    between atoms: N_24  and  C_25
REMARK   11  A    between atoms: C_25  and  C_26
REMARK                            x       y       z     vdW  Elec       q    Type
REMARK                         _______ _______ _______ _____ _____    ______ ____
ROOT
ATOM      1  C   UNL     1      49.785   8.737  12.783  0.00  0.00    +0.000 C 
ENDROOT
BRANCH   1   2
ATOM      2  C   UNL     1      48.424   8.059  12.673  0.00  0.00    +0.000 A 
ATOM      3  C   UNL     1      47.285   8.801  13.025  0.00  0.00    +0.000 A 
ATOM      4  C   UNL     1      46.011   8.233  12.987  0.00  0.00    +0.000 A 
ATOM      5  C   UNL     1      45.829   6.904  12.586  0.00  0.00    +0.000 A 
ATOM      6  C   UNL     1      46.963   6.140  12.282  0.00  0.00    +0.000 A 
ATOM      7  C   UNL     1      48.247   6.710  12.334  0.00  0.00    +0.000 A 
BRANCH   5   8
ATOM      8  C   UNL     1      44.427   6.345  12.455  0.00  0.00    +0.000 C 
BRANCH   8   9
ATOM      9  N   UNL     1      44.063   6.267  11.042  0.00  0.00    +0.000 NA
ATOM     10  H   UNL     1      44.912   6.311  10.477  0.00  0.00    +0.000 HD
BRANCH   9  11
ATOM     11  C   UNL     1      43.341   5.042  10.702  0.00  0.00    +0.000 C 
BRANCH  11  12
ATOM     12  C   UNL     1      44.190   4.167   9.811  0.00  0.00    +0.000 A 
ATOM     13  N   UNL     1      44.659   4.538   8.633  0.00  0.00    +0.000 NA
ATOM     14  C   UNL     1      45.353   3.490   8.060  0.00  0.00    +0.000 A 
ATOM     15  C   UNL     1      45.412   2.333   8.805  0.00  0.00    +0.000 A 
ATOM     16  S   UNL     1      44.573   2.554  10.282  0.00  0.00    +0.000 S 
ENDBRANCH  11  12
ENDBRANCH   9  11
ENDBRANCH   8   9
ENDBRANCH   5   8
ENDBRANCH   1   2
BRANCH   1  17
ATOM     17  N   UNL     1      50.595   7.947  13.692  0.00  0.00    +0.000 N 
ATOM     18  C   UNL     1      51.408   8.508  14.644  0.00  0.00    +0.000 C 
ATOM     19  O   UNL     1      51.410   9.709  14.892  0.00  0.00    +0.000 OA
ATOM     20  H   UNL     1      50.772   6.997  13.389  0.00  0.00    +0.000 HD
BRANCH  18  21
ATOM     21  C   UNL     1      52.231   7.558  15.400  0.00  0.00    +0.000 A 
ATOM     22  C   UNL     1      53.615   7.638  15.340  0.00  0.00    +0.000 A 
ATOM     23  S   UNL     1      54.402   6.542  16.386  0.00  0.00    +0.000 S 
ATOM     24  C   UNL     1      52.918   5.891  16.910  0.00  0.00    +0.000 A 
ATOM     25  N   UNL     1      52.873   4.913  17.849  0.00  0.00    +0.000 NA
ATOM     26  C   UNL     1      51.681   4.494  18.130  0.00  0.00    +0.000 A 
ATOM     27  N   UNL     1      50.516   4.943  17.546  0.00  0.00    +0.000 N 
ATOM     28  C   UNL     1      49.235   4.377  17.913  0.00  0.00    +0.000 C 
ATOM     29  C   UNL     1      50.527   5.940  16.576  0.00  0.00    +0.000 A 
ATOM     30  O   UNL     1      49.506   6.344  16.027  0.00  0.00    +0.000 OA
ATOM     31  C   UNL     1      51.843   6.474  16.272  0.00  0.00    +0.000 A 
ENDBRANCH  18  21
ENDBRANCH   1  17
BRANCH   1  32
ATOM     32  C   UNL     1      50.572   8.961  11.473  0.00  0.00    +0.000 C 
BRANCH  32  34
ATOM     33  C   UNL     1      49.291  11.135  11.058  0.00  0.00    +0.000 C 
ATOM     34  C   UNL     1      50.618  10.398  10.949  0.00  0.00    +0.000 C 
ENDBRANCH  32  34
ENDBRANCH   1  32
TORSDOF 9
ENDMDL
MODEL 7
REMARK VINA RESULT:    -5.599      3.305      6.179
REMARK INTER + INTRA:         -10.169
REMARK INTER:                  -8.364
REMARK INTRA:                  -1.806
REMARK UNBOUND:                -1.624
REMARK  Name = 
REMARK  11 active torsions:
REMARK  status: ('A' for Active; 'I' for Inactive)
REMARK    1  A    between atoms: C_1  and  C_2
REMARK    2  A    between atoms: C_2  and  C_3
REMARK    3  A    between atoms: C_3  and  C_4
REMARK    4  A    between atoms: C_4  and  N_5
REMARK    5  A    between atoms: C_4  and  C_19
REMARK    6  A    between atoms: C_6  and  C_8
REMARK    7  A    between atoms: N_14  and  C_15
REMARK    8  A    between atoms: C_22  and  C_23
REMARK    9  A    between atoms: C_23  and  N_24
REMARK   10  A    between atoms: N_24  and  C_25
REMARK   11  A    between atoms: C_25  and  C_26
REMARK                            x       y       z     vdW  Elec       q    Type
REMARK                         _______ _______ _______ _____ _____    ______ ____
ROOT
ATOM      1  C   UNL     1      46.387   5.692  13.212  0.00  0.00    +0.000 C 
ENDROOT
BRANCH   1   2
ATOM      2  C   UNL     1      47.000   6.986  12.686  0.00  0.00    +0.000 A 
ATOM      3  C   UNL     1      46.202   8.142  12.684  0.00  0.00    +0.000 A 
ATOM      4  C   UNL     1      46.684   9.353  12.182  0.00  0.00    +0.000 A 
ATOM      5  C   UNL     1      47.984   9.451  11.672  0.00  0.00    +0.000 A 
ATOM      6  C   UNL     1      48.768   8.293  11.622  0.00  0.00    +0.000 A 
ATOM      7  C   UNL     1      48.278   7.072  12.116  0.00  0.00    +0.000 A 
BRANCH   5   8
ATOM      8  C   UNL     1      48.515  10.800  11.229  0.00  0.00    +0.000 C 
BRANCH   8   9
ATOM      9  N   UNL     1      49.915  10.926  11.624  0.00  0.00    +0.000 NA
ATOM     10  H   UNL     1      50.206  10.069  12.096  0.00  0.00    +0.000 HD
BRANCH   9  11
ATOM     11  C   UNL     1      50.812  11.161  10.494  0.00  0.00    +0.000 C 
BRANCH  11  12
ATOM     12  C   UNL     1      51.892  10.106  10.457  0.00  0.00    +0.000 A 
ATOM     13  N   UNL     1      52.209   9.330  11.478  0.00  0.00    +0.000 NA
ATOM     14  C   UNL     1      53.266   8.512  11.129  0.00  0.00    +0.000 A 
ATOM     15  C   UNL     1      53.741   8.666   9.845  0.00  0.00    +0.000 A 
ATOM     16  S   UNL     1      52.838   9.874   9.035  0.00  0.00    +0.000 S 
ENDBRANCH  11  12
ENDBRANCH   9  11
ENDBRANCH   8   9
ENDBRANCH   5   8
ENDBRANCH   1   2
BRANCH   1  17
ATOM     17  N   UNL     1      46.949   5.446  14.528  0.00  0.00    +0.000 N 
ATOM     18  C   UNL     1      47.349   4.202  14.946  0.00  0.00    +0.000 C 
ATOM     19  O   UNL     1      47.390   3.232  14.197  0.00  0.00    +0.000 OA
ATOM     20  H   UNL     1      46.741   6.157  15.219  0.00  0.00    +0.000 HD
BRANCH  18  21
ATOM     21  C   UNL     1      47.792   4.125  16.342  0.00  0.00    +0.000 A 
ATOM     22  C   UNL     1      47.170   3.249  17.220  0.00  0.00    +0.000 A 
ATOM     23  S   UNL     1      47.905   3.201  18.760  0.00  0.00    +0.000 S 
ATOM     24  C   UNL     1      49.042   4.388  18.316  0.00  0.00    +0.000 A 
ATOM     25  N   UNL     1      50.006   4.796  19.180  0.00  0.00    +0.000 NA
ATOM     26  C   UNL     1      50.782   5.723  18.719  0.00  0.00    +0.000 A 
ATOM     27  N   UNL     1      50.680   6.307  17.474  0.00  0.00    +0.000 N 
ATOM     28  C   UNL     1      51.584   7.365  17.075  0.00  0.00    +0.000 C 
ATOM     29  C   UNL     1      49.700   5.918  16.567  0.00  0.00    +0.000 A 
ATOM     30  O   UNL     1      49.576   6.435  15.461  0.00  0.00    +0.000 OA
ATOM     31  C   UNL     1      48.842   4.840  17.028  0.00  0.00    +0.000 A 
ENDBRANCH  18  21
ENDBRANCH   1  17
BRANCH   1  32
ATOM     32  C   UNL     1      44.847   5.623  13.300  0.00  0.00    +0.000 C 
BRANCH  32  34
ATOM     33  C   UNL     1      44.930   3.574  11.773  0.00  0.00    +0.000 C 
ATOM     34  C   UNL     1      44.206   4.292  12.903  0.00  0.00    +0.000 C 
ENDBRANCH  32  34
ENDBRANCH   1  32
TORSDOF 9
ENDMDL
MODEL 8
REMARK VINA RESULT:    -5.224      5.806      8.607
REMARK INTER + INTRA:          -9.597
REMARK INTER:                  -8.270
REMARK INTRA:                  -1.327
REMARK UNBOUND:                -1.624
REMARK  Name = 
REMARK  11 active torsions:
REMARK  status: ('A' for Active; 'I' for Inactive)
REMARK    1  A    between atoms: C_1  and  C_2
REMARK    2  A    between atoms: C_2  and  C_3
REMARK    3  A    between atoms: C_3  and  C_4
REMARK    4  A    between atoms: C_4  and  N_5
REMARK    5  A    between atoms: C_4  and  C_19
REMARK    6  A    between atoms: C_6  and  C_8
REMARK    7  A    between atoms: N_14  and  C_15
REMARK    8  A    between atoms: C_22  and  C_23
REMARK    9  A    between atoms: C_23  and  N_24
REMARK   10  A    between atoms: N_24  and  C_25
REMARK   11  A    between atoms: C_25  and  C_26
REMARK                            x       y       z     vdW  Elec       q    Type
REMARK                         _______ _______ _______ _____ _____    ______ ____
ROOT
ATOM      1  C   UNL     1      53.047   2.765  18.232  0.00  0.00    +0.000 C 
ENDROOT
BRANCH   1   2
ATOM      2  C   UNL     1      51.590   2.997  17.850  0.00  0.00    +0.000 A 
ATOM      3  C   UNL     1      50.872   1.926  17.295  0.00  0.00    +0.000 A 
ATOM      4  C   UNL     1      49.546   2.077  16.886  0.00  0.00    +0.000 A 
ATOM      5  C   UNL     1      48.888   3.305  17.026  0.00  0.00    +0.000 A 
ATOM      6  C   UNL     1      49.610   4.393  17.530  0.00  0.00    +0.000 A 
ATOM      7  C   UNL     1      50.949   4.243  17.929  0.00  0.00    +0.000 A 
BRANCH   5   8
ATOM      8  C   UNL     1      47.419   3.413  16.668  0.00  0.00    +0.000 C 
BRANCH   8   9
ATOM      9  N   UNL     1      47.225   4.519  15.734  0.00  0.00    +0.000 NA
ATOM     10  H   UNL     1      48.027   5.148  15.792  0.00  0.00    +0.000 HD
BRANCH   9  11
ATOM     11  C   UNL     1      47.079   4.080  14.347  0.00  0.00    +0.000 C 
BRANCH  11  12
ATOM     12  C   UNL     1      45.956   4.836  13.676  0.00  0.00    +0.000 A 
ATOM     13  N   UNL     1      44.719   4.386  13.565  0.00  0.00    +0.000 NA
ATOM     14  C   UNL     1      43.957   5.296  12.859  0.00  0.00    +0.000 A 
ATOM     15  C   UNL     1      44.615   6.432  12.443  0.00  0.00    +0.000 A 
ATOM     16  S   UNL     1      46.250   6.372  12.952  0.00  0.00    +0.000 S 
ENDBRANCH  11  12
ENDBRANCH   9  11
ENDBRANCH   8   9
ENDBRANCH   5   8
ENDBRANCH   1   2
BRANCH   1  17
ATOM     17  N   UNL     1      53.437   1.471  17.702  0.00  0.00    +0.000 N 
ATOM     18  C   UNL     1      54.254   0.603  18.381  0.00  0.00    +0.000 C 
ATOM     19  O   UNL     1      54.607   0.793  19.539  0.00  0.00    +0.000 OA
ATOM     20  H   UNL     1      53.340   1.375  16.698  0.00  0.00    +0.000 HD
BRANCH  18  21
ATOM     21  C   UNL     1      54.626  -0.610  17.644  0.00  0.00    +0.000 A 
ATOM     22  C   UNL     1      55.271  -0.509  16.420  0.00  0.00    +0.000 A 
ATOM     23  S   UNL     1      55.743  -2.018  15.778  0.00  0.00    +0.000 S 
ATOM     24  C   UNL     1      55.051  -2.855  17.090  0.00  0.00    +0.000 A 
ATOM     25  N   UNL     1      55.129  -4.207  17.180  0.00  0.00    +0.000 NA
ATOM     26  C   UNL     1      54.535  -4.710  18.214  0.00  0.00    +0.000 A 
ATOM     27  N   UNL     1      53.844  -3.994  19.168  0.00  0.00    +0.000 N 
ATOM     28  C   UNL     1      53.186  -4.666  20.268  0.00  0.00    +0.000 C 
ATOM     29  C   UNL     1      53.739  -2.608  19.101  0.00  0.00    +0.000 A 
ATOM     30  O   UNL     1      53.113  -1.949  19.927  0.00  0.00    +0.000 OA
ATOM     31  C   UNL     1      54.440  -2.001  17.984  0.00  0.00    +0.000 A 
ENDBRANCH  18  21
ENDBRANCH   1  17
BRANCH   1  32
ATOM     32  C   UNL     1      54.075   3.825  17.781  0.00  0.00    +0.000 C 
BRANCH  32  34
ATOM     33  C   UNL     1      54.318   4.302  20.281  0.00  0.00    +0.000 C 
ATOM     34  C   UNL     1      54.906   4.476  18.888  0.00  0.00    +0.000 C 
ENDBRANCH  32  34
ENDBRANCH   1  32
TORSDOF 9
ENDMDL
