MODEL 1
REMARK VINA RESULT:    -7.043      0.000      0.000
REMARK INTER + INTRA:         -10.275
REMARK INTER:                  -9.720
REMARK INTRA:                  -0.556
REMARK UNBOUND:                -0.556
REMARK  Name = 
REMARK  9 active torsions:
REMARK  status: ('A' for Active; 'I' for Inactive)
REMARK    1  A    between atoms: C_1  and  C_2
REMARK    2  A    between atoms: C_2  and  C_3
REMARK    3  A    between atoms: C_2  and  N_4
REMARK    4  A    between atoms: C_2  and  C_5
REMARK    5  A    between atoms: C_5  and  C_6
REMARK    6  A    between atoms: C_9  and  O_10
REMARK    7  A    between atoms: O_10  and  C_11
REMARK    8  A    between atoms: C_11  and  C_12
REMARK    9  A    between atoms: C_14  and  C_15
REMARK                            x       y       z     vdW  Elec       q    Type
REMARK                         _______ _______ _______ _____ _____    ______ ____
ROOT
ATOM      1  C   UNL     1      44.794   3.146   8.453  0.00  0.00    +0.000 A 
ATOM      2  C   UNL     1      44.334   4.429   8.783  0.00  0.00    +0.000 A 
ATOM      3  C   UNL     1      43.903   4.709  10.080  0.00  0.00    +0.000 A 
ATOM      4  C   UNL     1      43.919   3.710  11.053  0.00  0.00    +0.000 A 
ATOM      5  C   UNL     1      44.448   2.456  10.749  0.00  0.00    +0.000 A 
ATOM      6  C   UNL     1      44.865   2.171   9.454  0.00  0.00    +0.000 A 
ENDROOT
BRANCH   1   7
ATOM      7  C   UNL     1      45.190   2.790   7.042  0.00  0.00    +0.000 C 
BRANCH   7   9
ATOM      8  C   UNL     1      46.925   3.018   5.167  0.00  0.00    +0.000 C 
ATOM      9  C   UNL     1      46.691   2.944   6.683  0.00  0.00    +0.000 C 
ATOM     10  C   UNL     1      47.533   1.804   7.276  0.00  0.00    +0.000 C 
BRANCH   9  11
ATOM     11  N   UNL     1      47.154   4.228   7.247  0.00  0.00    +0.000 NA
ATOM     12  H   UNL     1      47.587   4.074   8.156  0.00  0.00    +0.000 HD
ATOM     13  H   UNL     1      46.363   4.850   7.409  0.00  0.00    +0.000 HD
ENDBRANCH   9  11
ENDBRANCH   7   9
ENDBRANCH   1   7
BRANCH   4  14
ATOM     14  O   UNL     1      43.382   4.042  12.267  0.00  0.00    +0.000 OA
BRANCH  14  15
ATOM     15  C   UNL     1      43.763   5.341  12.741  0.00  0.00    +0.000 C 
BRANCH  15  16
ATOM     16  C   UNL     1      45.215   5.360  13.148  0.00  0.00    +0.000 A 
ATOM     17  C   UNL     1      46.084   6.294  12.618  0.00  0.00    +0.000 A 
ATOM     18  C   UNL     1      47.383   6.210  13.058  0.00  0.00    +0.000 A 
ATOM     19  N   UNL     1      47.842   5.283  13.935  0.00  0.00    +0.000 NA
ATOM     20  C   UNL     1      46.919   4.418  14.367  0.00  0.00    +0.000 A 
ATOM     21  N   UNL     1      45.625   4.405  14.014  0.00  0.00    +0.000 NA
BRANCH  18  22
ATOM     22  C   UNL     1      48.376   7.204  12.550  0.00  0.00    +0.000 C 
ATOM     23  N   UNL     1      49.671   6.988  12.927  0.00  0.00    +0.000 N 
ATOM     24  O   UNL     1      48.058   8.154  11.845  0.00  0.00    +0.000 OA
ATOM     25  H   UNL     1      49.900   6.200  13.521  0.00  0.00    +0.000 HD
ATOM     26  H   UNL     1      50.384   7.636  12.629  0.00  0.00    +0.000 HD
ENDBRANCH  18  22
ENDBRANCH  15  16
ENDBRANCH  14  15
ENDBRANCH   4  14
TORSDOF 7
ENDMDL
MODEL 2
REMARK VINA RESULT:    -7.003      1.857      2.782
REMARK INTER + INTRA:         -10.220
REMARK INTER:                  -9.881
REMARK INTRA:                  -0.339
REMARK UNBOUND:                -0.556
REMARK  Name = 
REMARK  9 active torsions:
REMARK  status: ('A' for Active; 'I' for Inactive)
REMARK    1  A    between atoms: C_1  and  C_2
REMARK    2  A    between atoms: C_2  and  C_3
REMARK    3  A    between atoms: C_2  and  N_4
REMARK    4  A    between atoms: C_2  and  C_5
REMARK    5  A    between atoms: C_5  and  C_6
REMARK    6  A    between atoms: C_9  and  O_10
REMARK    7  A    between atoms: O_10  and  C_11
REMARK    8  A    between atoms: C_11  and  C_12
REMARK    9  A    between atoms: C_14  and  C_15
REMARK                            x       y       z     vdW  Elec       q    Type
REMARK                         _______ _______ _______ _____ _____    ______ ____
ROOT
ATOM      1  C   UNL     1      45.090   3.260   8.258  0.00  0.00    +0.000 A 
ATOM      2  C   UNL     1      44.513   2.327   9.131  0.00  0.00    +0.000 A 
ATOM      3  C   UNL     1      44.264   2.669  10.460  0.00  0.00    +0.000 A 
ATOM      4  C   UNL     1      44.598   3.939  10.929  0.00  0.00    +0.000 A 
ATOM      5  C   UNL     1      45.099   4.895  10.045  0.00  0.00    +0.000 A 
ATOM      6  C   UNL     1      45.361   4.551   8.724  0.00  0.00    +0.000 A 
ENDROOT
BRANCH   1   7
ATOM      7  C   UNL     1      45.447   2.895   6.838  0.00  0.00    +0.000 C 
BRANCH   7   9
ATOM      8  C   UNL     1      47.241   2.476   5.054  0.00  0.00    +0.000 C 
ATOM      9  C   UNL     1      46.940   2.586   6.556  0.00  0.00    +0.000 C 
ATOM     10  C   UNL     1      47.394   1.301   7.264  0.00  0.00    +0.000 C 
BRANCH   9  11
ATOM     11  N   UNL     1      47.734   3.723   7.065  0.00  0.00    +0.000 NA
ATOM     12  H   UNL     1      48.523   3.381   7.611  0.00  0.00    +0.000 HD
ATOM     13  H   UNL     1      47.173   4.291   7.699  0.00  0.00    +0.000 HD
ENDBRANCH   9  11
ENDBRANCH   7   9
ENDBRANCH   1   7
BRANCH   4  14
ATOM     14  O   UNL     1      44.416   4.154  12.268  0.00  0.00    +0.000 OA
BRANCH  14  15
ATOM     15  C   UNL     1      44.788   5.468  12.707  0.00  0.00    +0.000 C 
BRANCH  15  16
ATOM     16  C   UNL     1      46.038   5.419  13.550  0.00  0.00    +0.000 A 
ATOM     17  C   UNL     1      46.271   4.361  14.406  0.00  0.00    +0.000 A 
ATOM     18  C   UNL     1      47.439   4.429  15.127  0.00  0.00    +0.000 A 
ATOM     19  N   UNL     1      48.329   5.451  15.060  0.00  0.00    +0.000 NA
ATOM     20  C   UNL     1      47.992   6.429  14.214  0.00  0.00    +0.000 A 
ATOM     21  N   UNL     1      46.886   6.470  13.456  0.00  0.00    +0.000 NA
BRANCH  18  22
ATOM     22  C   UNL     1      47.773   3.307  16.055  0.00  0.00    +0.000 C 
ATOM     23  N   UNL     1      47.001   3.223  17.178  0.00  0.00    +0.000 N 
ATOM     24  O   UNL     1      48.679   2.514  15.833  0.00  0.00    +0.000 OA
ATOM     25  H   UNL     1      46.266   3.902  17.340  0.00  0.00    +0.000 HD
ATOM     26  H   UNL     1      47.189   2.496  17.852  0.00  0.00    +0.000 HD
ENDBRANCH  18  22
ENDBRANCH  15  16
ENDBRANCH  14  15
ENDBRANCH   4  14
TORSDOF 7
ENDMDL
MODEL 3
REMARK VINA RESULT:    -6.668      2.578      6.709
REMARK INTER + INTRA:          -9.758
REMARK INTER:                  -9.317
REMARK INTRA:                  -0.441
REMARK UNBOUND:                -0.556
REMARK  Name = 
REMARK  9 active torsions:
REMARK  status: ('A' for Active; 'I' for Inactive)
REMARK    1  A    between atoms: C_1  and  C_2
REMARK    2  A    between atoms: C_2  and  C_3
REMARK    3  A    between atoms: C_2  and  N_4
REMARK    4  A    between atoms: C_2  and  C_5
REMARK    5  A    between atoms: C_5  and  C_6
REMARK    6  A    between atoms: C_9  and  O_10
REMARK    7  A    between atoms: O_10  and  C_11
REMARK    8  A    between atoms: C_11  and  C_12
REMARK    9  A    between atoms: C_14  and  C_15
REMARK                            x       y       z     vdW  Elec       q    Type
REMARK                         _______ _______ _______ _____ _____    ______ ____
ROOT
ATOM      1  C   UNL     1      47.040   6.260  12.930  0.00  0.00    +0.000 A 
ATOM      2  C   UNL     1      46.738   6.676  11.626  0.00  0.00    +0.000 A 
ATOM      3  C   UNL     1      45.671   6.101  10.934  0.00  0.00    +0.000 A 
ATOM      4  C   UNL     1      44.907   5.101  11.535  0.00  0.00    +0.000 A 
ATOM      5  C   UNL     1      45.155   4.740  12.859  0.00  0.00    +0.000 A 
ATOM      6  C   UNL     1      46.226   5.302  13.544  0.00  0.00    +0.000 A 
ENDROOT
BRANCH   1   7
ATOM      7  C   UNL     1      48.235   6.803  13.673  0.00  0.00    +0.000 C 
BRANCH   7   9
ATOM      8  C   UNL     1      48.872   9.206  13.042  0.00  0.00    +0.000 C 
ATOM      9  C   UNL     1      48.181   8.301  14.072  0.00  0.00    +0.000 C 
ATOM     10  C   UNL     1      48.798   8.539  15.458  0.00  0.00    +0.000 C 
BRANCH   9  11
ATOM     11  N   UNL     1      46.759   8.702  14.102  0.00  0.00    +0.000 NA
ATOM     12  H   UNL     1      46.498   9.130  13.215  0.00  0.00    +0.000 HD
ATOM     13  H   UNL     1      46.606   9.412  14.817  0.00  0.00    +0.000 HD
ENDBRANCH   9  11
ENDBRANCH   7   9
ENDBRANCH   1   7
BRANCH   4  14
ATOM     14  O   UNL     1      43.949   4.520  10.748  0.00  0.00    +0.000 OA
BRANCH  14  15
ATOM     15  C   UNL     1      44.190   4.648   9.340  0.00  0.00    +0.000 C 
BRANCH  15  16
ATOM     16  C   UNL     1      44.925   3.444   8.808  0.00  0.00    +0.000 A 
ATOM     17  C   UNL     1      45.902   3.583   7.841  0.00  0.00    +0.000 A 
ATOM     18  C   UNL     1      46.498   2.415   7.430  0.00  0.00    +0.000 A 
ATOM     19  N   UNL     1      46.176   1.181   7.891  0.00  0.00    +0.000 NA
ATOM     20  C   UNL     1      45.206   1.164   8.809  0.00  0.00    +0.000 A 
ATOM     21  N   UNL     1      44.557   2.234   9.291  0.00  0.00    +0.000 NA
BRANCH  18  22
ATOM     22  C   UNL     1      47.582   2.489   6.404  0.00  0.00    +0.000 C 
ATOM     23  N   UNL     1      47.337   3.320   5.348  0.00  0.00    +0.000 N 
ATOM     24  O   UNL     1      48.621   1.849   6.494  0.00  0.00    +0.000 OA
ATOM     25  H   UNL     1      46.461   3.828   5.296  0.00  0.00    +0.000 HD
ATOM     26  H   UNL     1      48.025   3.399   4.615  0.00  0.00    +0.000 HD
ENDBRANCH  18  22
ENDBRANCH  15  16
ENDBRANCH  14  15
ENDBRANCH   4  14
TORSDOF 7
ENDMDL
MODEL 4
REMARK VINA RESULT:    -6.497      2.430      6.335
REMARK INTER + INTRA:          -9.521
REMARK INTER:                  -9.035
REMARK INTRA:                  -0.486
REMARK UNBOUND:                -0.556
REMARK  Name = 
REMARK  9 active torsions:
REMARK  status: ('A' for Active; 'I' for Inactive)
REMARK    1  A    between atoms: C_1  and  C_2
REMARK    2  A    between atoms: C_2  and  C_3
REMARK    3  A    between atoms: C_2  and  N_4
REMARK    4  A    between atoms: C_2  and  C_5
REMARK    5  A    between atoms: C_5  and  C_6
REMARK    6  A    between atoms: C_9  and  O_10
REMARK    7  A    between atoms: O_10  and  C_11
REMARK    8  A    between atoms: C_11  and  C_12
REMARK    9  A    between atoms: C_14  and  C_15
REMARK                            x       y       z     vdW  Elec       q    Type
REMARK                         _______ _______ _______ _____ _____    ______ ____
ROOT
ATOM      1  C   UNL     1      45.685   6.853  12.883  0.00  0.00    +0.000 A 
ATOM      2  C   UNL     1      44.742   7.203  11.907  0.00  0.00    +0.000 A 
ATOM      3  C   UNL     1      43.905   6.230  11.358  0.00  0.00    +0.000 A 
ATOM      4  C   UNL     1      44.012   4.902  11.772  0.00  0.00    +0.000 A 
ATOM      5  C   UNL     1      44.894   4.566  12.799  0.00  0.00    +0.000 A 
ATOM      6  C   UNL     1      45.737   5.531  13.336  0.00  0.00    +0.000 A 
ENDROOT
BRANCH   1   7
ATOM      7  C   UNL     1      46.657   7.865  13.437  0.00  0.00    +0.000 C 
BRANCH   7   9
ATOM      8  C   UNL     1      48.132   7.303  11.415  0.00  0.00    +0.000 C 
ATOM      9  C   UNL     1      48.095   7.835  12.855  0.00  0.00    +0.000 C 
ATOM     10  C   UNL     1      49.042   7.005  13.733  0.00  0.00    +0.000 C 
BRANCH   9  11
ATOM     11  N   UNL     1      48.583   9.229  12.804  0.00  0.00    +0.000 NA
ATOM     12  H   UNL     1      49.397   9.292  12.195  0.00  0.00    +0.000 HD
ATOM     13  H   UNL     1      48.893   9.530  13.727  0.00  0.00    +0.000 HD
ENDBRANCH   9  11
ENDBRANCH   7   9
ENDBRANCH   1   7
BRANCH   4  14
ATOM     14  O   UNL     1      43.227   3.999  11.108  0.00  0.00    +0.000 OA
BRANCH  14  15
ATOM     15  C   UNL     1      43.886   2.762  10.804  0.00  0.00    +0.000 C 
BRANCH  15  16
ATOM     16  C   UNL     1      44.642   2.861   9.503  0.00  0.00    +0.000 A 
ATOM     17  C   UNL     1      45.516   1.864   9.117  0.00  0.00    +0.000 A 
ATOM     18  C   UNL     1      46.153   2.067   7.916  0.00  0.00    +0.000 A 
ATOM     19  N   UNL     1      45.989   3.162   7.132  0.00  0.00    +0.000 NA
ATOM     20  C   UNL     1      45.135   4.070   7.612  0.00  0.00    +0.000 A 
ATOM     21  N   UNL     1      44.454   3.979   8.764  0.00  0.00    +0.000 NA
BRANCH  18  22
ATOM     22  C   UNL     1      47.094   1.018   7.419  0.00  0.00    +0.000 C 
ATOM     23  N   UNL     1      46.734  -0.271   7.692  0.00  0.00    +0.000 N 
ATOM     24  O   UNL     1      48.122   1.287   6.812  0.00  0.00    +0.000 OA
ATOM     25  H   UNL     1      45.882  -0.461   8.207  0.00  0.00    +0.000 HD
ATOM     26  H   UNL     1      47.338  -1.023   7.397  0.00  0.00    +0.000 HD
ENDBRANCH  18  22
ENDBRANCH  15  16
ENDBRANCH  14  15
ENDBRANCH   4  14
TORSDOF 7
ENDMDL
MODEL 5
REMARK VINA RESULT:    -6.368      3.631      8.266
REMARK INTER + INTRA:          -9.344
REMARK INTER:                  -8.841
REMARK INTRA:                  -0.502
REMARK UNBOUND:                -0.556
REMARK  Name = 
REMARK  9 active torsions:
REMARK  status: ('A' for Active; 'I' for Inactive)
REMARK    1  A    between atoms: C_1  and  C_2
REMARK    2  A    between atoms: C_2  and  C_3
REMARK    3  A    between atoms: C_2  and  N_4
REMARK    4  A    between atoms: C_2  and  C_5
REMARK    5  A    between atoms: C_5  and  C_6
REMARK    6  A    between atoms: C_9  and  O_10
REMARK    7  A    between atoms: O_10  and  C_11
REMARK    8  A    between atoms: C_11  and  C_12
REMARK    9  A    between atoms: C_14  and  C_15
REMARK                            x       y       z     vdW  Elec       q    Type
REMARK                         _______ _______ _______ _____ _____    ______ ____
ROOT
ATOM      1  C   UNL     1      48.820   4.798  17.143  0.00  0.00    +0.000 A 
ATOM      2  C   UNL     1      48.991   5.992  16.429  0.00  0.00    +0.000 A 
ATOM      3  C   UNL     1      48.293   6.205  15.240  0.00  0.00    +0.000 A 
ATOM      4  C   UNL     1      47.430   5.225  14.751  0.00  0.00    +0.000 A 
ATOM      5  C   UNL     1      47.199   4.070  15.498  0.00  0.00    +0.000 A 
ATOM      6  C   UNL     1      47.904   3.850  16.676  0.00  0.00    +0.000 A 
ENDROOT
BRANCH   1   7
ATOM      7  C   UNL     1      49.620   4.504  18.388  0.00  0.00    +0.000 C 
BRANCH   7   9
ATOM      8  C   UNL     1      47.731   5.732  19.615  0.00  0.00    +0.000 C 
ATOM      9  C   UNL     1      48.909   4.755  19.744  0.00  0.00    +0.000 C 
ATOM     10  C   UNL     1      49.889   5.273  20.807  0.00  0.00    +0.000 C 
BRANCH   9  11
ATOM     11  N   UNL     1      48.345   3.467  20.196  0.00  0.00    +0.000 NA
ATOM     12  H   UNL     1      48.746   2.702  19.657  0.00  0.00    +0.000 HD
ATOM     13  H   UNL     1      47.340   3.441  20.026  0.00  0.00    +0.000 HD
ENDBRANCH   9  11
ENDBRANCH   7   9
ENDBRANCH   1   7
BRANCH   4  14
ATOM     14  O   UNL     1      46.869   5.471  13.527  0.00  0.00    +0.000 OA
BRANCH  14  15
ATOM     15  C   UNL     1      45.434   5.478  13.531  0.00  0.00    +0.000 C 
BRANCH  15  16
ATOM     16  C   UNL     1      44.889   4.591  12.441  0.00  0.00    +0.000 A 
ATOM     17  C   UNL     1      45.218   4.815  11.118  0.00  0.00    +0.000 A 
ATOM     18  C   UNL     1      44.656   3.946  10.213  0.00  0.00    +0.000 A 
ATOM     19  N   UNL     1      43.814   2.933  10.537  0.00  0.00    +0.000 NA
ATOM     20  C   UNL     1      43.552   2.821  11.842  0.00  0.00    +0.000 A 
ATOM     21  N   UNL     1      44.043   3.603  12.815  0.00  0.00    +0.000 NA
BRANCH  18  22
ATOM     22  C   UNL     1      44.986   4.109   8.765  0.00  0.00    +0.000 C 
ATOM     23  N   UNL     1      44.253   3.343   7.905  0.00  0.00    +0.000 N 
ATOM     24  O   UNL     1      45.857   4.873   8.369  0.00  0.00    +0.000 OA
ATOM     25  H   UNL     1      43.548   2.711   8.265  0.00  0.00    +0.000 HD
ATOM     26  H   UNL     1      44.442   3.397   6.915  0.00  0.00    +0.000 HD
ENDBRANCH  18  22
ENDBRANCH  15  16
ENDBRANCH  14  15
ENDBRANCH   4  14
TORSDOF 7
ENDMDL
MODEL 6
REMARK VINA RESULT:    -6.153      2.258      6.465
REMARK INTER + INTRA:          -9.047
REMARK INTER:                  -8.455
REMARK INTRA:                  -0.593
REMARK UNBOUND:                -0.556
REMARK  Name = 
REMARK  9 active torsions:
REMARK  status: ('A' for Active; 'I' for Inactive)
REMARK    1  A    between atoms: C_1  and  C_2
REMARK    2  A    between atoms: C_2  and  C_3
REMARK    3  A    between atoms: C_2  and  N_4
REMARK    4  A    between atoms: C_2  and  C_5
REMARK    5  A    between atoms: C_5  and  C_6
REMARK    6  A    between atoms: C_9  and  O_10
REMARK    7  A    between atoms: O_10  and  C_11
REMARK    8  A    between atoms: C_11  and  C_12
REMARK    9  A    between atoms: C_14  and  C_15
REMARK                            x       y       z     vdW  Elec       q    Type
REMARK                         _______ _______ _______ _____ _____    ______ ____
ROOT
ATOM      1  C   UNL     1      47.794   6.726  12.779  0.00  0.00    +0.000 A 
ATOM      2  C   UNL     1      47.272   5.551  13.337  0.00  0.00    +0.000 A 
ATOM      3  C   UNL     1      45.906   5.280  13.252  0.00  0.00    +0.000 A 
ATOM      4  C   UNL     1      45.052   6.184  12.619  0.00  0.00    +0.000 A 
ATOM      5  C   UNL     1      45.579   7.314  11.995  0.00  0.00    +0.000 A 
ATOM      6  C   UNL     1      46.938   7.592  12.091  0.00  0.00    +0.000 A 
ENDROOT
BRANCH   1   7
ATOM      7  C   UNL     1      49.252   7.087  12.925  0.00  0.00    +0.000 C 
BRANCH   7   9
ATOM      8  C   UNL     1      48.420   8.330  15.008  0.00  0.00    +0.000 C 
ATOM      9  C   UNL     1      49.644   7.890  14.192  0.00  0.00    +0.000 C 
ATOM     10  C   UNL     1      50.495   9.119  13.841  0.00  0.00    +0.000 C 
BRANCH   9  11
ATOM     11  N   UNL     1      50.432   6.992  15.061  0.00  0.00    +0.000 NA
ATOM     12  H   UNL     1      51.382   7.347  15.162  0.00  0.00    +0.000 HD
ATOM     13  H   UNL     1      50.516   6.069  14.636  0.00  0.00    +0.000 HD
ENDBRANCH   9  11
ENDBRANCH   7   9
ENDBRANCH   1   7
BRANCH   4  14
ATOM     14  O   UNL     1      43.717   5.891  12.674  0.00  0.00    +0.000 OA
BRANCH  14  15
ATOM     15  C   UNL     1      43.110   5.681  11.391  0.00  0.00    +0.000 C 
BRANCH  15  16
ATOM     16  C   UNL     1      43.664   4.445  10.730  0.00  0.00    +0.000 A 
ATOM     17  C   UNL     1      44.486   4.544   9.624  0.00  0.00    +0.000 A 
ATOM     18  C   UNL     1      44.924   3.350   9.104  0.00  0.00    +0.000 A 
ATOM     19  N   UNL     1      44.589   2.128   9.588  0.00  0.00    +0.000 NA
ATOM     20  C   UNL     1      43.775   2.151  10.647  0.00  0.00    +0.000 A 
ATOM     21  N   UNL     1      43.288   3.250  11.242  0.00  0.00    +0.000 NA
BRANCH  18  22
ATOM     22  C   UNL     1      45.839   3.378   7.922  0.00  0.00    +0.000 C 
ATOM     23  N   UNL     1      46.449   2.193   7.623  0.00  0.00    +0.000 N 
ATOM     24  O   UNL     1      46.037   4.391   7.264  0.00  0.00    +0.000 OA
ATOM     25  H   UNL     1      46.275   1.375   8.195  0.00  0.00    +0.000 HD
ATOM     26  H   UNL     1      47.092   2.154   6.847  0.00  0.00    +0.000 HD
ENDBRANCH  18  22
ENDBRANCH  15  16
ENDBRANCH  14  15
ENDBRANCH   4  14
TORSDOF 7
ENDMDL
MODEL 7
REMARK VINA RESULT:    -5.975      4.043      8.537
REMARK INTER + INTRA:          -8.801
REMARK INTER:                  -8.400
REMARK INTRA:                  -0.400
REMARK UNBOUND:                -0.556
REMARK  Name = 
REMARK  9 active torsions:
REMARK  status: ('A' for Active; 'I' for Inactive)
REMARK    1  A    between atoms: C_1  and  C_2
REMARK    2  A    between atoms: C_2  and  C_3
REMARK    3  A    between atoms: C_2  and  N_4
REMARK    4  A    between atoms: C_2  and  C_5
REMARK    5  A    between atoms: C_5  and  C_6
REMARK    6  A    between atoms: C_9  and  O_10
REMARK    7  A    between atoms: O_10  and  C_11
REMARK    8  A    between atoms: C_11  and  C_12
REMARK    9  A    between atoms: C_14  and  C_15
REMARK                            x       y       z     vdW  Elec       q    Type
REMARK                         _______ _______ _______ _____ _____    ______ ____
ROOT
ATOM      1  C   UNL     1      49.410   4.536  17.992  0.00  0.00    +0.000 A 
ATOM      2  C   UNL     1      48.723   3.321  17.859  0.00  0.00    +0.000 A 
ATOM      3  C   UNL     1      47.783   3.153  16.842  0.00  0.00    +0.000 A 
ATOM      4  C   UNL     1      47.515   4.198  15.959  0.00  0.00    +0.000 A 
ATOM      5  C   UNL     1      48.252   5.380  16.039  0.00  0.00    +0.000 A 
ATOM      6  C   UNL     1      49.179   5.554  17.060  0.00  0.00    +0.000 A 
ENDROOT
BRANCH   1   7
ATOM      7  C   UNL     1      50.372   4.777  19.129  0.00  0.00    +0.000 C 
BRANCH   7   9
ATOM      8  C   UNL     1      52.662   5.634  18.352  0.00  0.00    +0.000 C 
ATOM      9  C   UNL     1      51.860   4.428  18.864  0.00  0.00    +0.000 C 
ATOM     10  C   UNL     1      51.999   3.263  17.873  0.00  0.00    +0.000 C 
BRANCH   9  11
ATOM     11  N   UNL     1      52.461   4.036  20.155  0.00  0.00    +0.000 NA
ATOM     12  H   UNL     1      52.357   4.790  20.832  0.00  0.00    +0.000 HD
ATOM     13  H   UNL     1      53.464   3.886  20.048  0.00  0.00    +0.000 HD
ENDBRANCH   9  11
ENDBRANCH   7   9
ENDBRANCH   1   7
BRANCH   4  14
ATOM     14  O   UNL     1      46.506   3.984  15.059  0.00  0.00    +0.000 OA
BRANCH  14  15
ATOM     15  C   UNL     1      46.535   4.861  13.925  0.00  0.00    +0.000 C 
BRANCH  15  16
ATOM     16  C   UNL     1      45.320   4.657  13.056  0.00  0.00    +0.000 A 
ATOM     17  C   UNL     1      45.439   4.121  11.789  0.00  0.00    +0.000 A 
ATOM     18  C   UNL     1      44.264   3.989  11.089  0.00  0.00    +0.000 A 
ATOM     19  N   UNL     1      43.045   4.360  11.551  0.00  0.00    +0.000 NA
ATOM     20  C   UNL     1      43.050   4.884  12.780  0.00  0.00    +0.000 A 
ATOM     21  N   UNL     1      44.128   5.057  13.559  0.00  0.00    +0.000 NA
BRANCH  18  22
ATOM     22  C   UNL     1      44.312   3.391   9.720  0.00  0.00    +0.000 C 
ATOM     23  N   UNL     1      44.261   4.283   8.687  0.00  0.00    +0.000 N 
ATOM     24  O   UNL     1      44.386   2.185   9.528  0.00  0.00    +0.000 OA
ATOM     25  H   UNL     1      44.187   5.276   8.878  0.00  0.00    +0.000 HD
ATOM     26  H   UNL     1      44.272   3.939   7.739  0.00  0.00    +0.000 HD
ENDBRANCH  18  22
ENDBRANCH  15  16
ENDBRANCH  14  15
ENDBRANCH   4  14
TORSDOF 7
ENDMDL
MODEL 8
REMARK VINA RESULT:    -5.786      3.951      6.056
REMARK INTER + INTRA:          -8.541
REMARK INTER:                  -7.782
REMARK INTRA:                  -0.759
REMARK UNBOUND:                -0.556
REMARK  Name = 
REMARK  9 active torsions:
REMARK  status: ('A' for Active; 'I' for Inactive)
REMARK    1  A    between atoms: C_1  and  C_2
REMARK    2  A    between atoms: C_2  and  C_3
REMARK    3  A    between atoms: C_2  and  N_4
REMARK    4  A    between atoms: C_2  and  C_5
REMARK    5  A    between atoms: C_5  and  C_6
REMARK    6  A    between atoms: C_9  and  O_10
REMARK    7  A    between atoms: O_10  and  C_11
REMARK    8  A    between atoms: C_11  and  C_12
REMARK    9  A    between atoms: C_14  and  C_15
REMARK                            x       y       z     vdW  Elec       q    Type
REMARK                         _______ _______ _______ _____ _____    ______ ____
ROOT
ATOM      1  C   UNL     1      45.536   6.843  12.085  0.00  0.00    +0.000 A 
ATOM      2  C   UNL     1      45.478   7.965  12.924  0.00  0.00    +0.000 A 
ATOM      3  C   UNL     1      46.643   8.474  13.498  0.00  0.00    +0.000 A 
ATOM      4  C   UNL     1      47.871   7.861  13.247  0.00  0.00    +0.000 A 
ATOM      5  C   UNL     1      47.942   6.794  12.352  0.00  0.00    +0.000 A 
ATOM      6  C   UNL     1      46.780   6.277  11.790  0.00  0.00    +0.000 A 
ENDROOT
BRANCH   1   7
ATOM      7  C   UNL     1      44.285   6.221  11.514  0.00  0.00    +0.000 C 
BRANCH   7   9
ATOM      8  C   UNL     1      44.739   4.327  13.184  0.00  0.00    +0.000 C 
ATOM      9  C   UNL     1      43.696   5.013  12.289  0.00  0.00    +0.000 C 
ATOM     10  C   UNL     1      43.080   3.978  11.336  0.00  0.00    +0.000 C 
BRANCH   9  11
ATOM     11  N   UNL     1      42.643   5.530  13.185  0.00  0.00    +0.000 NA
ATOM     12  H   UNL     1      41.801   5.740  12.650  0.00  0.00    +0.000 HD
ATOM     13  H   UNL     1      42.937   6.408  13.610  0.00  0.00    +0.000 HD
ENDBRANCH   9  11
ENDBRANCH   7   9
ENDBRANCH   1   7
BRANCH   4  14
ATOM     14  O   UNL     1      48.945   8.360  13.933  0.00  0.00    +0.000 OA
BRANCH  14  15
ATOM     15  C   UNL     1      49.740   7.360  14.585  0.00  0.00    +0.000 C 
BRANCH  15  16
ATOM     16  C   UNL     1      49.128   6.962  15.905  0.00  0.00    +0.000 A 
ATOM     17  C   UNL     1      48.623   5.691  16.094  0.00  0.00    +0.000 A 
ATOM     18  C   UNL     1      48.085   5.446  17.335  0.00  0.00    +0.000 A 
ATOM     19  N   UNL     1      48.009   6.358  18.336  0.00  0.00    +0.000 NA
ATOM     20  C   UNL     1      48.510   7.560  18.036  0.00  0.00    +0.000 A 
ATOM     21  N   UNL     1      49.063   7.913  16.866  0.00  0.00    +0.000 NA
BRANCH  18  22
ATOM     22  C   UNL     1      47.543   4.084  17.623  0.00  0.00    +0.000 C 
ATOM     23  N   UNL     1      48.070   3.461  18.717  0.00  0.00    +0.000 N 
ATOM     24  O   UNL     1      46.687   3.553  16.927  0.00  0.00    +0.000 OA
ATOM     25  H   UNL     1      48.787   3.921  19.266  0.00  0.00    +0.000 HD
ATOM     26  H   UNL     1      47.757   2.531  18.953  0.00  0.00    +0.000 HD
ENDBRANCH  18  22
ENDBRANCH  15  16
ENDBRANCH  14  15
ENDBRANCH   4  14
TORSDOF 7
ENDMDL
MODEL 9
REMARK VINA RESULT:    -5.569      4.093      8.385
REMARK INTER + INTRA:          -8.241
REMARK INTER:                  -7.777
REMARK INTRA:                  -0.465
REMARK UNBOUND:                -0.556
REMARK  Name = 
REMARK  9 active torsions:
REMARK  status: ('A' for Active; 'I' for Inactive)
REMARK    1  A    between atoms: C_1  and  C_2
REMARK    2  A    between atoms: C_2  and  C_3
REMARK    3  A    between atoms: C_2  and  N_4
REMARK    4  A    between atoms: C_2  and  C_5
REMARK    5  A    between atoms: C_5  and  C_6
REMARK    6  A    between atoms: C_9  and  O_10
REMARK    7  A    between atoms: O_10  and  C_11
REMARK    8  A    between atoms: C_11  and  C_12
REMARK    9  A    between atoms: C_14  and  C_15
REMARK                            x       y       z     vdW  Elec       q    Type
REMARK                         _______ _______ _______ _____ _____    ______ ____
ROOT
ATOM      1  C   UNL     1      49.585   4.427  18.235  0.00  0.00    +0.000 A 
ATOM      2  C   UNL     1      49.375   5.390  17.238  0.00  0.00    +0.000 A 
ATOM      3  C   UNL     1      48.320   5.249  16.335  0.00  0.00    +0.000 A 
ATOM      4  C   UNL     1      47.475   4.142  16.416  0.00  0.00    +0.000 A 
ATOM      5  C   UNL     1      47.633   3.225  17.455  0.00  0.00    +0.000 A 
ATOM      6  C   UNL     1      48.692   3.356  18.346  0.00  0.00    +0.000 A 
ENDROOT
BRANCH   1   7
ATOM      7  C   UNL     1      50.763   4.509  19.174  0.00  0.00    +0.000 C 
BRANCH   7   9
ATOM      8  C   UNL     1      51.959   2.718  17.779  0.00  0.00    +0.000 C 
ATOM      9  C   UNL     1      52.119   3.986  18.631  0.00  0.00    +0.000 C 
ATOM     10  C   UNL     1      53.116   3.717  19.768  0.00  0.00    +0.000 C 
BRANCH   9  11
ATOM     11  N   UNL     1      52.673   5.027  17.741  0.00  0.00    +0.000 NA
ATOM     12  H   UNL     1      51.995   5.777  17.617  0.00  0.00    +0.000 HD
ATOM     13  H   UNL     1      52.849   4.644  16.813  0.00  0.00    +0.000 HD
ENDBRANCH   9  11
ENDBRANCH   7   9
ENDBRANCH   1   7
BRANCH   4  14
ATOM     14  O   UNL     1      46.534   4.029  15.430  0.00  0.00    +0.000 OA
BRANCH  14  15
ATOM     15  C   UNL     1      47.074   3.735  14.134  0.00  0.00    +0.000 C 
BRANCH  15  16
ATOM     16  C   UNL     1      46.497   4.655  13.089  0.00  0.00    +0.000 A 
ATOM     17  C   UNL     1      45.328   4.328  12.428  0.00  0.00    +0.000 A 
ATOM     18  C   UNL     1      44.903   5.240  11.492  0.00  0.00    +0.000 A 
ATOM     19  N   UNL     1      45.554   6.388  11.182  0.00  0.00    +0.000 NA
ATOM     20  C   UNL     1      46.682   6.593  11.869  0.00  0.00    +0.000 A 
ATOM     21  N   UNL     1      47.192   5.781  12.806  0.00  0.00    +0.000 NA
BRANCH  18  22
ATOM     22  C   UNL     1      43.632   4.967  10.756  0.00  0.00    +0.000 C 
ATOM     23  N   UNL     1      43.773   4.670   9.430  0.00  0.00    +0.000 N 
ATOM     24  O   UNL     1      42.533   5.010  11.295  0.00  0.00    +0.000 OA
ATOM     25  H   UNL     1      44.695   4.655   9.009  0.00  0.00    +0.000 HD
ATOM     26  H   UNL     1      42.949   4.493   8.875  0.00  0.00    +0.000 HD
ENDBRANCH  18  22
ENDBRANCH  15  16
ENDBRANCH  14  15
ENDBRANCH   4  14
TORSDOF 7
ENDMDL
