MODEL 1
REMARK VINA RESULT:    -7.672      0.000      0.000
REMARK INTER + INTRA:         -10.290
REMARK INTER:                  -9.691
REMARK INTRA:                  -0.599
REMARK UNBOUND:                -0.599
REMARK  Name = 
REMARK  5 active torsions:
REMARK  status: ('A' for Active; 'I' for Inactive)
REMARK    1  A    between atoms: N_1  and  C_2
REMARK    2  A    between atoms: C_2  and  C_3
REMARK    3  A    between atoms: C_3  and  C_4
REMARK    4  A    between atoms: C_7  and  C_8
REMARK    5  A    between atoms: C_8  and  N_9
REMARK                            x       y       z     vdW  Elec       q    Type
REMARK                         _______ _______ _______ _____ _____    ______ ____
ROOT
ATOM      1  C   UNL     1      46.019   2.411   8.130  0.00  0.00    +0.000 A 
ATOM      2  C   UNL     1      46.049   3.806   8.024  0.00  0.00    +0.000 A 
ATOM      3  C   UNL     1      45.211   4.595   8.818  0.00  0.00    +0.000 A 
ATOM      4  C   UNL     1      44.326   4.008   9.733  0.00  0.00    +0.000 A 
ATOM      5  C   UNL     1      44.301   2.608   9.838  0.00  0.00    +0.000 A 
ATOM      6  C   UNL     1      45.143   1.821   9.053  0.00  0.00    +0.000 A 
ENDROOT
BRANCH   1   7
ATOM      7  C   UNL     1      46.910   1.553   7.264  0.00  0.00    +0.000 C 
BRANCH   7   8
ATOM      8  C   UNL     1      48.165   2.292   6.776  0.00  0.00    +0.000 C 
BRANCH   8   9
ATOM      9  N   UNL     1      48.480   1.928   5.396  0.00  0.00    +0.000 NA
ATOM     10  H   UNL     1      48.203   2.688   4.775  0.00  0.00    +0.000 HD
ATOM     11  H   UNL     1      47.927   1.118   5.119  0.00  0.00    +0.000 HD
ENDBRANCH   8   9
ENDBRANCH   7   8
ENDBRANCH   1   7
BRANCH   4  12
ATOM     12  C   UNL     1      43.463   4.862  10.624  0.00  0.00    +0.000 C 
BRANCH  12  13
ATOM     13  N   UNL     1      44.178   5.768  11.517  0.00  0.00    +0.000 N 
ATOM     14  C   UNL     1      44.294   7.122  11.356  0.00  0.00    +0.000 A 
ATOM     15  N   UNL     1      45.351   7.599  11.977  0.00  0.00    +0.000 NA
ATOM     16  C   UNL     1      45.924   6.517  12.594  0.00  0.00    +0.000 A 
ATOM     17  C   UNL     1      47.125   6.433  13.317  0.00  0.00    +0.000 A 
ATOM     18  C   UNL     1      47.502   5.197  13.856  0.00  0.00    +0.000 A 
ATOM     19  C   UNL     1      46.681   4.077  13.715  0.00  0.00    +0.000 A 
ATOM     20  C   UNL     1      45.487   4.138  12.987  0.00  0.00    +0.000 A 
ATOM     21  C   UNL     1      45.157   5.370  12.405  0.00  0.00    +0.000 A 
ENDBRANCH  12  13
ENDBRANCH   4  12
TORSDOF 5
ENDMDL
MODEL 2
REMARK VINA RESULT:    -6.747      2.167      6.442
REMARK INTER + INTRA:          -9.121
REMARK INTER:                  -8.814
REMARK INTRA:                  -0.307
REMARK UNBOUND:                -0.599
REMARK  Name = 
REMARK  5 active torsions:
REMARK  status: ('A' for Active; 'I' for Inactive)
REMARK    1  A    between atoms: N_1  and  C_2
REMARK    2  A    between atoms: C_2  and  C_3
REMARK    3  A    between atoms: C_3  and  C_4
REMARK    4  A    between atoms: C_7  and  C_8
REMARK    5  A    between atoms: C_8  and  N_9
REMARK                            x       y       z     vdW  Elec       q    Type
REMARK                         _______ _______ _______ _____ _____    ______ ____
ROOT
ATOM      1  C   UNL     1      46.474   5.302  13.041  0.00  0.00    +0.000 A 
ATOM      2  C   UNL     1      45.671   4.159  12.953  0.00  0.00    +0.000 A 
ATOM      3  C   UNL     1      44.971   3.874  11.777  0.00  0.00    +0.000 A 
ATOM      4  C   UNL     1      45.058   4.725  10.665  0.00  0.00    +0.000 A 
ATOM      5  C   UNL     1      45.866   5.869  10.758  0.00  0.00    +0.000 A 
ATOM      6  C   UNL     1      46.571   6.149  11.928  0.00  0.00    +0.000 A 
ENDROOT
BRANCH   1   7
ATOM      7  C   UNL     1      47.220   5.622  14.315  0.00  0.00    +0.000 C 
BRANCH   7   8
ATOM      8  C   UNL     1      47.214   4.463  15.323  0.00  0.00    +0.000 C 
BRANCH   8   9
ATOM      9  N   UNL     1      47.388   4.957  16.687  0.00  0.00    +0.000 NA
ATOM     10  H   UNL     1      47.284   4.184  17.342  0.00  0.00    +0.000 HD
ATOM     11  H   UNL     1      46.648   5.621  16.909  0.00  0.00    +0.000 HD
ENDBRANCH   8   9
ENDBRANCH   7   8
ENDBRANCH   1   7
BRANCH   4  12
ATOM     12  C   UNL     1      44.345   4.389   9.383  0.00  0.00    +0.000 C 
BRANCH  12  13
ATOM     13  N   UNL     1      44.734   3.131   8.754  0.00  0.00    +0.000 N 
ATOM     14  C   UNL     1      44.439   1.878   9.221  0.00  0.00    +0.000 A 
ATOM     15  N   UNL     1      45.289   0.979   8.777  0.00  0.00    +0.000 NA
ATOM     16  C   UNL     1      46.149   1.668   7.963  0.00  0.00    +0.000 A 
ATOM     17  C   UNL     1      47.304   1.221   7.301  0.00  0.00    +0.000 A 
ATOM     18  C   UNL     1      48.026   2.130   6.517  0.00  0.00    +0.000 A 
ATOM     19  C   UNL     1      47.585   3.445   6.360  0.00  0.00    +0.000 A 
ATOM     20  C   UNL     1      46.444   3.912   7.022  0.00  0.00    +0.000 A 
ATOM     21  C   UNL     1      45.769   3.003   7.850  0.00  0.00    +0.000 A 
ENDBRANCH  12  13
ENDBRANCH   4  12
TORSDOF 5
ENDMDL
MODEL 3
REMARK VINA RESULT:    -6.745      1.565      2.310
REMARK INTER + INTRA:          -9.118
REMARK INTER:                  -8.655
REMARK INTRA:                  -0.464
REMARK UNBOUND:                -0.599
REMARK  Name = 
REMARK  5 active torsions:
REMARK  status: ('A' for Active; 'I' for Inactive)
REMARK    1  A    between atoms: N_1  and  C_2
REMARK    2  A    between atoms: C_2  and  C_3
REMARK    3  A    between atoms: C_3  and  C_4
REMARK    4  A    between atoms: C_7  and  C_8
REMARK    5  A    between atoms: C_8  and  N_9
REMARK                            x       y       z     vdW  Elec       q    Type
REMARK                         _______ _______ _______ _____ _____    ______ ____
ROOT
ATOM      1  C   UNL     1      45.894   3.171   7.731  0.00  0.00    +0.000 A 
ATOM      2  C   UNL     1      46.158   4.531   7.930  0.00  0.00    +0.000 A 
ATOM      3  C   UNL     1      45.828   5.145   9.143  0.00  0.00    +0.000 A 
ATOM      4  C   UNL     1      45.229   4.415  10.179  0.00  0.00    +0.000 A 
ATOM      5  C   UNL     1      44.968   3.051   9.974  0.00  0.00    +0.000 A 
ATOM      6  C   UNL     1      45.305   2.435   8.769  0.00  0.00    +0.000 A 
ENDROOT
BRANCH   1   7
ATOM      7  C   UNL     1      46.233   2.505   6.418  0.00  0.00    +0.000 C 
BRANCH   7   8
ATOM      8  C   UNL     1      47.387   1.499   6.535  0.00  0.00    +0.000 C 
BRANCH   8   9
ATOM      9  N   UNL     1      48.513   1.896   5.692  0.00  0.00    +0.000 NA
ATOM     10  H   UNL     1      49.379   1.541   6.096  0.00  0.00    +0.000 HD
ATOM     11  H   UNL     1      48.596   2.911   5.686  0.00  0.00    +0.000 HD
ENDBRANCH   8   9
ENDBRANCH   7   8
ENDBRANCH   1   7
BRANCH   4  12
ATOM     12  C   UNL     1      44.923   5.067  11.501  0.00  0.00    +0.000 C 
BRANCH  12  13
ATOM     13  N   UNL     1      46.006   5.051  12.479  0.00  0.00    +0.000 N 
ATOM     14  C   UNL     1      46.017   4.340  13.649  0.00  0.00    +0.000 A 
ATOM     15  N   UNL     1      46.833   4.868  14.534  0.00  0.00    +0.000 NA
ATOM     16  C   UNL     1      47.401   5.944  13.903  0.00  0.00    +0.000 A 
ATOM     17  C   UNL     1      48.275   6.919  14.410  0.00  0.00    +0.000 A 
ATOM     18  C   UNL     1      48.721   7.935  13.556  0.00  0.00    +0.000 A 
ATOM     19  C   UNL     1      48.338   7.957  12.214  0.00  0.00    +0.000 A 
ATOM     20  C   UNL     1      47.457   7.002  11.693  0.00  0.00    +0.000 A 
ATOM     21  C   UNL     1      46.975   6.029  12.579  0.00  0.00    +0.000 A 
ENDBRANCH  12  13
ENDBRANCH   4  12
TORSDOF 5
ENDMDL
MODEL 4
REMARK VINA RESULT:    -6.496      1.367      2.514
REMARK INTER + INTRA:          -8.805
REMARK INTER:                  -8.327
REMARK INTRA:                  -0.477
REMARK UNBOUND:                -0.599
REMARK  Name = 
REMARK  5 active torsions:
REMARK  status: ('A' for Active; 'I' for Inactive)
REMARK    1  A    between atoms: N_1  and  C_2
REMARK    2  A    between atoms: C_2  and  C_3
REMARK    3  A    between atoms: C_3  and  C_4
REMARK    4  A    between atoms: C_7  and  C_8
REMARK    5  A    between atoms: C_8  and  N_9
REMARK                            x       y       z     vdW  Elec       q    Type
REMARK                         _______ _______ _______ _____ _____    ______ ____
ROOT
ATOM      1  C   UNL     1      45.983   2.489   7.791  0.00  0.00    +0.000 A 
ATOM      2  C   UNL     1      46.114   3.882   7.789  0.00  0.00    +0.000 A 
ATOM      3  C   UNL     1      45.591   4.644   8.838  0.00  0.00    +0.000 A 
ATOM      4  C   UNL     1      44.926   4.030   9.910  0.00  0.00    +0.000 A 
ATOM      5  C   UNL     1      44.799   2.632   9.908  0.00  0.00    +0.000 A 
ATOM      6  C   UNL     1      45.329   1.871   8.866  0.00  0.00    +0.000 A 
ENDROOT
BRANCH   1   7
ATOM      7  C   UNL     1      46.532   1.662   6.652  0.00  0.00    +0.000 C 
BRANCH   7   8
ATOM      8  C   UNL     1      47.291   2.500   5.613  0.00  0.00    +0.000 C 
BRANCH   8   9
ATOM      9  N   UNL     1      48.639   1.976   5.403  0.00  0.00    +0.000 NA
ATOM     10  H   UNL     1      49.083   2.483   4.639  0.00  0.00    +0.000 HD
ATOM     11  H   UNL     1      48.586   1.002   5.107  0.00  0.00    +0.000 HD
ENDBRANCH   8   9
ENDBRANCH   7   8
ENDBRANCH   1   7
BRANCH   4  12
ATOM     12  C   UNL     1      44.410   4.849  11.063  0.00  0.00    +0.000 C 
BRANCH  12  13
ATOM     13  N   UNL     1      45.367   5.774  11.660  0.00  0.00    +0.000 N 
ATOM     14  C   UNL     1      46.302   5.456  12.609  0.00  0.00    +0.000 A 
ATOM     15  N   UNL     1      46.668   6.509  13.306  0.00  0.00    +0.000 NA
ATOM     16  C   UNL     1      45.970   7.558  12.766  0.00  0.00    +0.000 A 
ATOM     17  C   UNL     1      45.907   8.898  13.182  0.00  0.00    +0.000 A 
ATOM     18  C   UNL     1      45.109   9.792  12.458  0.00  0.00    +0.000 A 
ATOM     19  C   UNL     1      44.422   9.372  11.318  0.00  0.00    +0.000 A 
ATOM     20  C   UNL     1      44.462   8.038  10.895  0.00  0.00    +0.000 A 
ATOM     21  C   UNL     1      45.218   7.146  11.669  0.00  0.00    +0.000 A 
ENDBRANCH  12  13
ENDBRANCH   4  12
TORSDOF 5
ENDMDL
MODEL 5
REMARK VINA RESULT:    -6.329      2.056      6.369
REMARK INTER + INTRA:          -8.594
REMARK INTER:                  -8.452
REMARK INTRA:                  -0.142
REMARK UNBOUND:                -0.599
REMARK  Name = 
REMARK  5 active torsions:
REMARK  status: ('A' for Active; 'I' for Inactive)
REMARK    1  A    between atoms: N_1  and  C_2
REMARK    2  A    between atoms: C_2  and  C_3
REMARK    3  A    between atoms: C_3  and  C_4
REMARK    4  A    between atoms: C_7  and  C_8
REMARK    5  A    between atoms: C_8  and  N_9
REMARK                            x       y       z     vdW  Elec       q    Type
REMARK                         _______ _______ _______ _____ _____    ______ ____
ROOT
ATOM      1  C   UNL     1      47.412   5.668  14.198  0.00  0.00    +0.000 A 
ATOM      2  C   UNL     1      47.653   6.616  13.196  0.00  0.00    +0.000 A 
ATOM      3  C   UNL     1      46.864   6.642  12.042  0.00  0.00    +0.000 A 
ATOM      4  C   UNL     1      45.819   5.723  11.864  0.00  0.00    +0.000 A 
ATOM      5  C   UNL     1      45.580   4.777  12.873  0.00  0.00    +0.000 A 
ATOM      6  C   UNL     1      46.361   4.755  14.028  0.00  0.00    +0.000 A 
ENDROOT
BRANCH   1   7
ATOM      7  C   UNL     1      48.271   5.625  15.440  0.00  0.00    +0.000 C 
BRANCH   7   8
ATOM      8  C   UNL     1      47.828   4.546  16.438  0.00  0.00    +0.000 C 
BRANCH   8   9
ATOM      9  N   UNL     1      47.152   5.145  17.587  0.00  0.00    +0.000 NA
ATOM     10  H   UNL     1      47.722   5.011  18.421  0.00  0.00    +0.000 HD
ATOM     11  H   UNL     1      46.274   4.658  17.761  0.00  0.00    +0.000 HD
ENDBRANCH   8   9
ENDBRANCH   7   8
ENDBRANCH   1   7
BRANCH   4  12
ATOM     12  C   UNL     1      44.939   5.788  10.645  0.00  0.00    +0.000 C 
BRANCH  12  13
ATOM     13  N   UNL     1      44.573   4.503  10.060  0.00  0.00    +0.000 N 
ATOM     14  C   UNL     1      43.780   3.553  10.647  0.00  0.00    +0.000 A 
ATOM     15  N   UNL     1      44.012   2.354  10.160  0.00  0.00    +0.000 NA
ATOM     16  C   UNL     1      44.969   2.536   9.195  0.00  0.00    +0.000 A 
ATOM     17  C   UNL     1      45.651   1.584   8.422  0.00  0.00    +0.000 A 
ATOM     18  C   UNL     1      46.599   2.025   7.490  0.00  0.00    +0.000 A 
ATOM     19  C   UNL     1      46.833   3.388   7.302  0.00  0.00    +0.000 A 
ATOM     20  C   UNL     1      46.172   4.352   8.072  0.00  0.00    +0.000 A 
ATOM     21  C   UNL     1      45.271   3.887   9.040  0.00  0.00    +0.000 A 
ENDBRANCH  12  13
ENDBRANCH   4  12
TORSDOF 5
ENDMDL
MODEL 6
REMARK VINA RESULT:    -5.634      2.296      3.549
REMARK INTER + INTRA:          -7.716
REMARK INTER:                  -7.217
REMARK INTRA:                  -0.499
REMARK UNBOUND:                -0.599
REMARK  Name = 
REMARK  5 active torsions:
REMARK  status: ('A' for Active; 'I' for Inactive)
REMARK    1  A    between atoms: N_1  and  C_2
REMARK    2  A    between atoms: C_2  and  C_3
REMARK    3  A    between atoms: C_3  and  C_4
REMARK    4  A    between atoms: C_7  and  C_8
REMARK    5  A    between atoms: C_8  and  N_9
REMARK                            x       y       z     vdW  Elec       q    Type
REMARK                         _______ _______ _______ _____ _____    ______ ____
ROOT
ATOM      1  C   UNL     1      44.888   3.305   9.792  0.00  0.00    +0.000 A 
ATOM      2  C   UNL     1      45.308   4.593   9.445  0.00  0.00    +0.000 A 
ATOM      3  C   UNL     1      45.580   5.540  10.437  0.00  0.00    +0.000 A 
ATOM      4  C   UNL     1      45.439   5.220  11.795  0.00  0.00    +0.000 A 
ATOM      5  C   UNL     1      45.019   3.926  12.138  0.00  0.00    +0.000 A 
ATOM      6  C   UNL     1      44.755   2.978  11.150  0.00  0.00    +0.000 A 
ENDROOT
BRANCH   1   7
ATOM      7  C   UNL     1      44.576   2.282   8.725  0.00  0.00    +0.000 C 
BRANCH   7   8
ATOM      8  C   UNL     1      45.773   1.380   8.390  0.00  0.00    +0.000 C 
BRANCH   8   9
ATOM      9  N   UNL     1      46.711   2.067   7.504  0.00  0.00    +0.000 NA
ATOM     10  H   UNL     1      46.621   3.074   7.633  0.00  0.00    +0.000 HD
ATOM     11  H   UNL     1      46.466   1.880   6.533  0.00  0.00    +0.000 HD
ENDBRANCH   8   9
ENDBRANCH   7   8
ENDBRANCH   1   7
BRANCH   4  12
ATOM     12  C   UNL     1      45.784   6.226  12.861  0.00  0.00    +0.000 C 
BRANCH  12  13
ATOM     13  N   UNL     1      47.157   6.183  13.351  0.00  0.00    +0.000 N 
ATOM     14  C   UNL     1      47.563   5.656  14.548  0.00  0.00    +0.000 A 
ATOM     15  N   UNL     1      48.705   6.172  14.946  0.00  0.00    +0.000 NA
ATOM     16  C   UNL     1      49.073   7.043  13.952  0.00  0.00    +0.000 A 
ATOM     17  C   UNL     1      50.159   7.931  13.898  0.00  0.00    +0.000 A 
ATOM     18  C   UNL     1      50.322   8.729  12.759  0.00  0.00    +0.000 A 
ATOM     19  C   UNL     1      49.446   8.616  11.678  0.00  0.00    +0.000 A 
ATOM     20  C   UNL     1      48.350   7.746  11.719  0.00  0.00    +0.000 A 
ATOM     21  C   UNL     1      48.171   7.000  12.892  0.00  0.00    +0.000 A 
ENDBRANCH  12  13
ENDBRANCH   4  12
TORSDOF 5
ENDMDL
MODEL 7
REMARK VINA RESULT:    -5.529      1.989      3.125
REMARK INTER + INTRA:          -7.583
REMARK INTER:                  -7.287
REMARK INTRA:                  -0.296
REMARK UNBOUND:                -0.599
REMARK  Name = 
REMARK  5 active torsions:
REMARK  status: ('A' for Active; 'I' for Inactive)
REMARK    1  A    between atoms: N_1  and  C_2
REMARK    2  A    between atoms: C_2  and  C_3
REMARK    3  A    between atoms: C_3  and  C_4
REMARK    4  A    between atoms: C_7  and  C_8
REMARK    5  A    between atoms: C_8  and  N_9
REMARK                            x       y       z     vdW  Elec       q    Type
REMARK                         _______ _______ _______ _____ _____    ______ ____
ROOT
ATOM      1  C   UNL     1      45.307   3.757   9.364  0.00  0.00    +0.000 A 
ATOM      2  C   UNL     1      44.919   3.193  10.585  0.00  0.00    +0.000 A 
ATOM      3  C   UNL     1      44.870   3.977  11.742  0.00  0.00    +0.000 A 
ATOM      4  C   UNL     1      45.208   5.337  11.703  0.00  0.00    +0.000 A 
ATOM      5  C   UNL     1      45.594   5.898  10.476  0.00  0.00    +0.000 A 
ATOM      6  C   UNL     1      45.635   5.119   9.320  0.00  0.00    +0.000 A 
ENDROOT
BRANCH   1   7
ATOM      7  C   UNL     1      45.378   2.911   8.113  0.00  0.00    +0.000 C 
BRANCH   7   8
ATOM      8  C   UNL     1      45.403   1.405   8.408  0.00  0.00    +0.000 C 
BRANCH   8   9
ATOM      9  N   UNL     1      46.654   0.804   7.949  0.00  0.00    +0.000 NA
ATOM     10  H   UNL     1      47.043   1.370   7.195  0.00  0.00    +0.000 HD
ATOM     11  H   UNL     1      46.467  -0.113   7.548  0.00  0.00    +0.000 HD
ENDBRANCH   8   9
ENDBRANCH   7   8
ENDBRANCH   1   7
BRANCH   4  12
ATOM     12  C   UNL     1      45.103   6.190  12.940  0.00  0.00    +0.000 C 
BRANCH  12  13
ATOM     13  N   UNL     1      45.842   7.447  12.906  0.00  0.00    +0.000 N 
ATOM     14  C   UNL     1      45.310   8.681  12.644  0.00  0.00    +0.000 A 
ATOM     15  N   UNL     1      46.218   9.520  12.197  0.00  0.00    +0.000 NA
ATOM     16  C   UNL     1      47.393   8.814  12.201  0.00  0.00    +0.000 A 
ATOM     17  C   UNL     1      48.664   9.189  11.736  0.00  0.00    +0.000 A 
ATOM     18  C   UNL     1      49.721   8.277  11.850  0.00  0.00    +0.000 A 
ATOM     19  C   UNL     1      49.527   7.034  12.453  0.00  0.00    +0.000 A 
ATOM     20  C   UNL     1      48.266   6.636  12.911  0.00  0.00    +0.000 A 
ATOM     21  C   UNL     1      47.209   7.539  12.733  0.00  0.00    +0.000 A 
ENDBRANCH  12  13
ENDBRANCH   4  12
TORSDOF 5
ENDMDL
MODEL 8
REMARK VINA RESULT:    -5.267      4.492      7.572
REMARK INTER + INTRA:          -7.252
REMARK INTER:                  -6.921
REMARK INTRA:                  -0.331
REMARK UNBOUND:                -0.599
REMARK  Name = 
REMARK  5 active torsions:
REMARK  status: ('A' for Active; 'I' for Inactive)
REMARK    1  A    between atoms: N_1  and  C_2
REMARK    2  A    between atoms: C_2  and  C_3
REMARK    3  A    between atoms: C_3  and  C_4
REMARK    4  A    between atoms: C_7  and  C_8
REMARK    5  A    between atoms: C_8  and  N_9
REMARK                            x       y       z     vdW  Elec       q    Type
REMARK                         _______ _______ _______ _____ _____    ______ ____
ROOT
ATOM      1  C   UNL     1      50.603   2.884  17.448  0.00  0.00    +0.000 A 
ATOM      2  C   UNL     1      49.721   2.023  16.785  0.00  0.00    +0.000 A 
ATOM      3  C   UNL     1      48.534   2.514  16.233  0.00  0.00    +0.000 A 
ATOM      4  C   UNL     1      48.202   3.873  16.333  0.00  0.00    +0.000 A 
ATOM      5  C   UNL     1      49.091   4.732  16.998  0.00  0.00    +0.000 A 
ATOM      6  C   UNL     1      50.280   4.245  17.540  0.00  0.00    +0.000 A 
ENDROOT
BRANCH   1   7
ATOM      7  C   UNL     1      51.880   2.357  18.059  0.00  0.00    +0.000 C 
BRANCH   7   8
ATOM      8  C   UNL     1      52.324   1.016  17.458  0.00  0.00    +0.000 C 
BRANCH   8   9
ATOM      9  N   UNL     1      52.117  -0.076  18.408  0.00  0.00    +0.000 NA
ATOM     10  H   UNL     1      52.816  -0.800  18.248  0.00  0.00    +0.000 HD
ATOM     11  H   UNL     1      51.212  -0.511  18.238  0.00  0.00    +0.000 HD
ENDBRANCH   8   9
ENDBRANCH   7   8
ENDBRANCH   1   7
BRANCH   4  12
ATOM     12  C   UNL     1      46.948   4.407  15.693  0.00  0.00    +0.000 C 
BRANCH  12  13
ATOM     13  N   UNL     1      47.118   5.009  14.375  0.00  0.00    +0.000 N 
ATOM     14  C   UNL     1      47.689   6.228  14.120  0.00  0.00    +0.000 A 
ATOM     15  N   UNL     1      47.280   6.728  12.975  0.00  0.00    +0.000 NA
ATOM     16  C   UNL     1      46.438   5.782  12.449  0.00  0.00    +0.000 A 
ATOM     17  C   UNL     1      45.651   5.833  11.288  0.00  0.00    +0.000 A 
ATOM     18  C   UNL     1      44.861   4.724  10.959  0.00  0.00    +0.000 A 
ATOM     19  C   UNL     1      44.887   3.572  11.746  0.00  0.00    +0.000 A 
ATOM     20  C   UNL     1      45.655   3.507  12.914  0.00  0.00    +0.000 A 
ATOM     21  C   UNL     1      46.392   4.649  13.258  0.00  0.00    +0.000 A 
ENDBRANCH  12  13
ENDBRANCH   4  12
TORSDOF 5
ENDMDL
MODEL 9
REMARK VINA RESULT:    -5.119      2.979      7.191
REMARK INTER + INTRA:          -7.066
REMARK INTER:                  -7.628
REMARK INTRA:                   0.563
REMARK UNBOUND:                -0.599
REMARK  Name = 
REMARK  5 active torsions:
REMARK  status: ('A' for Active; 'I' for Inactive)
REMARK    1  A    between atoms: N_1  and  C_2
REMARK    2  A    between atoms: C_2  and  C_3
REMARK    3  A    between atoms: C_3  and  C_4
REMARK    4  A    between atoms: C_7  and  C_8
REMARK    5  A    between atoms: C_8  and  N_9
REMARK                            x       y       z     vdW  Elec       q    Type
REMARK                         _______ _______ _______ _____ _____    ______ ____
ROOT
ATOM      1  C   UNL     1      48.533   5.291  16.500  0.00  0.00    +0.000 A 
ATOM      2  C   UNL     1      47.643   4.364  15.947  0.00  0.00    +0.000 A 
ATOM      3  C   UNL     1      47.044   4.611  14.708  0.00  0.00    +0.000 A 
ATOM      4  C   UNL     1      47.321   5.788  13.997  0.00  0.00    +0.000 A 
ATOM      5  C   UNL     1      48.216   6.714  14.557  0.00  0.00    +0.000 A 
ATOM      6  C   UNL     1      48.820   6.464  15.788  0.00  0.00    +0.000 A 
ENDROOT
BRANCH   1   7
ATOM      7  C   UNL     1      49.171   5.037  17.846  0.00  0.00    +0.000 C 
BRANCH   7   8
ATOM      8  C   UNL     1      49.227   3.546  18.212  0.00  0.00    +0.000 C 
BRANCH   8   9
ATOM      9  N   UNL     1      48.362   3.257  19.354  0.00  0.00    +0.000 NA
ATOM     10  H   UNL     1      47.387   3.359  19.072  0.00  0.00    +0.000 HD
ATOM     11  H   UNL     1      48.520   3.945  20.087  0.00  0.00    +0.000 HD
ENDBRANCH   8   9
ENDBRANCH   7   8
ENDBRANCH   1   7
BRANCH   4  12
ATOM     12  C   UNL     1      46.715   6.027  12.640  0.00  0.00    +0.000 C 
BRANCH  12  13
ATOM     13  N   UNL     1      45.538   5.225  12.323  0.00  0.00    +0.000 N 
ATOM     14  C   UNL     1      44.791   4.510  13.220  0.00  0.00    +0.000 A 
ATOM     15  N   UNL     1      44.138   3.528  12.640  0.00  0.00    +0.000 NA
ATOM     16  C   UNL     1      44.444   3.630  11.307  0.00  0.00    +0.000 A 
ATOM     17  C   UNL     1      44.096   2.784  10.243  0.00  0.00    +0.000 A 
ATOM     18  C   UNL     1      44.538   3.104   8.953  0.00  0.00    +0.000 A 
ATOM     19  C   UNL     1      45.277   4.265   8.721  0.00  0.00    +0.000 A 
ATOM     20  C   UNL     1      45.646   5.114   9.771  0.00  0.00    +0.000 A 
ATOM     21  C   UNL     1      45.244   4.744  11.062  0.00  0.00    +0.000 A 
ENDBRANCH  12  13
ENDBRANCH   4  12
TORSDOF 5
ENDMDL
