MODEL 1
REMARK VINA RESULT:    -7.268      0.000      0.000
REMARK INTER + INTRA:          -8.878
REMARK INTER:                  -8.543
REMARK INTRA:                  -0.335
REMARK UNBOUND:                -0.335
REMARK  Name = 
REMARK  5 active torsions:
REMARK  status: ('A' for Active; 'I' for Inactive)
REMARK    1  A    between atoms: C_1  and  C_2
REMARK    2  A    between atoms: C_6  and  C_7
REMARK    3  A    between atoms: C_7  and  C_8
REMARK    4  A    between atoms: C_7  and  N_9
REMARK    5  A    between atoms: C_13  and  C_14
REMARK                            x       y       z     vdW  Elec       q    Type
REMARK                         _______ _______ _______ _____ _____    ______ ____
ROOT
ATOM      1  N   UNL     1      44.354   5.192  10.497  0.00  0.00    +0.000 N 
ATOM      2  C   UNL     1      45.090   6.130  11.228  0.00  0.00    +0.000 A 
ATOM      3  C   UNL     1      44.548   7.396  11.495  0.00  0.00    +0.000 A 
ATOM      4  N   UNL     1      45.182   8.375  12.192  0.00  0.00    +0.000 NA
ATOM      5  C   UNL     1      46.440   8.045  12.595  0.00  0.00    +0.000 A 
ATOM      6  C   UNL     1      47.011   6.818  12.309  0.00  0.00    +0.000 A 
ATOM      7  N   UNL     1      46.351   5.847  11.623  0.00  0.00    +0.000 NA
ATOM      8  H   UNL     1      43.356   5.288  10.648  0.00  0.00    +0.000 HD
ENDROOT
BRANCH   5   9
ATOM      9  C   UNL     1      47.211   9.058  13.369  0.00  0.00    +0.000 C 
ATOM     10  N   UNL     1      47.174   8.920  14.731  0.00  0.00    +0.000 N 
ATOM     11  O   UNL     1      47.841   9.953  12.829  0.00  0.00    +0.000 OA
ATOM     12  H   UNL     1      46.640   8.167  15.149  0.00  0.00    +0.000 HD
ATOM     13  H   UNL     1      47.671   9.575  15.313  0.00  0.00    +0.000 HD
ENDBRANCH   5   9
BRANCH   1  14
ATOM     14  C   UNL     1      44.764   3.785  10.630  0.00  0.00    +0.000 C 
ATOM     15  C   UNL     1      43.558   2.920  11.038  0.00  0.00    +0.000 C 
BRANCH  14  21
ATOM     16  C   UNL     1      46.682   0.163   7.693  0.00  0.00    +0.000 C 
ATOM     17  C   UNL     1      46.313   1.606   7.878  0.00  0.00    +0.000 A 
ATOM     18  C   UNL     1      46.671   2.561   6.922  0.00  0.00    +0.000 A 
ATOM     19  C   UNL     1      46.378   3.906   7.132  0.00  0.00    +0.000 A 
ATOM     20  C   UNL     1      45.741   4.312   8.306  0.00  0.00    +0.000 A 
ATOM     21  C   UNL     1      45.365   3.377   9.284  0.00  0.00    +0.000 A 
ATOM     22  C   UNL     1      45.645   2.018   9.042  0.00  0.00    +0.000 A 
ENDBRANCH  14  21
ENDBRANCH   1  14
TORSDOF 3
ENDMDL
MODEL 2
REMARK VINA RESULT:    -7.157      3.399      6.822
REMARK INTER + INTRA:          -8.748
REMARK INTER:                  -8.517
REMARK INTRA:                  -0.231
REMARK UNBOUND:                -0.335
REMARK  Name = 
REMARK  5 active torsions:
REMARK  status: ('A' for Active; 'I' for Inactive)
REMARK    1  A    between atoms: C_1  and  C_2
REMARK    2  A    between atoms: C_6  and  C_7
REMARK    3  A    between atoms: C_7  and  C_8
REMARK    4  A    between atoms: C_7  and  N_9
REMARK    5  A    between atoms: C_13  and  C_14
REMARK                            x       y       z     vdW  Elec       q    Type
REMARK                         _______ _______ _______ _____ _____    ______ ____
ROOT
ATOM      1  N   UNL     1      44.231   3.889  10.862  0.00  0.00    +0.000 N 
ATOM      2  C   UNL     1      44.966   3.532   9.727  0.00  0.00    +0.000 A 
ATOM      3  C   UNL     1      45.101   2.182   9.373  0.00  0.00    +0.000 A 
ATOM      4  N   UNL     1      45.794   1.734   8.293  0.00  0.00    +0.000 NA
ATOM      5  C   UNL     1      46.404   2.717   7.576  0.00  0.00    +0.000 A 
ATOM      6  C   UNL     1      46.319   4.052   7.930  0.00  0.00    +0.000 A 
ATOM      7  N   UNL     1      45.606   4.479   9.006  0.00  0.00    +0.000 NA
ATOM      8  H   UNL     1      43.468   3.246  11.041  0.00  0.00    +0.000 HD
ENDROOT
BRANCH   5   9
ATOM      9  C   UNL     1      47.187   2.319   6.373  0.00  0.00    +0.000 C 
ATOM     10  N   UNL     1      47.095   3.163   5.298  0.00  0.00    +0.000 N 
ATOM     11  O   UNL     1      47.871   1.309   6.343  0.00  0.00    +0.000 OA
ATOM     12  H   UNL     1      46.516   3.993   5.354  0.00  0.00    +0.000 HD
ATOM     13  H   UNL     1      47.596   2.949   4.451  0.00  0.00    +0.000 HD
ENDBRANCH   5   9
BRANCH   1  14
ATOM     14  C   UNL     1      43.760   5.281  10.932  0.00  0.00    +0.000 C 
ATOM     15  C   UNL     1      42.346   5.331  11.537  0.00  0.00    +0.000 C 
BRANCH  14  21
ATOM     16  C   UNL     1      45.981   9.669  12.042  0.00  0.00    +0.000 C 
ATOM     17  C   UNL     1      45.874   8.189  12.271  0.00  0.00    +0.000 A 
ATOM     18  C   UNL     1      46.802   7.523  13.077  0.00  0.00    +0.000 A 
ATOM     19  C   UNL     1      46.730   6.141  13.233  0.00  0.00    +0.000 A 
ATOM     20  C   UNL     1      45.742   5.410  12.572  0.00  0.00    +0.000 A 
ATOM     21  C   UNL     1      44.792   6.049  11.759  0.00  0.00    +0.000 A 
ATOM     22  C   UNL     1      44.864   7.451  11.635  0.00  0.00    +0.000 A 
ENDBRANCH  14  21
ENDBRANCH   1  14
TORSDOF 3
ENDMDL
MODEL 3
REMARK VINA RESULT:    -7.140      1.823      2.335
REMARK INTER + INTRA:          -8.728
REMARK INTER:                  -9.757
REMARK INTRA:                   1.030
REMARK UNBOUND:                -0.335
REMARK  Name = 
REMARK  5 active torsions:
REMARK  status: ('A' for Active; 'I' for Inactive)
REMARK    1  A    between atoms: C_1  and  C_2
REMARK    2  A    between atoms: C_6  and  C_7
REMARK    3  A    between atoms: C_7  and  C_8
REMARK    4  A    between atoms: C_7  and  N_9
REMARK    5  A    between atoms: C_13  and  C_14
REMARK                            x       y       z     vdW  Elec       q    Type
REMARK                         _______ _______ _______ _____ _____    ______ ____
ROOT
ATOM      1  N   UNL     1      44.624   2.880  11.678  0.00  0.00    +0.000 N 
ATOM      2  C   UNL     1      45.456   3.829  12.281  0.00  0.00    +0.000 A 
ATOM      3  C   UNL     1      46.479   3.417  13.148  0.00  0.00    +0.000 A 
ATOM      4  N   UNL     1      47.336   4.258  13.783  0.00  0.00    +0.000 NA
ATOM      5  C   UNL     1      47.101   5.577  13.543  0.00  0.00    +0.000 A 
ATOM      6  C   UNL     1      46.073   6.008  12.724  0.00  0.00    +0.000 A 
ATOM      7  N   UNL     1      45.237   5.147  12.085  0.00  0.00    +0.000 NA
ATOM      8  H   UNL     1      45.106   2.004  11.504  0.00  0.00    +0.000 HD
ENDROOT
BRANCH   5   9
ATOM      9  C   UNL     1      47.994   6.574  14.197  0.00  0.00    +0.000 C 
ATOM     10  N   UNL     1      47.476   7.835  14.335  0.00  0.00    +0.000 N 
ATOM     11  O   UNL     1      49.114   6.291  14.591  0.00  0.00    +0.000 OA
ATOM     12  H   UNL     1      46.543   8.039  13.995  0.00  0.00    +0.000 HD
ATOM     13  H   UNL     1      48.030   8.558  14.765  0.00  0.00    +0.000 HD
ENDBRANCH   5   9
BRANCH   1  14
ATOM     14  C   UNL     1      43.892   3.313  10.477  0.00  0.00    +0.000 C 
ATOM     15  C   UNL     1      43.382   4.753  10.662  0.00  0.00    +0.000 C 
BRANCH  14  21
ATOM     16  C   UNL     1      46.823   0.332   7.661  0.00  0.00    +0.000 C 
ATOM     17  C   UNL     1      46.294   1.705   7.955  0.00  0.00    +0.000 A 
ATOM     18  C   UNL     1      46.805   2.824   7.291  0.00  0.00    +0.000 A 
ATOM     19  C   UNL     1      46.351   4.099   7.615  0.00  0.00    +0.000 A 
ATOM     20  C   UNL     1      45.395   4.271   8.618  0.00  0.00    +0.000 A 
ATOM     21  C   UNL     1      44.858   3.168   9.301  0.00  0.00    +0.000 A 
ATOM     22  C   UNL     1      45.310   1.883   8.940  0.00  0.00    +0.000 A 
ENDBRANCH  14  21
ENDBRANCH   1  14
TORSDOF 3
ENDMDL
MODEL 4
REMARK VINA RESULT:    -7.017      2.870      3.140
REMARK INTER + INTRA:          -8.583
REMARK INTER:                  -8.163
REMARK INTRA:                  -0.420
REMARK UNBOUND:                -0.335
REMARK  Name = 
REMARK  5 active torsions:
REMARK  status: ('A' for Active; 'I' for Inactive)
REMARK    1  A    between atoms: C_1  and  C_2
REMARK    2  A    between atoms: C_6  and  C_7
REMARK    3  A    between atoms: C_7  and  C_8
REMARK    4  A    between atoms: C_7  and  N_9
REMARK    5  A    between atoms: C_13  and  C_14
REMARK                            x       y       z     vdW  Elec       q    Type
REMARK                         _______ _______ _______ _____ _____    ______ ____
ROOT
ATOM      1  N   UNL     1      45.644   4.918  11.241  0.00  0.00    +0.000 N 
ATOM      2  C   UNL     1      46.173   4.732  12.522  0.00  0.00    +0.000 A 
ATOM      3  C   UNL     1      46.638   5.833  13.257  0.00  0.00    +0.000 A 
ATOM      4  N   UNL     1      47.169   5.757  14.506  0.00  0.00    +0.000 NA
ATOM      5  C   UNL     1      47.260   4.490  14.996  0.00  0.00    +0.000 A 
ATOM      6  C   UNL     1      46.846   3.386  14.273  0.00  0.00    +0.000 A 
ATOM      7  N   UNL     1      46.302   3.487  13.031  0.00  0.00    +0.000 NA
ATOM      8  H   UNL     1      45.183   5.815  11.145  0.00  0.00    +0.000 HD
ENDROOT
BRANCH   5   9
ATOM      9  C   UNL     1      47.830   4.311  16.360  0.00  0.00    +0.000 C 
ATOM     10  N   UNL     1      47.199   4.998  17.363  0.00  0.00    +0.000 N 
ATOM     11  O   UNL     1      48.795   3.596  16.577  0.00  0.00    +0.000 OA
ATOM     12  H   UNL     1      46.401   5.586  17.150  0.00  0.00    +0.000 HD
ATOM     13  H   UNL     1      47.538   4.924  18.309  0.00  0.00    +0.000 HD
ENDBRANCH   5   9
BRANCH   1  14
ATOM     14  C   UNL     1      44.791   3.839  10.718  0.00  0.00    +0.000 C 
ATOM     15  C   UNL     1      43.333   4.321  10.617  0.00  0.00    +0.000 C 
BRANCH  14  21
ATOM     16  C   UNL     1      46.643   0.212   7.746  0.00  0.00    +0.000 C 
ATOM     17  C   UNL     1      46.298   1.659   7.943  0.00  0.00    +0.000 A 
ATOM     18  C   UNL     1      46.668   2.617   6.994  0.00  0.00    +0.000 A 
ATOM     19  C   UNL     1      46.397   3.964   7.216  0.00  0.00    +0.000 A 
ATOM     20  C   UNL     1      45.770   4.370   8.395  0.00  0.00    +0.000 A 
ATOM     21  C   UNL     1      45.381   3.433   9.367  0.00  0.00    +0.000 A 
ATOM     22  C   UNL     1      45.639   2.071   9.112  0.00  0.00    +0.000 A 
ENDBRANCH  14  21
ENDBRANCH   1  14
TORSDOF 3
ENDMDL
MODEL 5
REMARK VINA RESULT:    -6.956      3.489      6.530
REMARK INTER + INTRA:          -8.511
REMARK INTER:                  -9.372
REMARK INTRA:                   0.861
REMARK UNBOUND:                -0.335
REMARK  Name = 
REMARK  5 active torsions:
REMARK  status: ('A' for Active; 'I' for Inactive)
REMARK    1  A    between atoms: C_1  and  C_2
REMARK    2  A    between atoms: C_6  and  C_7
REMARK    3  A    between atoms: C_7  and  C_8
REMARK    4  A    between atoms: C_7  and  N_9
REMARK    5  A    between atoms: C_13  and  C_14
REMARK                            x       y       z     vdW  Elec       q    Type
REMARK                         _______ _______ _______ _____ _____    ______ ____
ROOT
ATOM      1  N   UNL     1      43.899   4.800   9.816  0.00  0.00    +0.000 N 
ATOM      2  C   UNL     1      44.759   3.951   9.113  0.00  0.00    +0.000 A 
ATOM      3  C   UNL     1      45.402   4.407   7.953  0.00  0.00    +0.000 A 
ATOM      4  N   UNL     1      46.252   3.661   7.199  0.00  0.00    +0.000 NA
ATOM      5  C   UNL     1      46.412   2.383   7.642  0.00  0.00    +0.000 A 
ATOM      6  C   UNL     1      45.757   1.900   8.760  0.00  0.00    +0.000 A 
ATOM      7  N   UNL     1      44.923   2.670   9.508  0.00  0.00    +0.000 NA
ATOM      8  H   UNL     1      44.181   5.772   9.748  0.00  0.00    +0.000 HD
ENDROOT
BRANCH   5   9
ATOM      9  C   UNL     1      47.329   1.491   6.877  0.00  0.00    +0.000 C 
ATOM     10  N   UNL     1      48.444   2.092   6.356  0.00  0.00    +0.000 N 
ATOM     11  O   UNL     1      47.107   0.301   6.725  0.00  0.00    +0.000 OA
ATOM     12  H   UNL     1      48.598   3.084   6.498  0.00  0.00    +0.000 HD
ATOM     13  H   UNL     1      49.102   1.546   5.824  0.00  0.00    +0.000 HD
ENDBRANCH   5   9
BRANCH   1  14
ATOM     14  C   UNL     1      43.617   4.441  11.215  0.00  0.00    +0.000 C 
ATOM     15  C   UNL     1      43.252   2.949  11.313  0.00  0.00    +0.000 C 
BRANCH  14  21
ATOM     16  C   UNL     1      47.330   7.721  12.146  0.00  0.00    +0.000 C 
ATOM     17  C   UNL     1      46.675   6.404  12.444  0.00  0.00    +0.000 A 
ATOM     18  C   UNL     1      47.289   5.479  13.293  0.00  0.00    +0.000 A 
ATOM     19  C   UNL     1      46.703   4.235  13.514  0.00  0.00    +0.000 A 
ATOM     20  C   UNL     1      45.509   3.897  12.875  0.00  0.00    +0.000 A 
ATOM     21  C   UNL     1      44.865   4.805  12.019  0.00  0.00    +0.000 A 
ATOM     22  C   UNL     1      45.459   6.069  11.829  0.00  0.00    +0.000 A 
ENDBRANCH  14  21
ENDBRANCH   1  14
TORSDOF 3
ENDMDL
MODEL 6
REMARK VINA RESULT:    -6.399      2.876      3.756
REMARK INTER + INTRA:          -7.856
REMARK INTER:                  -7.432
REMARK INTRA:                  -0.424
REMARK UNBOUND:                -0.335
REMARK  Name = 
REMARK  5 active torsions:
REMARK  status: ('A' for Active; 'I' for Inactive)
REMARK    1  A    between atoms: C_1  and  C_2
REMARK    2  A    between atoms: C_6  and  C_7
REMARK    3  A    between atoms: C_7  and  C_8
REMARK    4  A    between atoms: C_7  and  N_9
REMARK    5  A    between atoms: C_13  and  C_14
REMARK                            x       y       z     vdW  Elec       q    Type
REMARK                         _______ _______ _______ _____ _____    ______ ____
ROOT
ATOM      1  N   UNL     1      46.115   5.862  11.896  0.00  0.00    +0.000 N 
ATOM      2  C   UNL     1      46.680   5.614  13.151  0.00  0.00    +0.000 A 
ATOM      3  C   UNL     1      47.750   6.398  13.607  0.00  0.00    +0.000 A 
ATOM      4  N   UNL     1      48.368   6.236  14.807  0.00  0.00    +0.000 NA
ATOM      5  C   UNL     1      47.884   5.199  15.546  0.00  0.00    +0.000 A 
ATOM      6  C   UNL     1      46.857   4.388  15.099  0.00  0.00    +0.000 A 
ATOM      7  N   UNL     1      46.243   4.579  13.901  0.00  0.00    +0.000 NA
ATOM      8  H   UNL     1      46.162   6.842  11.642  0.00  0.00    +0.000 HD
ENDROOT
BRANCH   5   9
ATOM      9  C   UNL     1      48.501   4.947  16.878  0.00  0.00    +0.000 C 
ATOM     10  N   UNL     1      47.744   5.308  17.961  0.00  0.00    +0.000 N 
ATOM     11  O   UNL     1      49.608   4.448  17.003  0.00  0.00    +0.000 OA
ATOM     12  H   UNL     1      46.829   5.723  17.824  0.00  0.00    +0.000 HD
ATOM     13  H   UNL     1      48.104   5.169  18.891  0.00  0.00    +0.000 HD
ENDBRANCH   5   9
BRANCH   1  14
ATOM     14  C   UNL     1      44.761   5.333  11.666  0.00  0.00    +0.000 C 
ATOM     15  C   UNL     1      43.807   6.475  11.276  0.00  0.00    +0.000 C 
BRANCH  14  21
ATOM     16  C   UNL     1      46.406   4.030   7.082  0.00  0.00    +0.000 C 
ATOM     17  C   UNL     1      45.680   3.654   8.341  0.00  0.00    +0.000 A 
ATOM     18  C   UNL     1      44.998   2.437   8.435  0.00  0.00    +0.000 A 
ATOM     19  C   UNL     1      44.277   2.125   9.585  0.00  0.00    +0.000 A 
ATOM     20  C   UNL     1      44.213   3.033  10.643  0.00  0.00    +0.000 A 
ATOM     21  C   UNL     1      44.890   4.263  10.581  0.00  0.00    +0.000 A 
ATOM     22  C   UNL     1      45.637   4.549   9.421  0.00  0.00    +0.000 A 
ENDBRANCH  14  21
ENDBRANCH   1  14
TORSDOF 3
ENDMDL
MODEL 7
REMARK VINA RESULT:    -5.974      3.340      6.831
REMARK INTER + INTRA:          -7.357
REMARK INTER:                  -6.902
REMARK INTRA:                  -0.456
REMARK UNBOUND:                -0.335
REMARK  Name = 
REMARK  5 active torsions:
REMARK  status: ('A' for Active; 'I' for Inactive)
REMARK    1  A    between atoms: C_1  and  C_2
REMARK    2  A    between atoms: C_6  and  C_7
REMARK    3  A    between atoms: C_7  and  C_8
REMARK    4  A    between atoms: C_7  and  N_9
REMARK    5  A    between atoms: C_13  and  C_14
REMARK                            x       y       z     vdW  Elec       q    Type
REMARK                         _______ _______ _______ _____ _____    ______ ____
ROOT
ATOM      1  N   UNL     1      46.609   7.055  13.092  0.00  0.00    +0.000 N 
ATOM      2  C   UNL     1      45.922   5.965  12.549  0.00  0.00    +0.000 A 
ATOM      3  C   UNL     1      45.465   4.935  13.384  0.00  0.00    +0.000 A 
ATOM      4  N   UNL     1      44.791   3.835  12.954  0.00  0.00    +0.000 NA
ATOM      5  C   UNL     1      44.619   3.781  11.605  0.00  0.00    +0.000 A 
ATOM      6  C   UNL     1      45.096   4.765  10.758  0.00  0.00    +0.000 A 
ATOM      7  N   UNL     1      45.754   5.865  11.212  0.00  0.00    +0.000 NA
ATOM      8  H   UNL     1      46.297   7.273  14.032  0.00  0.00    +0.000 HD
ENDROOT
BRANCH   5   9
ATOM      9  C   UNL     1      43.889   2.610  11.042  0.00  0.00    +0.000 C 
ATOM     10  N   UNL     1      44.393   2.101   9.875  0.00  0.00    +0.000 N 
ATOM     11  O   UNL     1      42.907   2.129  11.584  0.00  0.00    +0.000 OA
ATOM     12  H   UNL     1      45.209   2.525   9.448  0.00  0.00    +0.000 HD
ATOM     13  H   UNL     1      43.944   1.312   9.439  0.00  0.00    +0.000 HD
ENDBRANCH   5   9
BRANCH   1  14
ATOM     14  C   UNL     1      46.665   8.274  12.271  0.00  0.00    +0.000 C 
ATOM     15  C   UNL     1      45.691   9.329  12.824  0.00  0.00    +0.000 C 
BRANCH  14  21
ATOM     16  C   UNL     1      51.422   7.572  10.754  0.00  0.00    +0.000 C 
ATOM     17  C   UNL     1      50.433   8.371  11.551  0.00  0.00    +0.000 A 
ATOM     18  C   UNL     1      50.863   9.390  12.407  0.00  0.00    +0.000 A 
ATOM     19  C   UNL     1      49.942  10.084  13.188  0.00  0.00    +0.000 A 
ATOM     20  C   UNL     1      48.587   9.756  13.135  0.00  0.00    +0.000 A 
ATOM     21  C   UNL     1      48.122   8.741  12.283  0.00  0.00    +0.000 A 
ATOM     22  C   UNL     1      49.064   8.068  11.480  0.00  0.00    +0.000 A 
ENDBRANCH  14  21
ENDBRANCH   1  14
TORSDOF 3
ENDMDL
MODEL 8
REMARK VINA RESULT:    -5.968      4.802      6.025
REMARK INTER + INTRA:          -7.349
REMARK INTER:                  -7.011
REMARK INTRA:                  -0.339
REMARK UNBOUND:                -0.335
REMARK  Name = 
REMARK  5 active torsions:
REMARK  status: ('A' for Active; 'I' for Inactive)
REMARK    1  A    between atoms: C_1  and  C_2
REMARK    2  A    between atoms: C_6  and  C_7
REMARK    3  A    between atoms: C_7  and  C_8
REMARK    4  A    between atoms: C_7  and  N_9
REMARK    5  A    between atoms: C_13  and  C_14
REMARK                            x       y       z     vdW  Elec       q    Type
REMARK                         _______ _______ _______ _____ _____    ______ ____
ROOT
ATOM      1  N   UNL     1      46.748   3.826  14.462  0.00  0.00    +0.000 N 
ATOM      2  C   UNL     1      47.373   3.957  15.707  0.00  0.00    +0.000 A 
ATOM      3  C   UNL     1      48.182   2.923  16.199  0.00  0.00    +0.000 A 
ATOM      4  N   UNL     1      48.830   2.952  17.394  0.00  0.00    +0.000 NA
ATOM      5  C   UNL     1      48.600   4.079  18.123  0.00  0.00    +0.000 A 
ATOM      6  C   UNL     1      47.773   5.094  17.675  0.00  0.00    +0.000 A 
ATOM      7  N   UNL     1      47.148   5.049  16.469  0.00  0.00    +0.000 NA
ATOM      8  H   UNL     1      47.295   3.267  13.817  0.00  0.00    +0.000 HD
ENDROOT
BRANCH   5   9
ATOM      9  C   UNL     1      49.270   4.200  19.448  0.00  0.00    +0.000 C 
ATOM     10  N   UNL     1      48.511   3.845  20.532  0.00  0.00    +0.000 N 
ATOM     11  O   UNL     1      50.422   4.585  19.566  0.00  0.00    +0.000 OA
ATOM     12  H   UNL     1      47.556   3.531  20.401  0.00  0.00    +0.000 HD
ATOM     13  H   UNL     1      48.903   3.908  21.458  0.00  0.00    +0.000 HD
ENDBRANCH   5   9
BRANCH   1  14
ATOM     14  C   UNL     1      46.298   5.069  13.817  0.00  0.00    +0.000 C 
ATOM     15  C   UNL     1      47.463   5.714  13.045  0.00  0.00    +0.000 C 
BRANCH  14  21
ATOM     16  C   UNL     1      44.581   2.517   9.822  0.00  0.00    +0.000 C 
ATOM     17  C   UNL     1      44.308   3.459  10.959  0.00  0.00    +0.000 A 
ATOM     18  C   UNL     1      43.070   4.098  11.075  0.00  0.00    +0.000 A 
ATOM     19  C   UNL     1      42.849   5.017  12.097  0.00  0.00    +0.000 A 
ATOM     20  C   UNL     1      43.867   5.319  13.003  0.00  0.00    +0.000 A 
ATOM     21  C   UNL     1      45.121   4.692  12.917  0.00  0.00    +0.000 A 
ATOM     22  C   UNL     1      45.317   3.745  11.892  0.00  0.00    +0.000 A 
ENDBRANCH  14  21
ENDBRANCH   1  14
TORSDOF 3
ENDMDL
MODEL 9
REMARK VINA RESULT:    -5.696      3.622      6.810
REMARK INTER + INTRA:          -7.030
REMARK INTER:                  -6.569
REMARK INTRA:                  -0.460
REMARK UNBOUND:                -0.335
REMARK  Name = 
REMARK  5 active torsions:
REMARK  status: ('A' for Active; 'I' for Inactive)
REMARK    1  A    between atoms: C_1  and  C_2
REMARK    2  A    between atoms: C_6  and  C_7
REMARK    3  A    between atoms: C_7  and  C_8
REMARK    4  A    between atoms: C_7  and  N_9
REMARK    5  A    between atoms: C_13  and  C_14
REMARK                            x       y       z     vdW  Elec       q    Type
REMARK                         _______ _______ _______ _____ _____    ______ ____
ROOT
ATOM      1  N   UNL     1      48.087   6.691  13.195  0.00  0.00    +0.000 N 
ATOM      2  C   UNL     1      46.997   5.891  12.838  0.00  0.00    +0.000 A 
ATOM      3  C   UNL     1      46.821   4.634  13.435  0.00  0.00    +0.000 A 
ATOM      4  N   UNL     1      45.799   3.784  13.154  0.00  0.00    +0.000 NA
ATOM      5  C   UNL     1      44.948   4.235  12.192  0.00  0.00    +0.000 A 
ATOM      6  C   UNL     1      45.124   5.454  11.561  0.00  0.00    +0.000 A 
ATOM      7  N   UNL     1      46.146   6.295  11.869  0.00  0.00    +0.000 NA
ATOM      8  H   UNL     1      48.363   6.552  14.161  0.00  0.00    +0.000 HD
ENDROOT
BRANCH   5   9
ATOM      9  C   UNL     1      43.795   3.369  11.820  0.00  0.00    +0.000 C 
ATOM     10  N   UNL     1      43.739   2.152  12.448  0.00  0.00    +0.000 N 
ATOM     11  O   UNL     1      42.949   3.716  11.012  0.00  0.00    +0.000 OA
ATOM     12  H   UNL     1      44.459   1.892  13.113  0.00  0.00    +0.000 HD
ATOM     13  H   UNL     1      42.987   1.516  12.238  0.00  0.00    +0.000 HD
ENDBRANCH   5   9
BRANCH   1  14
ATOM     14  C   UNL     1      47.981   8.126  12.890  0.00  0.00    +0.000 C 
ATOM     15  C   UNL     1      47.545   8.902  14.145  0.00  0.00    +0.000 C 
BRANCH  14  21
ATOM     16  C   UNL     1      52.035   7.096  10.077  0.00  0.00    +0.000 C 
ATOM     17  C   UNL     1      51.320   8.035  11.004  0.00  0.00    +0.000 A 
ATOM     18  C   UNL     1      51.962   9.174  11.499  0.00  0.00    +0.000 A 
ATOM     19  C   UNL     1      51.311  10.005  12.407  0.00  0.00    +0.000 A 
ATOM     20  C   UNL     1      50.021   9.697  12.843  0.00  0.00    +0.000 A 
ATOM     21  C   UNL     1      49.348   8.562  12.361  0.00  0.00    +0.000 A 
ATOM     22  C   UNL     1      50.012   7.748  11.423  0.00  0.00    +0.000 A 
ENDBRANCH  14  21
ENDBRANCH   1  14
TORSDOF 3
ENDMDL
