MODEL 1
REMARK VINA RESULT:    -7.379      0.000      0.000
REMARK INTER + INTRA:         -12.423
REMARK INTER:                 -11.261
REMARK INTRA:                  -1.162
REMARK UNBOUND:                -1.162
REMARK  Name = 
REMARK  11 active torsions:
REMARK  status: ('A' for Active; 'I' for Inactive)
REMARK    1  A    between atoms: C_1  and  O_2
REMARK    2  A    between atoms: O_2  and  C_3
REMARK    3  A    between atoms: C_3  and  C_4
REMARK    4  A    between atoms: C_4  and  N_5
REMARK    5  A    between atoms: C_4  and  C_28
REMARK    6  A    between atoms: N_5  and  C_6
REMARK    7  A    between atoms: C_6  and  C_7
REMARK    8  A    between atoms: C_10  and  C_11
REMARK    9  A    between atoms: C_11  and  N_12
REMARK   10  A    between atoms: C_13  and  C_15
REMARK   11  A    between atoms: N_21  and  C_22
REMARK                            x       y       z     vdW  Elec       q    Type
REMARK                         _______ _______ _______ _____ _____    ______ ____
ROOT
ATOM      1  C   UNL     1      45.212   6.537  11.504  0.00  0.00    +0.000 A 
ATOM      2  C   UNL     1      46.411   6.018  11.990  0.00  0.00    +0.000 A 
ATOM      3  C   UNL     1      47.233   6.815  12.775  0.00  0.00    +0.000 A 
ATOM      4  C   UNL     1      46.838   8.120  13.050  0.00  0.00    +0.000 A 
ATOM      5  N   UNL     1      45.690   8.658  12.567  0.00  0.00    +0.000 NA
ATOM      6  C   UNL     1      44.903   7.855  11.815  0.00  0.00    +0.000 A 
ENDROOT
BRANCH   1   7
ATOM      7  C   UNL     1      44.307   5.724  10.624  0.00  0.00    +0.000 C 
BRANCH   7   8
ATOM      8  N   UNL     1      45.020   5.185   9.459  0.00  0.00    +0.000 NA
ATOM      9  H   UNL     1      44.655   5.652   8.626  0.00  0.00    +0.000 HD
BRANCH   8  10
ATOM     10  C   UNL     1      44.763   3.736   9.260  0.00  0.00    +0.000 C 
BRANCH  10  11
ATOM     11  C   UNL     1      45.697   3.109   8.236  0.00  0.00    +0.000 A 
ATOM     12  C   UNL     1      46.055   1.766   8.324  0.00  0.00    +0.000 A 
ATOM     13  N   UNL     1      46.806   1.150   7.378  0.00  0.00    +0.000 NA
ATOM     14  C   UNL     1      47.158   1.918   6.322  0.00  0.00    +0.000 A 
ATOM     15  C   UNL     1      46.795   3.244   6.217  0.00  0.00    +0.000 A 
ATOM     16  N   UNL     1      46.071   3.867   7.169  0.00  0.00    +0.000 NA
ENDBRANCH  10  11
BRANCH  10  17
ATOM     17  C   UNL     1      44.799   2.914  10.571  0.00  0.00    +0.000 C 
BRANCH  17  19
ATOM     18  C   UNL     1      43.384   2.865  12.439  0.00  0.00    +0.000 C 
ATOM     19  O   UNL     1      43.471   2.635  11.034  0.00  0.00    +0.000 OA
ENDBRANCH  17  19
ENDBRANCH  10  17
ENDBRANCH   8  10
ENDBRANCH   7   8
ENDBRANCH   1   7
BRANCH   4  20
ATOM     20  C   UNL     1      47.734   9.008  13.868  0.00  0.00    +0.000 C 
BRANCH  20  21
ATOM     21  N   UNL     1      47.785   8.582  15.239  0.00  0.00    +0.000 N 
ATOM     22  C   UNL     1      48.929   8.590  15.996  0.00  0.00    +0.000 C 
ATOM     23  O   UNL     1      49.975   9.114  15.624  0.00  0.00    +0.000 OA
ATOM     24  H   UNL     1      46.951   8.139  15.587  0.00  0.00    +0.000 HD
BRANCH  22  25
ATOM     25  C   UNL     1      48.791   7.965  17.312  0.00  0.00    +0.000 A 
ATOM     26  C   UNL     1      48.859   8.719  18.473  0.00  0.00    +0.000 A 
ATOM     27  S   UNL     1      48.632   7.789  19.890  0.00  0.00    +0.000 S 
ATOM     28  C   UNL     1      48.485   6.348  18.994  0.00  0.00    +0.000 A 
ATOM     29  N   UNL     1      48.280   5.153  19.608  0.00  0.00    +0.000 NA
ATOM     30  C   UNL     1      48.213   4.142  18.804  0.00  0.00    +0.000 A 
ATOM     31  N   UNL     1      48.341   4.200  17.430  0.00  0.00    +0.000 N 
ATOM     32  C   UNL     1      48.246   3.003  16.618  0.00  0.00    +0.000 C 
ATOM     33  C   UNL     1      48.553   5.405  16.772  0.00  0.00    +0.000 A 
ATOM     34  O   UNL     1      48.656   5.473  15.551  0.00  0.00    +0.000 OA
ATOM     35  C   UNL     1      48.610   6.569  17.638  0.00  0.00    +0.000 A 
ENDBRANCH  22  25
ENDBRANCH  20  21
ENDBRANCH   4  20
TORSDOF 9
ENDMDL
MODEL 2
REMARK VINA RESULT:    -7.290      1.533      2.567
REMARK INTER + INTRA:         -12.287
REMARK INTER:                 -11.226
REMARK INTRA:                  -1.062
REMARK UNBOUND:                -1.162
REMARK  Name = 
REMARK  11 active torsions:
REMARK  status: ('A' for Active; 'I' for Inactive)
REMARK    1  A    between atoms: C_1  and  O_2
REMARK    2  A    between atoms: O_2  and  C_3
REMARK    3  A    between atoms: C_3  and  C_4
REMARK    4  A    between atoms: C_4  and  N_5
REMARK    5  A    between atoms: C_4  and  C_28
REMARK    6  A    between atoms: N_5  and  C_6
REMARK    7  A    between atoms: C_6  and  C_7
REMARK    8  A    between atoms: C_10  and  C_11
REMARK    9  A    between atoms: C_11  and  N_12
REMARK   10  A    between atoms: C_13  and  C_15
REMARK   11  A    between atoms: N_21  and  C_22
REMARK                            x       y       z     vdW  Elec       q    Type
REMARK                         _______ _______ _______ _____ _____    ______ ____
ROOT
ATOM      1  C   UNL     1      45.386   6.484  11.401  0.00  0.00    +0.000 A 
ATOM      2  C   UNL     1      45.040   7.723  11.938  0.00  0.00    +0.000 A 
ATOM      3  C   UNL     1      45.891   8.337  12.847  0.00  0.00    +0.000 A 
ATOM      4  C   UNL     1      47.071   7.691  13.204  0.00  0.00    +0.000 A 
ATOM      5  N   UNL     1      47.418   6.472  12.717  0.00  0.00    +0.000 NA
ATOM      6  C   UNL     1      46.576   5.904  11.825  0.00  0.00    +0.000 A 
ENDROOT
BRANCH   1   7
ATOM      7  C   UNL     1      44.482   5.766  10.442  0.00  0.00    +0.000 C 
BRANCH   7   8
ATOM      8  N   UNL     1      45.239   5.099   9.375  0.00  0.00    +0.000 NA
ATOM      9  H   UNL     1      45.007   5.560   8.493  0.00  0.00    +0.000 HD
BRANCH   8  10
ATOM     10  C   UNL     1      44.846   3.676   9.208  0.00  0.00    +0.000 C 
BRANCH  10  11
ATOM     11  C   UNL     1      45.724   2.938   8.208  0.00  0.00    +0.000 A 
ATOM     12  C   UNL     1      46.358   3.621   7.175  0.00  0.00    +0.000 A 
ATOM     13  N   UNL     1      47.223   3.014   6.324  0.00  0.00    +0.000 NA
ATOM     14  C   UNL     1      47.455   1.704   6.567  0.00  0.00    +0.000 A 
ATOM     15  C   UNL     1      46.845   1.022   7.599  0.00  0.00    +0.000 A 
ATOM     16  N   UNL     1      45.964   1.617   8.429  0.00  0.00    +0.000 NA
ENDBRANCH  10  11
BRANCH  10  17
ATOM     17  C   UNL     1      44.791   2.888  10.537  0.00  0.00    +0.000 C 
BRANCH  17  19
ATOM     18  C   UNL     1      43.381   2.924  12.410  0.00  0.00    +0.000 C 
ATOM     19  O   UNL     1      43.439   2.753  10.995  0.00  0.00    +0.000 OA
ENDBRANCH  17  19
ENDBRANCH  10  17
ENDBRANCH   8  10
ENDBRANCH   7   8
ENDBRANCH   1   7
BRANCH   4  20
ATOM     20  C   UNL     1      47.986   8.325  14.215  0.00  0.00    +0.000 C 
BRANCH  20  21
ATOM     21  N   UNL     1      47.997   7.586  15.447  0.00  0.00    +0.000 N 
ATOM     22  C   UNL     1      49.010   6.737  15.815  0.00  0.00    +0.000 C 
ATOM     23  O   UNL     1      50.072   6.656  15.205  0.00  0.00    +0.000 OA
ATOM     24  H   UNL     1      47.143   7.617  15.979  0.00  0.00    +0.000 HD
BRANCH  22  25
ATOM     25  C   UNL     1      48.743   5.966  17.031  0.00  0.00    +0.000 A 
ATOM     26  C   UNL     1      48.845   4.584  17.038  0.00  0.00    +0.000 A 
ATOM     27  S   UNL     1      48.530   3.897  18.572  0.00  0.00    +0.000 S 
ATOM     28  C   UNL     1      48.203   5.423  19.256  0.00  0.00    +0.000 A 
ATOM     29  N   UNL     1      47.855   5.550  20.563  0.00  0.00    +0.000 NA
ATOM     30  C   UNL     1      47.612   6.764  20.936  0.00  0.00    +0.000 A 
ATOM     31  N   UNL     1      47.673   7.880  20.126  0.00  0.00    +0.000 N 
ATOM     32  C   UNL     1      47.383   9.202  20.648  0.00  0.00    +0.000 C 
ATOM     33  C   UNL     1      48.023   7.784  18.785  0.00  0.00    +0.000 A 
ATOM     34  O   UNL     1      48.093   8.769  18.056  0.00  0.00    +0.000 OA
ATOM     35  C   UNL     1      48.328   6.439  18.331  0.00  0.00    +0.000 A 
ENDBRANCH  22  25
ENDBRANCH  20  21
ENDBRANCH   4  20
TORSDOF 9
ENDMDL
MODEL 3
REMARK VINA RESULT:    -7.237      2.843      8.901
REMARK INTER + INTRA:         -12.206
REMARK INTER:                 -10.638
REMARK INTRA:                  -1.568
REMARK UNBOUND:                -1.162
REMARK  Name = 
REMARK  11 active torsions:
REMARK  status: ('A' for Active; 'I' for Inactive)
REMARK    1  A    between atoms: C_1  and  O_2
REMARK    2  A    between atoms: O_2  and  C_3
REMARK    3  A    between atoms: C_3  and  C_4
REMARK    4  A    between atoms: C_4  and  N_5
REMARK    5  A    between atoms: C_4  and  C_28
REMARK    6  A    between atoms: N_5  and  C_6
REMARK    7  A    between atoms: C_6  and  C_7
REMARK    8  A    between atoms: C_10  and  C_11
REMARK    9  A    between atoms: C_11  and  N_12
REMARK   10  A    between atoms: C_13  and  C_15
REMARK   11  A    between atoms: N_21  and  C_22
REMARK                            x       y       z     vdW  Elec       q    Type
REMARK                         _______ _______ _______ _____ _____    ______ ____
ROOT
ATOM      1  C   UNL     1      48.839   7.883  16.092  0.00  0.00    +0.000 A 
ATOM      2  C   UNL     1      48.318   9.034  15.504  0.00  0.00    +0.000 A 
ATOM      3  C   UNL     1      47.904   8.999  14.179  0.00  0.00    +0.000 A 
ATOM      4  C   UNL     1      48.029   7.810  13.468  0.00  0.00    +0.000 A 
ATOM      5  N   UNL     1      48.558   6.682  14.008  0.00  0.00    +0.000 NA
ATOM      6  C   UNL     1      48.942   6.742  15.304  0.00  0.00    +0.000 A 
ENDROOT
BRANCH   1   7
ATOM      7  C   UNL     1      49.330   7.881  17.510  0.00  0.00    +0.000 C 
BRANCH   7   8
ATOM      8  N   UNL     1      48.308   7.384  18.440  0.00  0.00    +0.000 NA
ATOM      9  H   UNL     1      48.166   8.098  19.158  0.00  0.00    +0.000 HD
BRANCH   8  10
ATOM     10  C   UNL     1      48.746   6.162  19.161  0.00  0.00    +0.000 C 
BRANCH  10  11
ATOM     11  C   UNL     1      48.426   4.884  18.401  0.00  0.00    +0.000 A 
ATOM     12  C   UNL     1      47.153   4.661  17.884  0.00  0.00    +0.000 A 
ATOM     13  N   UNL     1      46.856   3.580  17.120  0.00  0.00    +0.000 NA
ATOM     14  C   UNL     1      47.890   2.748  16.864  0.00  0.00    +0.000 A 
ATOM     15  C   UNL     1      49.159   2.968  17.357  0.00  0.00    +0.000 A 
ATOM     16  N   UNL     1      49.450   4.027  18.139  0.00  0.00    +0.000 NA
ENDBRANCH  10  11
BRANCH  10  17
ATOM     17  C   UNL     1      50.243   6.176  19.552  0.00  0.00    +0.000 C 
BRANCH  17  19
ATOM     18  C   UNL     1      51.816   7.275  20.899  0.00  0.00    +0.000 C 
ATOM     19  O   UNL     1      50.446   6.902  20.771  0.00  0.00    +0.000 OA
ENDBRANCH  17  19
ENDBRANCH  10  17
ENDBRANCH   8  10
ENDBRANCH   7   8
ENDBRANCH   1   7
BRANCH   4  20
ATOM     20  C   UNL     1      47.621   7.764  12.022  0.00  0.00    +0.000 C 
BRANCH  20  21
ATOM     21  N   UNL     1      46.845   6.590  11.733  0.00  0.00    +0.000 N 
ATOM     22  C   UNL     1      45.481   6.598  11.582  0.00  0.00    +0.000 C 
ATOM     23  O   UNL     1      44.820   7.630  11.516  0.00  0.00    +0.000 OA
ATOM     24  H   UNL     1      47.344   5.717  11.782  0.00  0.00    +0.000 HD
BRANCH  22  25
ATOM     25  C   UNL     1      44.877   5.271  11.452  0.00  0.00    +0.000 A 
ATOM     26  C   UNL     1      44.156   4.709  12.493  0.00  0.00    +0.000 A 
ATOM     27  S   UNL     1      43.508   3.174  12.108  0.00  0.00    +0.000 S 
ATOM     28  C   UNL     1      44.213   3.198  10.557  0.00  0.00    +0.000 A 
ATOM     29  N   UNL     1      44.053   2.162   9.693  0.00  0.00    +0.000 NA
ATOM     30  C   UNL     1      44.665   2.308   8.563  0.00  0.00    +0.000 A 
ATOM     31  N   UNL     1      45.439   3.393   8.204  0.00  0.00    +0.000 N 
ATOM     32  C   UNL     1      46.082   3.460   6.906  0.00  0.00    +0.000 C 
ATOM     33  C   UNL     1      45.624   4.468   9.065  0.00  0.00    +0.000 A 
ATOM     34  O   UNL     1      46.300   5.445   8.755  0.00  0.00    +0.000 OA
ATOM     35  C   UNL     1      44.933   4.355  10.337  0.00  0.00    +0.000 A 
ENDBRANCH  22  25
ENDBRANCH  20  21
ENDBRANCH   4  20
TORSDOF 9
ENDMDL
MODEL 4
REMARK VINA RESULT:    -6.773      2.826      3.079
REMARK INTER + INTRA:         -11.499
REMARK INTER:                 -10.382
REMARK INTRA:                  -1.117
REMARK UNBOUND:                -1.162
REMARK  Name = 
REMARK  11 active torsions:
REMARK  status: ('A' for Active; 'I' for Inactive)
REMARK    1  A    between atoms: C_1  and  O_2
REMARK    2  A    between atoms: O_2  and  C_3
REMARK    3  A    between atoms: C_3  and  C_4
REMARK    4  A    between atoms: C_4  and  N_5
REMARK    5  A    between atoms: C_4  and  C_28
REMARK    6  A    between atoms: N_5  and  C_6
REMARK    7  A    between atoms: C_6  and  C_7
REMARK    8  A    between atoms: C_10  and  C_11
REMARK    9  A    between atoms: C_11  and  N_12
REMARK   10  A    between atoms: C_13  and  C_15
REMARK   11  A    between atoms: N_21  and  C_22
REMARK                            x       y       z     vdW  Elec       q    Type
REMARK                         _______ _______ _______ _____ _____    ______ ____
ROOT
ATOM      1  C   UNL     1      47.059   6.646  12.308  0.00  0.00    +0.000 A 
ATOM      2  C   UNL     1      47.494   7.833  11.720  0.00  0.00    +0.000 A 
ATOM      3  C   UNL     1      48.703   8.390  12.113  0.00  0.00    +0.000 A 
ATOM      4  C   UNL     1      49.449   7.747  13.095  0.00  0.00    +0.000 A 
ATOM      5  N   UNL     1      49.037   6.606  13.704  0.00  0.00    +0.000 NA
ATOM      6  C   UNL     1      47.861   6.080  13.292  0.00  0.00    +0.000 A 
ENDROOT
BRANCH   1   7
ATOM      7  C   UNL     1      45.743   6.026  11.939  0.00  0.00    +0.000 C 
BRANCH   7   8
ATOM      8  N   UNL     1      45.548   5.988  10.485  0.00  0.00    +0.000 NA
ATOM      9  H   UNL     1      45.021   6.823  10.220  0.00  0.00    +0.000 HD
BRANCH   8  10
ATOM     10  C   UNL     1      44.721   4.831  10.055  0.00  0.00    +0.000 C 
BRANCH  10  11
ATOM     11  C   UNL     1      45.454   3.912   9.089  0.00  0.00    +0.000 A 
ATOM     12  C   UNL     1      45.399   2.530   9.239  0.00  0.00    +0.000 A 
ATOM     13  N   UNL     1      45.959   1.677   8.344  0.00  0.00    +0.000 NA
ATOM     14  C   UNL     1      46.546   2.261   7.275  0.00  0.00    +0.000 A 
ATOM     15  C   UNL     1      46.592   3.629   7.108  0.00  0.00    +0.000 A 
ATOM     16  N   UNL     1      46.059   4.479   8.010  0.00  0.00    +0.000 NA
ENDBRANCH  10  11
BRANCH  10  17
ATOM     17  C   UNL     1      44.153   4.004  11.233  0.00  0.00    +0.000 C 
BRANCH  17  19
ATOM     18  C   UNL     1      42.320   5.376  11.737  0.00  0.00    +0.000 C 
ATOM     19  O   UNL     1      42.722   4.089  11.273  0.00  0.00    +0.000 OA
ENDBRANCH  17  19
ENDBRANCH  10  17
ENDBRANCH   8  10
ENDBRANCH   7   8
ENDBRANCH   1   7
BRANCH   4  20
ATOM     20  C   UNL     1      50.744   8.355  13.560  0.00  0.00    +0.000 C 
BRANCH  20  21
ATOM     21  N   UNL     1      51.419   7.499  14.494  0.00  0.00    +0.000 N 
ATOM     22  C   UNL     1      51.802   7.896  15.751  0.00  0.00    +0.000 C 
ATOM     23  O   UNL     1      51.458   8.964  16.250  0.00  0.00    +0.000 OA
ATOM     24  H   UNL     1      51.728   6.613  14.128  0.00  0.00    +0.000 HD
BRANCH  22  25
ATOM     25  C   UNL     1      52.617   6.919  16.475  0.00  0.00    +0.000 A 
ATOM     26  C   UNL     1      53.976   7.119  16.662  0.00  0.00    +0.000 A 
ATOM     27  S   UNL     1      54.718   5.873  17.568  0.00  0.00    +0.000 S 
ATOM     28  C   UNL     1      53.254   5.009  17.693  0.00  0.00    +0.000 A 
ATOM     29  N   UNL     1      53.190   3.823  18.352  0.00  0.00    +0.000 NA
ATOM     30  C   UNL     1      52.020   3.270  18.345  0.00  0.00    +0.000 A 
ATOM     31  N   UNL     1      50.895   3.781  17.731  0.00  0.00    +0.000 N 
ATOM     32  C   UNL     1      49.627   3.080  17.786  0.00  0.00    +0.000 C 
ATOM     33  C   UNL     1      50.927   4.991  17.048  0.00  0.00    +0.000 A 
ATOM     34  O   UNL     1      49.932   5.464  16.508  0.00  0.00    +0.000 OA
ATOM     35  C   UNL     1      52.218   5.657  17.053  0.00  0.00    +0.000 A 
ENDBRANCH  22  25
ENDBRANCH  20  21
ENDBRANCH   4  20
TORSDOF 9
ENDMDL
MODEL 5
REMARK VINA RESULT:    -6.663      3.926      6.008
REMARK INTER + INTRA:         -11.331
REMARK INTER:                 -10.122
REMARK INTRA:                  -1.208
REMARK UNBOUND:                -1.162
REMARK  Name = 
REMARK  11 active torsions:
REMARK  status: ('A' for Active; 'I' for Inactive)
REMARK    1  A    between atoms: C_1  and  O_2
REMARK    2  A    between atoms: O_2  and  C_3
REMARK    3  A    between atoms: C_3  and  C_4
REMARK    4  A    between atoms: C_4  and  N_5
REMARK    5  A    between atoms: C_4  and  C_28
REMARK    6  A    between atoms: N_5  and  C_6
REMARK    7  A    between atoms: C_6  and  C_7
REMARK    8  A    between atoms: C_10  and  C_11
REMARK    9  A    between atoms: C_11  and  N_12
REMARK   10  A    between atoms: C_13  and  C_15
REMARK   11  A    between atoms: N_21  and  C_22
REMARK                            x       y       z     vdW  Elec       q    Type
REMARK                         _______ _______ _______ _____ _____    ______ ____
ROOT
ATOM      1  C   UNL     1      47.681   5.957  14.549  0.00  0.00    +0.000 A 
ATOM      2  C   UNL     1      46.959   4.770  14.665  0.00  0.00    +0.000 A 
ATOM      3  C   UNL     1      47.182   3.937  15.754  0.00  0.00    +0.000 A 
ATOM      4  C   UNL     1      48.131   4.311  16.701  0.00  0.00    +0.000 A 
ATOM      5  N   UNL     1      48.866   5.447  16.597  0.00  0.00    +0.000 NA
ATOM      6  C   UNL     1      48.620   6.244  15.532  0.00  0.00    +0.000 A 
ENDROOT
BRANCH   1   7
ATOM      7  C   UNL     1      47.499   6.871  13.372  0.00  0.00    +0.000 C 
BRANCH   7   8
ATOM      8  N   UNL     1      47.182   6.126  12.148  0.00  0.00    +0.000 NA
ATOM      9  H   UNL     1      47.844   6.418  11.425  0.00  0.00    +0.000 HD
BRANCH   8  10
ATOM     10  C   UNL     1      45.832   6.453  11.620  0.00  0.00    +0.000 C 
BRANCH  10  11
ATOM     11  C   UNL     1      44.896   5.254  11.619  0.00  0.00    +0.000 A 
ATOM     12  C   UNL     1      44.907   4.341  10.568  0.00  0.00    +0.000 A 
ATOM     13  N   UNL     1      44.156   3.211  10.577  0.00  0.00    +0.000 NA
ATOM     14  C   UNL     1      43.419   3.012  11.693  0.00  0.00    +0.000 A 
ATOM     15  C   UNL     1      43.413   3.902  12.747  0.00  0.00    +0.000 A 
ATOM     16  N   UNL     1      44.138   5.039  12.729  0.00  0.00    +0.000 NA
ENDBRANCH  10  11
BRANCH  10  17
ATOM     17  C   UNL     1      45.156   7.643  12.342  0.00  0.00    +0.000 C 
BRANCH  17  19
ATOM     18  C   UNL     1      45.155   9.966  12.025  0.00  0.00    +0.000 C 
ATOM     19  O   UNL     1      44.874   8.705  11.421  0.00  0.00    +0.000 OA
ENDBRANCH  17  19
ENDBRANCH  10  17
ENDBRANCH   8  10
ENDBRANCH   7   8
ENDBRANCH   1   7
BRANCH   4  20
ATOM     20  C   UNL     1      48.411   3.403  17.866  0.00  0.00    +0.000 C 
BRANCH  20  21
ATOM     21  N   UNL     1      49.812   3.105  17.973  0.00  0.00    +0.000 N 
ATOM     22  C   UNL     1      50.465   2.218  17.153  0.00  0.00    +0.000 C 
ATOM     23  O   UNL     1      49.950   1.725  16.154  0.00  0.00    +0.000 OA
ATOM     24  H   UNL     1      50.277   3.483  18.782  0.00  0.00    +0.000 HD
BRANCH  22  25
ATOM     25  C   UNL     1      51.851   1.943  17.538  0.00  0.00    +0.000 A 
ATOM     26  C   UNL     1      52.291   0.646  17.747  0.00  0.00    +0.000 A 
ATOM     27  S   UNL     1      53.951   0.559  18.148  0.00  0.00    +0.000 S 
ATOM     28  C   UNL     1      54.115   2.254  18.099  0.00  0.00    +0.000 A 
ATOM     29  N   UNL     1      55.305   2.856  18.358  0.00  0.00    +0.000 NA
ATOM     30  C   UNL     1      55.273   4.148  18.309  0.00  0.00    +0.000 A 
ATOM     31  N   UNL     1      54.159   4.913  18.032  0.00  0.00    +0.000 N 
ATOM     32  C   UNL     1      54.233   6.361  17.998  0.00  0.00    +0.000 C 
ATOM     33  C   UNL     1      52.927   4.330  17.764  0.00  0.00    +0.000 A 
ATOM     34  O   UNL     1      51.930   4.997  17.505  0.00  0.00    +0.000 OA
ATOM     35  C   UNL     1      52.924   2.878  17.786  0.00  0.00    +0.000 A 
ENDBRANCH  22  25
ENDBRANCH  20  21
ENDBRANCH   4  20
TORSDOF 9
ENDMDL
MODEL 6
REMARK VINA RESULT:    -6.283      5.125      8.283
REMARK INTER + INTRA:         -10.751
REMARK INTER:                  -9.569
REMARK INTRA:                  -1.182
REMARK UNBOUND:                -1.162
REMARK  Name = 
REMARK  11 active torsions:
REMARK  status: ('A' for Active; 'I' for Inactive)
REMARK    1  A    between atoms: C_1  and  O_2
REMARK    2  A    between atoms: O_2  and  C_3
REMARK    3  A    between atoms: C_3  and  C_4
REMARK    4  A    between atoms: C_4  and  N_5
REMARK    5  A    between atoms: C_4  and  C_28
REMARK    6  A    between atoms: N_5  and  C_6
REMARK    7  A    between atoms: C_6  and  C_7
REMARK    8  A    between atoms: C_10  and  C_11
REMARK    9  A    between atoms: C_11  and  N_12
REMARK   10  A    between atoms: C_13  and  C_15
REMARK   11  A    between atoms: N_21  and  C_22
REMARK                            x       y       z     vdW  Elec       q    Type
REMARK                         _______ _______ _______ _____ _____    ______ ____
ROOT
ATOM      1  C   UNL     1      50.319   9.059  11.522  0.00  0.00    +0.000 A 
ATOM      2  C   UNL     1      49.822   7.763  11.388  0.00  0.00    +0.000 A 
ATOM      3  C   UNL     1      48.540   7.472  11.836  0.00  0.00    +0.000 A 
ATOM      4  C   UNL     1      47.785   8.486  12.416  0.00  0.00    +0.000 A 
ATOM      5  N   UNL     1      48.255   9.749  12.584  0.00  0.00    +0.000 NA
ATOM      6  C   UNL     1      49.502  10.007  12.128  0.00  0.00    +0.000 A 
ENDROOT
BRANCH   1   7
ATOM      7  C   UNL     1      51.710   9.413  11.084  0.00  0.00    +0.000 C 
BRANCH   7   8
ATOM      8  N   UNL     1      52.090   8.706   9.855  0.00  0.00    +0.000 NA
ATOM      9  H   UNL     1      51.277   8.175   9.537  0.00  0.00    +0.000 HD
BRANCH   8  10
ATOM     10  C   UNL     1      53.165   7.707  10.087  0.00  0.00    +0.000 C 
BRANCH  10  11
ATOM     11  C   UNL     1      53.239   6.658   8.987  0.00  0.00    +0.000 A 
ATOM     12  C   UNL     1      52.418   6.741   7.866  0.00  0.00    +0.000 A 
ATOM     13  N   UNL     1      52.522   5.880   6.823  0.00  0.00    +0.000 NA
ATOM     14  C   UNL     1      53.502   4.954   6.928  0.00  0.00    +0.000 A 
ATOM     15  C   UNL     1      54.331   4.874   8.027  0.00  0.00    +0.000 A 
ATOM     16  N   UNL     1      54.212   5.711   9.077  0.00  0.00    +0.000 NA
ENDBRANCH  10  11
BRANCH  10  17
ATOM     17  C   UNL     1      54.561   8.337  10.302  0.00  0.00    +0.000 C 
BRANCH  17  19
ATOM     18  C   UNL     1      55.671  10.381  10.001  0.00  0.00    +0.000 C 
ATOM     19  O   UNL     1      54.762   9.448   9.419  0.00  0.00    +0.000 OA
ENDBRANCH  17  19
ENDBRANCH  10  17
ENDBRANCH   8  10
ENDBRANCH   7   8
ENDBRANCH   1   7
BRANCH   4  20
ATOM     20  C   UNL     1      46.410   8.179  12.939  0.00  0.00    +0.000 C 
BRANCH  20  21
ATOM     21  N   UNL     1      45.968   6.879  12.520  0.00  0.00    +0.000 N 
ATOM     22  C   UNL     1      44.908   6.672  11.673  0.00  0.00    +0.000 C 
ATOM     23  O   UNL     1      44.346   7.580  11.069  0.00  0.00    +0.000 OA
ATOM     24  H   UNL     1      46.397   6.101  12.994  0.00  0.00    +0.000 HD
BRANCH  22  25
ATOM     25  C   UNL     1      44.529   5.267  11.506  0.00  0.00    +0.000 A 
ATOM     26  C   UNL     1      43.808   4.599  12.482  0.00  0.00    +0.000 A 
ATOM     27  S   UNL     1      43.444   2.984  12.059  0.00  0.00    +0.000 S 
ATOM     28  C   UNL     1      44.280   3.118  10.580  0.00  0.00    +0.000 A 
ATOM     29  N   UNL     1      44.362   2.071   9.719  0.00  0.00    +0.000 NA
ATOM     30  C   UNL     1      45.049   2.311   8.649  0.00  0.00    +0.000 A 
ATOM     31  N   UNL     1      45.677   3.503   8.349  0.00  0.00    +0.000 N 
ATOM     32  C   UNL     1      46.421   3.670   7.116  0.00  0.00    +0.000 C 
ATOM     33  C   UNL     1      45.613   4.593   9.209  0.00  0.00    +0.000 A 
ATOM     34  O   UNL     1      46.157   5.663   8.951  0.00  0.00    +0.000 OA
ATOM     35  C   UNL     1      44.831   4.372  10.413  0.00  0.00    +0.000 A 
ENDBRANCH  22  25
ENDBRANCH  20  21
ENDBRANCH   4  20
TORSDOF 9
ENDMDL
MODEL 7
REMARK VINA RESULT:    -6.137      2.564      3.260
REMARK INTER + INTRA:         -10.527
REMARK INTER:                 -10.336
REMARK INTRA:                  -0.191
REMARK UNBOUND:                -1.162
REMARK  Name = 
REMARK  11 active torsions:
REMARK  status: ('A' for Active; 'I' for Inactive)
REMARK    1  A    between atoms: C_1  and  O_2
REMARK    2  A    between atoms: O_2  and  C_3
REMARK    3  A    between atoms: C_3  and  C_4
REMARK    4  A    between atoms: C_4  and  N_5
REMARK    5  A    between atoms: C_4  and  C_28
REMARK    6  A    between atoms: N_5  and  C_6
REMARK    7  A    between atoms: C_6  and  C_7
REMARK    8  A    between atoms: C_10  and  C_11
REMARK    9  A    between atoms: C_11  and  N_12
REMARK   10  A    between atoms: C_13  and  C_15
REMARK   11  A    between atoms: N_21  and  C_22
REMARK                            x       y       z     vdW  Elec       q    Type
REMARK                         _______ _______ _______ _____ _____    ______ ____
ROOT
ATOM      1  C   UNL     1      46.079   5.831  12.436  0.00  0.00    +0.000 A 
ATOM      2  C   UNL     1      47.205   6.429  13.002  0.00  0.00    +0.000 A 
ATOM      3  C   UNL     1      47.744   5.906  14.169  0.00  0.00    +0.000 A 
ATOM      4  C   UNL     1      47.138   4.796  14.750  0.00  0.00    +0.000 A 
ATOM      5  N   UNL     1      46.025   4.212  14.236  0.00  0.00    +0.000 NA
ATOM      6  C   UNL     1      45.529   4.736  13.092  0.00  0.00    +0.000 A 
ENDROOT
BRANCH   1   7
ATOM      7  C   UNL     1      45.441   6.381  11.194  0.00  0.00    +0.000 C 
BRANCH   7   8
ATOM      8  N   UNL     1      46.002   5.776   9.980  0.00  0.00    +0.000 NA
ATOM      9  H   UNL     1      46.191   6.529   9.315  0.00  0.00    +0.000 HD
BRANCH   8  10
ATOM     10  C   UNL     1      45.040   4.867   9.305  0.00  0.00    +0.000 C 
BRANCH  10  11
ATOM     11  C   UNL     1      45.722   3.691   8.623  0.00  0.00    +0.000 A 
ATOM     12  C   UNL     1      45.485   2.386   9.044  0.00  0.00    +0.000 A 
ATOM     13  N   UNL     1      45.999   1.308   8.401  0.00  0.00    +0.000 NA
ATOM     14  C   UNL     1      46.732   1.584   7.299  0.00  0.00    +0.000 A 
ATOM     15  C   UNL     1      46.960   2.872   6.863  0.00  0.00    +0.000 A 
ATOM     16  N   UNL     1      46.473   3.947   7.516  0.00  0.00    +0.000 NA
ENDBRANCH  10  11
BRANCH  10  17
ATOM     17  C   UNL     1      43.917   4.351  10.236  0.00  0.00    +0.000 C 
BRANCH  17  19
ATOM     18  C   UNL     1      42.315   5.209  11.716  0.00  0.00    +0.000 C 
ATOM     19  O   UNL     1      42.914   5.356  10.431  0.00  0.00    +0.000 OA
ENDBRANCH  17  19
ENDBRANCH  10  17
ENDBRANCH   8  10
ENDBRANCH   7   8
ENDBRANCH   1   7
BRANCH   4  20
ATOM     20  C   UNL     1      47.687   4.240  16.035  0.00  0.00    +0.000 C 
BRANCH  20  21
ATOM     21  N   UNL     1      48.563   5.178  16.679  0.00  0.00    +0.000 N 
ATOM     22  C   UNL     1      48.478   5.509  18.008  0.00  0.00    +0.000 C 
ATOM     23  O   UNL     1      47.753   4.915  18.802  0.00  0.00    +0.000 OA
ATOM     24  H   UNL     1      49.172   5.695  16.067  0.00  0.00    +0.000 HD
BRANCH  22  25
ATOM     25  C   UNL     1      49.361   6.601  18.421  0.00  0.00    +0.000 A 
ATOM     26  C   UNL     1      48.858   7.733  19.041  0.00  0.00    +0.000 A 
ATOM     27  S   UNL     1      50.071   8.859  19.469  0.00  0.00    +0.000 S 
ATOM     28  C   UNL     1      51.297   7.885  18.796  0.00  0.00    +0.000 A 
ATOM     29  N   UNL     1      52.599   8.273  18.819  0.00  0.00    +0.000 NA
ATOM     30  C   UNL     1      53.414   7.446  18.249  0.00  0.00    +0.000 A 
ATOM     31  N   UNL     1      53.058   6.259  17.642  0.00  0.00    +0.000 N 
ATOM     32  C   UNL     1      54.055   5.400  17.033  0.00  0.00    +0.000 C 
ATOM     33  C   UNL     1      51.736   5.834  17.599  0.00  0.00    +0.000 A 
ATOM     34  O   UNL     1      51.406   4.775  17.073  0.00  0.00    +0.000 OA
ATOM     35  C   UNL     1      50.790   6.723  18.250  0.00  0.00    +0.000 A 
ENDBRANCH  22  25
ENDBRANCH  20  21
ENDBRANCH   4  20
TORSDOF 9
ENDMDL
MODEL 8
REMARK VINA RESULT:    -5.878      5.595      7.815
REMARK INTER + INTRA:         -10.133
REMARK INTER:                  -9.132
REMARK INTRA:                  -1.001
REMARK UNBOUND:                -1.162
REMARK  Name = 
REMARK  11 active torsions:
REMARK  status: ('A' for Active; 'I' for Inactive)
REMARK    1  A    between atoms: C_1  and  O_2
REMARK    2  A    between atoms: O_2  and  C_3
REMARK    3  A    between atoms: C_3  and  C_4
REMARK    4  A    between atoms: C_4  and  N_5
REMARK    5  A    between atoms: C_4  and  C_28
REMARK    6  A    between atoms: N_5  and  C_6
REMARK    7  A    between atoms: C_6  and  C_7
REMARK    8  A    between atoms: C_10  and  C_11
REMARK    9  A    between atoms: C_11  and  N_12
REMARK   10  A    between atoms: C_13  and  C_15
REMARK   11  A    between atoms: N_21  and  C_22
REMARK                            x       y       z     vdW  Elec       q    Type
REMARK                         _______ _______ _______ _____ _____    ______ ____
ROOT
ATOM      1  C   UNL     1      46.699   8.097  12.140  0.00  0.00    +0.000 A 
ATOM      2  C   UNL     1      47.579   7.113  11.690  0.00  0.00    +0.000 A 
ATOM      3  C   UNL     1      48.933   7.402  11.585  0.00  0.00    +0.000 A 
ATOM      4  C   UNL     1      49.375   8.676  11.928  0.00  0.00    +0.000 A 
ATOM      5  N   UNL     1      48.537   9.660  12.342  0.00  0.00    +0.000 NA
ATOM      6  C   UNL     1      47.225   9.346  12.446  0.00  0.00    +0.000 A 
ENDROOT
BRANCH   1   7
ATOM      7  C   UNL     1      45.223   7.842  12.237  0.00  0.00    +0.000 C 
BRANCH   7   8
ATOM      8  N   UNL     1      44.720   7.104  11.072  0.00  0.00    +0.000 NA
ATOM      9  H   UNL     1      43.965   7.655  10.657  0.00  0.00    +0.000 HD
BRANCH   8  10
ATOM     10  C   UNL     1      44.116   5.799  11.445  0.00  0.00    +0.000 C 
BRANCH  10  11
ATOM     11  C   UNL     1      44.494   4.681  10.485  0.00  0.00    +0.000 A 
ATOM     12  C   UNL     1      43.886   3.432  10.571  0.00  0.00    +0.000 A 
ATOM     13  N   UNL     1      44.126   2.442   9.675  0.00  0.00    +0.000 NA
ATOM     14  C   UNL     1      44.972   2.761   8.669  0.00  0.00    +0.000 A 
ATOM     15  C   UNL     1      45.567   4.001   8.566  0.00  0.00    +0.000 A 
ATOM     16  N   UNL     1      45.351   4.977   9.471  0.00  0.00    +0.000 NA
ENDBRANCH  10  11
BRANCH  10  17
ATOM     17  C   UNL     1      44.425   5.367  12.898  0.00  0.00    +0.000 C 
BRANCH  17  19
ATOM     18  C   UNL     1      46.363   4.735  14.057  0.00  0.00    +0.000 C 
ATOM     19  O   UNL     1      45.529   4.453  12.935  0.00  0.00    +0.000 OA
ENDBRANCH  17  19
ENDBRANCH  10  17
ENDBRANCH   8  10
ENDBRANCH   7   8
ENDBRANCH   1   7
BRANCH   4  20
ATOM     20  C   UNL     1      50.833   9.017  11.786  0.00  0.00    +0.000 C 
BRANCH  20  21
ATOM     21  N   UNL     1      51.478   8.166  10.825  0.00  0.00    +0.000 N 
ATOM     22  C   UNL     1      52.758   8.365  10.371  0.00  0.00    +0.000 C 
ATOM     23  O   UNL     1      53.523   9.189  10.864  0.00  0.00    +0.000 OA
ATOM     24  H   UNL     1      50.887   7.478  10.387  0.00  0.00    +0.000 HD
BRANCH  22  25
ATOM     25  C   UNL     1      53.160   7.478   9.278  0.00  0.00    +0.000 A 
ATOM     26  C   UNL     1      53.486   6.153   9.515  0.00  0.00    +0.000 A 
ATOM     27  S   UNL     1      53.886   5.296   8.091  0.00  0.00    +0.000 S 
ATOM     28  C   UNL     1      53.680   6.684   7.125  0.00  0.00    +0.000 A 
ATOM     29  N   UNL     1      53.877   6.644   5.781  0.00  0.00    +0.000 NA
ATOM     30  C   UNL     1      53.709   7.778   5.181  0.00  0.00    +0.000 A 
ATOM     31  N   UNL     1      53.367   8.966   5.794  0.00  0.00    +0.000 N 
ATOM     32  C   UNL     1      53.199  10.185   5.026  0.00  0.00    +0.000 C 
ATOM     33  C   UNL     1      53.160   9.042   7.166  0.00  0.00    +0.000 A 
ATOM     34  O   UNL     1      52.844  10.089   7.723  0.00  0.00    +0.000 OA
ATOM     35  C   UNL     1      53.316   7.784   7.874  0.00  0.00    +0.000 A 
ENDBRANCH  22  25
ENDBRANCH  20  21
ENDBRANCH   4  20
TORSDOF 9
ENDMDL
MODEL 9
REMARK VINA RESULT:    -5.454      5.015      6.448
REMARK INTER + INTRA:          -9.486
REMARK INTER:                  -8.441
REMARK INTRA:                  -1.045
REMARK UNBOUND:                -1.162
REMARK  Name = 
REMARK  11 active torsions:
REMARK  status: ('A' for Active; 'I' for Inactive)
REMARK    1  A    between atoms: C_1  and  O_2
REMARK    2  A    between atoms: O_2  and  C_3
REMARK    3  A    between atoms: C_3  and  C_4
REMARK    4  A    between atoms: C_4  and  N_5
REMARK    5  A    between atoms: C_4  and  C_28
REMARK    6  A    between atoms: N_5  and  C_6
REMARK    7  A    between atoms: C_6  and  C_7
REMARK    8  A    between atoms: C_10  and  C_11
REMARK    9  A    between atoms: C_11  and  N_12
REMARK   10  A    between atoms: C_13  and  C_15
REMARK   11  A    between atoms: N_21  and  C_22
REMARK                            x       y       z     vdW  Elec       q    Type
REMARK                         _______ _______ _______ _____ _____    ______ ____
ROOT
ATOM      1  C   UNL     1      47.225   7.994  12.962  0.00  0.00    +0.000 A 
ATOM      2  C   UNL     1      48.246   7.046  13.019  0.00  0.00    +0.000 A 
ATOM      3  C   UNL     1      49.555   7.461  13.221  0.00  0.00    +0.000 A 
ATOM      4  C   UNL     1      49.814   8.822  13.356  0.00  0.00    +0.000 A 
ATOM      5  N   UNL     1      48.843   9.767  13.277  0.00  0.00    +0.000 NA
ATOM      6  C   UNL     1      47.576   9.333  13.091  0.00  0.00    +0.000 A 
ENDROOT
BRANCH   1   7
ATOM      7  C   UNL     1      45.800   7.596  12.710  0.00  0.00    +0.000 C 
BRANCH   7   8
ATOM      8  N   UNL     1      45.671   6.767  11.506  0.00  0.00    +0.000 NA
ATOM      9  H   UNL     1      45.235   7.340  10.779  0.00  0.00    +0.000 HD
BRANCH   8  10
ATOM     10  C   UNL     1      44.763   5.609  11.711  0.00  0.00    +0.000 C 
BRANCH  10  11
ATOM     11  C   UNL     1      44.837   4.597  10.577  0.00  0.00    +0.000 A 
ATOM     12  C   UNL     1      44.112   3.410  10.633  0.00  0.00    +0.000 A 
ATOM     13  N   UNL     1      44.077   2.530   9.602  0.00  0.00    +0.000 NA
ATOM     14  C   UNL     1      44.767   2.898   8.499  0.00  0.00    +0.000 A 
ATOM     15  C   UNL     1      45.475   4.079   8.428  0.00  0.00    +0.000 A 
ATOM     16  N   UNL     1      45.534   4.944   9.461  0.00  0.00    +0.000 NA
ENDBRANCH  10  11
BRANCH  10  17
ATOM     17  C   UNL     1      44.971   4.892  13.066  0.00  0.00    +0.000 C 
BRANCH  17  19
ATOM     18  C   UNL     1      46.869   4.164  14.235  0.00  0.00    +0.000 C 
ATOM     19  O   UNL     1      46.127   4.044  13.023  0.00  0.00    +0.000 OA
ENDBRANCH  17  19
ENDBRANCH  10  17
ENDBRANCH   8  10
ENDBRANCH   7   8
ENDBRANCH   1   7
BRANCH   4  20
ATOM     20  C   UNL     1      51.231   9.291  13.540  0.00  0.00    +0.000 C 
BRANCH  20  21
ATOM     21  N   UNL     1      52.172   8.309  13.078  0.00  0.00    +0.000 N 
ATOM     22  C   UNL     1      53.370   8.623  12.487  0.00  0.00    +0.000 C 
ATOM     23  O   UNL     1      53.819   9.764  12.447  0.00  0.00    +0.000 OA
ATOM     24  H   UNL     1      51.845   7.357  13.085  0.00  0.00    +0.000 HD
BRANCH  22  25
ATOM     25  C   UNL     1      54.101   7.474  11.948  0.00  0.00    +0.000 A 
ATOM     26  C   UNL     1      55.083   6.838  12.690  0.00  0.00    +0.000 A 
ATOM     27  S   UNL     1      55.774   5.500  11.880  0.00  0.00    +0.000 S 
ATOM     28  C   UNL     1      54.813   5.763  10.497  0.00  0.00    +0.000 A 
ATOM     29  N   UNL     1      54.913   4.960   9.406  0.00  0.00    +0.000 NA
ATOM     30  C   UNL     1      54.141   5.294   8.424  0.00  0.00    +0.000 A 
ATOM     31  N   UNL     1      53.273   6.368   8.414  0.00  0.00    +0.000 N 
ATOM     32  C   UNL     1      52.446   6.654   7.258  0.00  0.00    +0.000 C 
ATOM     33  C   UNL     1      53.148   7.209   9.513  0.00  0.00    +0.000 A 
ATOM     34  O   UNL     1      52.373   8.160   9.524  0.00  0.00    +0.000 OA
ATOM     35  C   UNL     1      53.982   6.854  10.648  0.00  0.00    +0.000 A 
ENDBRANCH  22  25
ENDBRANCH  20  21
ENDBRANCH   4  20
TORSDOF 9
ENDMDL
