MODEL 1
REMARK VINA RESULT:    -9.002      0.000      0.000
REMARK INTER + INTRA:         -12.206
REMARK INTER:                 -11.633
REMARK INTRA:                  -0.573
REMARK UNBOUND:                -0.573
REMARK  Name = 
REMARK  6 active torsions:
REMARK  status: ('A' for Active; 'I' for Inactive)
REMARK    1  A    between atoms: C_1  and  C_2
REMARK    2  A    between atoms: C_2  and  N_3
REMARK    3  A    between atoms: C_2  and  C_16
REMARK    4  A    between atoms: C_4  and  C_6
REMARK    5  A    between atoms: C_19  and  O_20
REMARK    6  A    between atoms: O_20  and  C_21
REMARK                            x       y       z     vdW  Elec       q    Type
REMARK                         _______ _______ _______ _____ _____    ______ ____
ROOT
ATOM      1  C   UNL     1      45.299   8.399  12.794  0.00  0.00    +0.000 C 
ATOM      2  C   UNL     1      46.426   7.384  12.587  0.00  0.00    +0.000 C 
ENDROOT
BRANCH   2   3
ATOM      3  C   UNL     1      45.957   6.229  11.721  0.00  0.00    +0.000 A 
ATOM      4  C   UNL     1      45.336   5.124  12.316  0.00  0.00    +0.000 A 
ATOM      5  C   UNL     1      44.877   4.063  11.534  0.00  0.00    +0.000 A 
ATOM      6  C   UNL     1      44.980   4.111  10.142  0.00  0.00    +0.000 A 
ATOM      7  C   UNL     1      45.634   5.187   9.540  0.00  0.00    +0.000 A 
ATOM      8  C   UNL     1      46.118   6.238  10.323  0.00  0.00    +0.000 A 
BRANCH   6   9
ATOM      9  O   UNL     1      44.526   3.115   9.307  0.00  0.00    +0.000 OA
BRANCH   9  10
ATOM     10  C   UNL     1      45.415   2.576   8.384  0.00  0.00    +0.000 A 
ATOM     11  C   UNL     1      45.735   3.370   7.289  0.00  0.00    +0.000 A 
ATOM     12  C   UNL     1      46.657   2.881   6.368  0.00  0.00    +0.000 A 
ATOM     13  C   UNL     1      47.228   1.627   6.570  0.00  0.00    +0.000 A 
ATOM     14  C   UNL     1      46.824   0.895   7.676  0.00  0.00    +0.000 A 
ATOM     15  N   UNL     1      45.916   1.337   8.572  0.00  0.00    +0.000 NA
ENDBRANCH   9  10
ENDBRANCH   6   9
ENDBRANCH   2   3
BRANCH   2  16
ATOM     16  N   UNL     1      46.941   6.891  13.853  0.00  0.00    +0.000 N 
ATOM     17  C   UNL     1      48.267   6.599  14.044  0.00  0.00    +0.000 C 
ATOM     18  O   UNL     1      49.100   6.714  13.148  0.00  0.00    +0.000 OA
ATOM     19  H   UNL     1      46.262   6.619  14.557  0.00  0.00    +0.000 HD
BRANCH  17  20
ATOM     20  C   UNL     1      48.666   6.197  15.401  0.00  0.00    +0.000 A 
ATOM     21  C   UNL     1      49.647   6.918  16.072  0.00  0.00    +0.000 A 
ATOM     22  S   UNL     1      49.971   6.336  17.644  0.00  0.00    +0.000 S 
ATOM     23  C   UNL     1      48.847   5.074  17.461  0.00  0.00    +0.000 A 
ATOM     24  N   UNL     1      48.641   4.153  18.435  0.00  0.00    +0.000 NA
ATOM     25  N   UNL     1      47.828   3.215  18.235  0.00  0.00    +0.000 NA
ATOM     26  N   UNL     1      47.148   3.163  17.051  0.00  0.00    +0.000 N 
ATOM     27  C   UNL     1      47.244   4.071  16.023  0.00  0.00    +0.000 A 
ATOM     28  O   UNL     1      46.543   3.994  15.020  0.00  0.00    +0.000 OA
ATOM     29  C   UNL     1      48.213   5.116  16.240  0.00  0.00    +0.000 A 
ATOM     30  H   UNL     1      46.494   2.399  16.949  0.00  0.00    +0.000 HD
ENDBRANCH  17  20
ENDBRANCH   2  16
TORSDOF 5
ENDMDL
MODEL 2
REMARK VINA RESULT:    -7.998      1.894      2.504
REMARK INTER + INTRA:         -10.909
REMARK INTER:                 -10.078
REMARK INTRA:                  -0.831
REMARK UNBOUND:                -0.573
REMARK  Name = 
REMARK  6 active torsions:
REMARK  status: ('A' for Active; 'I' for Inactive)
REMARK    1  A    between atoms: C_1  and  C_2
REMARK    2  A    between atoms: C_2  and  N_3
REMARK    3  A    between atoms: C_2  and  C_16
REMARK    4  A    between atoms: C_4  and  C_6
REMARK    5  A    between atoms: C_19  and  O_20
REMARK    6  A    between atoms: O_20  and  C_21
REMARK                            x       y       z     vdW  Elec       q    Type
REMARK                         _______ _______ _______ _____ _____    ______ ____
ROOT
ATOM      1  C   UNL     1      46.865   8.350  13.610  0.00  0.00    +0.000 C 
ATOM      2  C   UNL     1      47.445   6.938  13.500  0.00  0.00    +0.000 C 
ENDROOT
BRANCH   2   3
ATOM      3  C   UNL     1      46.644   6.104  12.516  0.00  0.00    +0.000 A 
ATOM      4  C   UNL     1      46.442   6.575  11.212  0.00  0.00    +0.000 A 
ATOM      5  C   UNL     1      45.728   5.813  10.286  0.00  0.00    +0.000 A 
ATOM      6  C   UNL     1      45.252   4.546  10.628  0.00  0.00    +0.000 A 
ATOM      7  C   UNL     1      45.410   4.083  11.935  0.00  0.00    +0.000 A 
ATOM      8  C   UNL     1      46.102   4.855  12.871  0.00  0.00    +0.000 A 
BRANCH   6   9
ATOM      9  O   UNL     1      44.564   3.728   9.759  0.00  0.00    +0.000 OA
BRANCH   9  10
ATOM     10  C   UNL     1      45.290   3.032   8.800  0.00  0.00    +0.000 A 
ATOM     11  C   UNL     1      45.696   3.750   7.681  0.00  0.00    +0.000 A 
ATOM     12  C   UNL     1      46.464   3.096   6.722  0.00  0.00    +0.000 A 
ATOM     13  C   UNL     1      46.802   1.758   6.911  0.00  0.00    +0.000 A 
ATOM     14  C   UNL     1      46.326   1.117   8.043  0.00  0.00    +0.000 A 
ATOM     15  N   UNL     1      45.561   1.721   8.978  0.00  0.00    +0.000 NA
ENDBRANCH   9  10
ENDBRANCH   6   9
ENDBRANCH   2   3
BRANCH   2  16
ATOM     16  N   UNL     1      47.500   6.279  14.794  0.00  0.00    +0.000 N 
ATOM     17  C   UNL     1      48.659   6.176  15.519  0.00  0.00    +0.000 C 
ATOM     18  O   UNL     1      49.730   6.616  15.108  0.00  0.00    +0.000 OA
ATOM     19  H   UNL     1      46.679   5.755  15.084  0.00  0.00    +0.000 HD
BRANCH  17  20
ATOM     20  C   UNL     1      48.552   5.567  16.853  0.00  0.00    +0.000 A 
ATOM     21  C   UNL     1      48.703   4.192  16.995  0.00  0.00    +0.000 A 
ATOM     22  S   UNL     1      48.577   3.653  18.610  0.00  0.00    +0.000 S 
ATOM     23  C   UNL     1      48.270   5.231  19.164  0.00  0.00    +0.000 A 
ATOM     24  N   UNL     1      48.027   5.495  20.473  0.00  0.00    +0.000 NA
ATOM     25  N   UNL     1      47.766   6.673  20.826  0.00  0.00    +0.000 NA
ATOM     26  N   UNL     1      47.762   7.665  19.887  0.00  0.00    +0.000 N 
ATOM     27  C   UNL     1      48.046   7.514  18.550  0.00  0.00    +0.000 A 
ATOM     28  O   UNL     1      48.095   8.470  17.784  0.00  0.00    +0.000 OA
ATOM     29  C   UNL     1      48.297   6.154  18.144  0.00  0.00    +0.000 A 
ATOM     30  H   UNL     1      47.564   8.597  20.227  0.00  0.00    +0.000 HD
ENDBRANCH  17  20
ENDBRANCH   2  16
TORSDOF 5
ENDMDL
MODEL 3
REMARK VINA RESULT:    -7.986      2.835      3.986
REMARK INTER + INTRA:         -10.893
REMARK INTER:                  -9.844
REMARK INTRA:                  -1.049
REMARK UNBOUND:                -0.573
REMARK  Name = 
REMARK  6 active torsions:
REMARK  status: ('A' for Active; 'I' for Inactive)
REMARK    1  A    between atoms: C_1  and  C_2
REMARK    2  A    between atoms: C_2  and  N_3
REMARK    3  A    between atoms: C_2  and  C_16
REMARK    4  A    between atoms: C_4  and  C_6
REMARK    5  A    between atoms: C_19  and  O_20
REMARK    6  A    between atoms: O_20  and  C_21
REMARK                            x       y       z     vdW  Elec       q    Type
REMARK                         _______ _______ _______ _____ _____    ______ ____
ROOT
ATOM      1  C   UNL     1      46.291   4.766  14.406  0.00  0.00    +0.000 C 
ATOM      2  C   UNL     1      45.960   5.783  13.310  0.00  0.00    +0.000 C 
ENDROOT
BRANCH   2   3
ATOM      3  C   UNL     1      45.574   5.077  12.023  0.00  0.00    +0.000 A 
ATOM      4  C   UNL     1      45.689   5.752  10.801  0.00  0.00    +0.000 A 
ATOM      5  C   UNL     1      45.361   5.113   9.604  0.00  0.00    +0.000 A 
ATOM      6  C   UNL     1      44.966   3.775   9.601  0.00  0.00    +0.000 A 
ATOM      7  C   UNL     1      44.807   3.104  10.814  0.00  0.00    +0.000 A 
ATOM      8  C   UNL     1      45.109   3.749  12.016  0.00  0.00    +0.000 A 
BRANCH   6   9
ATOM      9  O   UNL     1      44.653   3.072   8.458  0.00  0.00    +0.000 OA
BRANCH   9  10
ATOM     10  C   UNL     1      45.698   2.579   7.685  0.00  0.00    +0.000 A 
ATOM     11  C   UNL     1      46.051   3.322   6.565  0.00  0.00    +0.000 A 
ATOM     12  C   UNL     1      47.123   2.882   5.793  0.00  0.00    +0.000 A 
ATOM     13  C   UNL     1      47.804   1.725   6.164  0.00  0.00    +0.000 A 
ATOM     14  C   UNL     1      47.360   1.034   7.280  0.00  0.00    +0.000 A 
ATOM     15  N   UNL     1      46.309   1.427   8.033  0.00  0.00    +0.000 NA
ENDBRANCH   9  10
ENDBRANCH   6   9
ENDBRANCH   2   3
BRANCH   2  16
ATOM     16  N   UNL     1      47.065   6.696  13.076  0.00  0.00    +0.000 N 
ATOM     17  C   UNL     1      46.916   8.058  13.121  0.00  0.00    +0.000 C 
ATOM     18  O   UNL     1      45.832   8.592  13.341  0.00  0.00    +0.000 OA
ATOM     19  H   UNL     1      47.930   6.298  12.722  0.00  0.00    +0.000 HD
BRANCH  17  20
ATOM     20  C   UNL     1      48.136   8.862  12.957  0.00  0.00    +0.000 A 
ATOM     21  C   UNL     1      48.092  10.036  12.213  0.00  0.00    +0.000 A 
ATOM     22  S   UNL     1      49.585  10.860  12.144  0.00  0.00    +0.000 S 
ATOM     23  C   UNL     1      50.350   9.652  13.064  0.00  0.00    +0.000 A 
ATOM     24  N   UNL     1      51.673   9.707  13.356  0.00  0.00    +0.000 NA
ATOM     25  N   UNL     1      52.200   8.768  14.006  0.00  0.00    +0.000 NA
ATOM     26  N   UNL     1      51.419   7.729  14.428  0.00  0.00    +0.000 N 
ATOM     27  C   UNL     1      50.065   7.603  14.231  0.00  0.00    +0.000 A 
ATOM     28  O   UNL     1      49.422   6.674  14.707  0.00  0.00    +0.000 OA
ATOM     29  C   UNL     1      49.477   8.659  13.445  0.00  0.00    +0.000 A 
ATOM     30  H   UNL     1      51.890   7.009  14.961  0.00  0.00    +0.000 HD
ENDBRANCH  17  20
ENDBRANCH   2  16
TORSDOF 5
ENDMDL
MODEL 4
REMARK VINA RESULT:    -7.894      3.330      7.952
REMARK INTER + INTRA:         -10.774
REMARK INTER:                  -9.636
REMARK INTRA:                  -1.138
REMARK UNBOUND:                -0.573
REMARK  Name = 
REMARK  6 active torsions:
REMARK  status: ('A' for Active; 'I' for Inactive)
REMARK    1  A    between atoms: C_1  and  C_2
REMARK    2  A    between atoms: C_2  and  N_3
REMARK    3  A    between atoms: C_2  and  C_16
REMARK    4  A    between atoms: C_4  and  C_6
REMARK    5  A    between atoms: C_19  and  O_20
REMARK    6  A    between atoms: O_20  and  C_21
REMARK                            x       y       z     vdW  Elec       q    Type
REMARK                         _______ _______ _______ _____ _____    ______ ____
ROOT
ATOM      1  C   UNL     1      49.403   7.629  12.407  0.00  0.00    +0.000 C 
ATOM      2  C   UNL     1      48.181   7.169  13.206  0.00  0.00    +0.000 C 
ENDROOT
BRANCH   2   3
ATOM      3  C   UNL     1      48.602   6.589  14.544  0.00  0.00    +0.000 A 
ATOM      4  C   UNL     1      47.809   5.610  15.156  0.00  0.00    +0.000 A 
ATOM      5  C   UNL     1      48.191   5.049  16.375  0.00  0.00    +0.000 A 
ATOM      6  C   UNL     1      49.397   5.413  16.977  0.00  0.00    +0.000 A 
ATOM      7  C   UNL     1      50.175   6.417  16.399  0.00  0.00    +0.000 A 
ATOM      8  C   UNL     1      49.782   7.000  15.192  0.00  0.00    +0.000 A 
BRANCH   6   9
ATOM      9  O   UNL     1      49.850   4.882  18.164  0.00  0.00    +0.000 OA
BRANCH   9  10
ATOM     10  C   UNL     1      50.775   3.846  18.108  0.00  0.00    +0.000 A 
ATOM     11  C   UNL     1      50.377   2.688  17.450  0.00  0.00    +0.000 A 
ATOM     12  C   UNL     1      51.293   1.647  17.335  0.00  0.00    +0.000 A 
ATOM     13  C   UNL     1      52.569   1.796  17.873  0.00  0.00    +0.000 A 
ATOM     14  C   UNL     1      52.866   2.975  18.538  0.00  0.00    +0.000 A 
ATOM     15  N   UNL     1      51.988   3.991  18.683  0.00  0.00    +0.000 NA
ENDBRANCH   9  10
ENDBRANCH   6   9
ENDBRANCH   2   3
BRANCH   2  16
ATOM     16  N   UNL     1      47.388   6.205  12.463  0.00  0.00    +0.000 N 
ATOM     17  C   UNL     1      46.308   6.571  11.702  0.00  0.00    +0.000 C 
ATOM     18  O   UNL     1      45.930   7.737  11.619  0.00  0.00    +0.000 OA
ATOM     19  H   UNL     1      47.562   5.221  12.645  0.00  0.00    +0.000 HD
BRANCH  17  20
ATOM     20  C   UNL     1      45.652   5.505  10.930  0.00  0.00    +0.000 A 
ATOM     21  C   UNL     1      45.727   5.516   9.541  0.00  0.00    +0.000 A 
ATOM     22  S   UNL     1      44.936   4.196   8.803  0.00  0.00    +0.000 S 
ATOM     23  C   UNL     1      44.428   3.594  10.309  0.00  0.00    +0.000 A 
ATOM     24  N   UNL     1      43.661   2.480  10.413  0.00  0.00    +0.000 NA
ATOM     25  N   UNL     1      43.278   2.098  11.548  0.00  0.00    +0.000 NA
ATOM     26  N   UNL     1      43.670   2.799  12.654  0.00  0.00    +0.000 N 
ATOM     27  C   UNL     1      44.486   3.905  12.664  0.00  0.00    +0.000 A 
ATOM     28  O   UNL     1      44.852   4.433  13.708  0.00  0.00    +0.000 OA
ATOM     29  C   UNL     1      44.882   4.364  11.356  0.00  0.00    +0.000 A 
ATOM     30  H   UNL     1      43.349   2.439  13.543  0.00  0.00    +0.000 HD
ENDBRANCH  17  20
ENDBRANCH   2  16
TORSDOF 5
ENDMDL
MODEL 5
REMARK VINA RESULT:    -7.821      1.969      2.779
REMARK INTER + INTRA:         -10.679
REMARK INTER:                  -9.687
REMARK INTRA:                  -0.992
REMARK UNBOUND:                -0.573
REMARK  Name = 
REMARK  6 active torsions:
REMARK  status: ('A' for Active; 'I' for Inactive)
REMARK    1  A    between atoms: C_1  and  C_2
REMARK    2  A    between atoms: C_2  and  N_3
REMARK    3  A    between atoms: C_2  and  C_16
REMARK    4  A    between atoms: C_4  and  C_6
REMARK    5  A    between atoms: C_19  and  O_20
REMARK    6  A    between atoms: O_20  and  C_21
REMARK                            x       y       z     vdW  Elec       q    Type
REMARK                         _______ _______ _______ _____ _____    ______ ____
ROOT
ATOM      1  C   UNL     1      48.583   8.934  13.665  0.00  0.00    +0.000 C 
ATOM      2  C   UNL     1      48.434   7.473  14.098  0.00  0.00    +0.000 C 
ENDROOT
BRANCH   2   3
ATOM      3  C   UNL     1      47.311   6.798  13.331  0.00  0.00    +0.000 A 
ATOM      4  C   UNL     1      46.519   7.551  12.455  0.00  0.00    +0.000 A 
ATOM      5  C   UNL     1      45.496   6.944  11.724  0.00  0.00    +0.000 A 
ATOM      6  C   UNL     1      45.284   5.567  11.812  0.00  0.00    +0.000 A 
ATOM      7  C   UNL     1      46.039   4.813  12.711  0.00  0.00    +0.000 A 
ATOM      8  C   UNL     1      47.045   5.423  13.464  0.00  0.00    +0.000 A 
BRANCH   6   9
ATOM      9  O   UNL     1      44.313   4.896  11.101  0.00  0.00    +0.000 OA
BRANCH   9  10
ATOM     10  C   UNL     1      44.717   4.073  10.057  0.00  0.00    +0.000 A 
ATOM     11  C   UNL     1      45.470   4.665   9.050  0.00  0.00    +0.000 A 
ATOM     12  C   UNL     1      45.929   3.860   8.011  0.00  0.00    +0.000 A 
ATOM     13  C   UNL     1      45.627   2.501   8.013  0.00  0.00    +0.000 A 
ATOM     14  C   UNL     1      44.845   2.006   9.044  0.00  0.00    +0.000 A 
ATOM     15  N   UNL     1      44.368   2.769  10.052  0.00  0.00    +0.000 NA
ENDBRANCH   9  10
ENDBRANCH   6   9
ENDBRANCH   2   3
BRANCH   2  16
ATOM     16  N   UNL     1      48.210   7.358  15.528  0.00  0.00    +0.000 N 
ATOM     17  C   UNL     1      49.106   6.748  16.367  0.00  0.00    +0.000 C 
ATOM     18  O   UNL     1      50.146   6.238  15.956  0.00  0.00    +0.000 OA
ATOM     19  H   UNL     1      47.290   7.611  15.877  0.00  0.00    +0.000 HD
BRANCH  17  20
ATOM     20  C   UNL     1      48.798   6.784  17.804  0.00  0.00    +0.000 A 
ATOM     21  C   UNL     1      48.605   8.008  18.436  0.00  0.00    +0.000 A 
ATOM     22  S   UNL     1      48.229   7.871  20.095  0.00  0.00    +0.000 S 
ATOM     23  C   UNL     1      48.360   6.177  20.035  0.00  0.00    +0.000 A 
ATOM     24  N   UNL     1      48.193   5.407  21.139  0.00  0.00    +0.000 NA
ATOM     25  N   UNL     1      48.340   4.161  21.050  0.00  0.00    +0.000 NA
ATOM     26  N   UNL     1      48.634   3.609  19.835  0.00  0.00    +0.000 N 
ATOM     27  C   UNL     1      48.772   4.292  18.649  0.00  0.00    +0.000 A 
ATOM     28  O   UNL     1      48.963   3.713  17.585  0.00  0.00    +0.000 OA
ATOM     29  C   UNL     1      48.649   5.723  18.768  0.00  0.00    +0.000 A 
ATOM     30  H   UNL     1      48.723   2.602  19.815  0.00  0.00    +0.000 HD
ENDBRANCH  17  20
ENDBRANCH   2  16
TORSDOF 5
ENDMDL
MODEL 6
REMARK VINA RESULT:    -7.174      3.125      8.596
REMARK INTER + INTRA:          -9.843
REMARK INTER:                  -8.610
REMARK INTRA:                  -1.233
REMARK UNBOUND:                -0.573
REMARK  Name = 
REMARK  6 active torsions:
REMARK  status: ('A' for Active; 'I' for Inactive)
REMARK    1  A    between atoms: C_1  and  C_2
REMARK    2  A    between atoms: C_2  and  N_3
REMARK    3  A    between atoms: C_2  and  C_16
REMARK    4  A    between atoms: C_4  and  C_6
REMARK    5  A    between atoms: C_19  and  O_20
REMARK    6  A    between atoms: O_20  and  C_21
REMARK                            x       y       z     vdW  Elec       q    Type
REMARK                         _______ _______ _______ _____ _____    ______ ____
ROOT
ATOM      1  C   UNL     1      48.886   7.829  11.388  0.00  0.00    +0.000 C 
ATOM      2  C   UNL     1      47.676   7.688  12.316  0.00  0.00    +0.000 C 
ENDROOT
BRANCH   2   3
ATOM      3  C   UNL     1      48.103   7.767  13.770  0.00  0.00    +0.000 A 
ATOM      4  C   UNL     1      48.752   6.675  14.362  0.00  0.00    +0.000 A 
ATOM      5  C   UNL     1      49.173   6.737  15.692  0.00  0.00    +0.000 A 
ATOM      6  C   UNL     1      49.003   7.906  16.435  0.00  0.00    +0.000 A 
ATOM      7  C   UNL     1      48.322   8.985  15.871  0.00  0.00    +0.000 A 
ATOM      8  C   UNL     1      47.877   8.917  14.548  0.00  0.00    +0.000 A 
BRANCH   6   9
ATOM      9  O   UNL     1      49.418   8.048  17.741  0.00  0.00    +0.000 OA
BRANCH   9  10
ATOM     10  C   UNL     1      49.070   7.057  18.651  0.00  0.00    +0.000 A 
ATOM     11  C   UNL     1      47.758   7.064  19.112  0.00  0.00    +0.000 A 
ATOM     12  C   UNL     1      47.363   6.059  19.989  0.00  0.00    +0.000 A 
ATOM     13  C   UNL     1      48.281   5.084  20.372  0.00  0.00    +0.000 A 
ATOM     14  C   UNL     1      49.575   5.176  19.885  0.00  0.00    +0.000 A 
ATOM     15  N   UNL     1      49.990   6.154  19.050  0.00  0.00    +0.000 NA
ENDBRANCH   9  10
ENDBRANCH   6   9
ENDBRANCH   2   3
BRANCH   2  16
ATOM     16  N   UNL     1      46.951   6.455  12.067  0.00  0.00    +0.000 N 
ATOM     17  C   UNL     1      45.586   6.368  12.173  0.00  0.00    +0.000 C 
ATOM     18  O   UNL     1      44.894   7.326  12.509  0.00  0.00    +0.000 OA
ATOM     19  H   UNL     1      47.499   5.606  11.958  0.00  0.00    +0.000 HD
BRANCH  17  20
ATOM     20  C   UNL     1      44.974   5.084  11.803  0.00  0.00    +0.000 A 
ATOM     21  C   UNL     1      44.277   4.353  12.758  0.00  0.00    +0.000 A 
ATOM     22  S   UNL     1      43.608   2.902  12.158  0.00  0.00    +0.000 S 
ATOM     23  C   UNL     1      44.268   3.180  10.615  0.00  0.00    +0.000 A 
ATOM     24  N   UNL     1      44.111   2.294   9.600  0.00  0.00    +0.000 NA
ATOM     25  N   UNL     1      44.653   2.526   8.489  0.00  0.00    +0.000 NA
ATOM     26  N   UNL     1      45.362   3.681   8.323  0.00  0.00    +0.000 N 
ATOM     27  C   UNL     1      45.538   4.666   9.266  0.00  0.00    +0.000 A 
ATOM     28  O   UNL     1      46.128   5.710   9.013  0.00  0.00    +0.000 OA
ATOM     29  C   UNL     1      44.955   4.370  10.551  0.00  0.00    +0.000 A 
ATOM     30  H   UNL     1      45.762   3.827   7.405  0.00  0.00    +0.000 HD
ENDBRANCH  17  20
ENDBRANCH   2  16
TORSDOF 5
ENDMDL
MODEL 7
REMARK VINA RESULT:    -7.132      2.961      4.461
REMARK INTER + INTRA:          -9.790
REMARK INTER:                  -8.605
REMARK INTRA:                  -1.184
REMARK UNBOUND:                -0.573
REMARK  Name = 
REMARK  6 active torsions:
REMARK  status: ('A' for Active; 'I' for Inactive)
REMARK    1  A    between atoms: C_1  and  C_2
REMARK    2  A    between atoms: C_2  and  N_3
REMARK    3  A    between atoms: C_2  and  C_16
REMARK    4  A    between atoms: C_4  and  C_6
REMARK    5  A    between atoms: C_19  and  O_20
REMARK    6  A    between atoms: O_20  and  C_21
REMARK                            x       y       z     vdW  Elec       q    Type
REMARK                         _______ _______ _______ _____ _____    ______ ____
ROOT
ATOM      1  C   UNL     1      47.357   4.804  15.487  0.00  0.00    +0.000 C 
ATOM      2  C   UNL     1      47.245   5.934  14.460  0.00  0.00    +0.000 C 
ENDROOT
BRANCH   2   3
ATOM      3  C   UNL     1      46.571   5.442  13.193  0.00  0.00    +0.000 A 
ATOM      4  C   UNL     1      45.991   4.167  13.165  0.00  0.00    +0.000 A 
ATOM      5  C   UNL     1      45.346   3.706  12.016  0.00  0.00    +0.000 A 
ATOM      6  C   UNL     1      45.221   4.528  10.896  0.00  0.00    +0.000 A 
ATOM      7  C   UNL     1      45.830   5.784  10.895  0.00  0.00    +0.000 A 
ATOM      8  C   UNL     1      46.499   6.238  12.034  0.00  0.00    +0.000 A 
BRANCH   6   9
ATOM      9  O   UNL     1      44.576   4.151   9.738  0.00  0.00    +0.000 OA
BRANCH   9  10
ATOM     10  C   UNL     1      45.320   3.522   8.748  0.00  0.00    +0.000 A 
ATOM     11  C   UNL     1      45.523   2.154   8.892  0.00  0.00    +0.000 A 
ATOM     12  C   UNL     1      46.226   1.484   7.895  0.00  0.00    +0.000 A 
ATOM     13  C   UNL     1      46.698   2.194   6.794  0.00  0.00    +0.000 A 
ATOM     14  C   UNL     1      46.474   3.561   6.752  0.00  0.00    +0.000 A 
ATOM     15  N   UNL     1      45.814   4.239   7.716  0.00  0.00    +0.000 NA
ENDBRANCH   9  10
ENDBRANCH   6   9
ENDBRANCH   2   3
BRANCH   2  16
ATOM     16  N   UNL     1      48.543   6.509  14.153  0.00  0.00    +0.000 N 
ATOM     17  C   UNL     1      48.869   7.802  14.469  0.00  0.00    +0.000 C 
ATOM     18  O   UNL     1      48.073   8.564  15.012  0.00  0.00    +0.000 OA
ATOM     19  H   UNL     1      49.161   5.969  13.553  0.00  0.00    +0.000 HD
BRANCH  17  20
ATOM     20  C   UNL     1      50.248   8.225  14.184  0.00  0.00    +0.000 A 
ATOM     21  C   UNL     1      51.073   8.628  15.227  0.00  0.00    +0.000 A 
ATOM     22  S   UNL     1      52.647   9.061  14.728  0.00  0.00    +0.000 S 
ATOM     23  C   UNL     1      52.262   8.770  13.097  0.00  0.00    +0.000 A 
ATOM     24  N   UNL     1      53.160   8.980  12.102  0.00  0.00    +0.000 NA
ATOM     25  N   UNL     1      52.813   8.789  10.909  0.00  0.00    +0.000 NA
ATOM     26  N   UNL     1      51.548   8.345  10.645  0.00  0.00    +0.000 N 
ATOM     27  C   UNL     1      50.583   8.053  11.579  0.00  0.00    +0.000 A 
ATOM     28  O   UNL     1      49.493   7.586  11.263  0.00  0.00    +0.000 OA
ATOM     29  C   UNL     1      50.971   8.320  12.941  0.00  0.00    +0.000 A 
ATOM     30  H   UNL     1      51.327   8.190   9.670  0.00  0.00    +0.000 HD
ENDBRANCH  17  20
ENDBRANCH   2  16
TORSDOF 5
ENDMDL
MODEL 8
REMARK VINA RESULT:    -7.070      3.196      8.347
REMARK INTER + INTRA:          -9.710
REMARK INTER:                  -8.971
REMARK INTRA:                  -0.738
REMARK UNBOUND:                -0.573
REMARK  Name = 
REMARK  6 active torsions:
REMARK  status: ('A' for Active; 'I' for Inactive)
REMARK    1  A    between atoms: C_1  and  C_2
REMARK    2  A    between atoms: C_2  and  N_3
REMARK    3  A    between atoms: C_2  and  C_16
REMARK    4  A    between atoms: C_4  and  C_6
REMARK    5  A    between atoms: C_19  and  O_20
REMARK    6  A    between atoms: O_20  and  C_21
REMARK                            x       y       z     vdW  Elec       q    Type
REMARK                         _______ _______ _______ _____ _____    ______ ____
ROOT
ATOM      1  C   UNL     1      48.742   7.435  12.420  0.00  0.00    +0.000 C 
ATOM      2  C   UNL     1      47.721   6.921  13.438  0.00  0.00    +0.000 C 
ENDROOT
BRANCH   2   3
ATOM      3  C   UNL     1      48.412   6.475  14.713  0.00  0.00    +0.000 A 
ATOM      4  C   UNL     1      47.814   5.500  15.522  0.00  0.00    +0.000 A 
ATOM      5  C   UNL     1      48.445   5.060  16.687  0.00  0.00    +0.000 A 
ATOM      6  C   UNL     1      49.706   5.545  17.035  0.00  0.00    +0.000 A 
ATOM      7  C   UNL     1      50.294   6.546  16.261  0.00  0.00    +0.000 A 
ATOM      8  C   UNL     1      49.653   7.007  15.109  0.00  0.00    +0.000 A 
BRANCH   6   9
ATOM      9  O   UNL     1      50.400   5.137  18.154  0.00  0.00    +0.000 OA
BRANCH   9  10
ATOM     10  C   UNL     1      51.160   3.977  18.067  0.00  0.00    +0.000 A 
ATOM     11  C   UNL     1      50.541   2.866  17.507  0.00  0.00    +0.000 A 
ATOM     12  C   UNL     1      51.287   1.699  17.363  0.00  0.00    +0.000 A 
ATOM     13  C   UNL     1      52.617   1.681  17.777  0.00  0.00    +0.000 A 
ATOM     14  C   UNL     1      53.138   2.829  18.353  0.00  0.00    +0.000 A 
ATOM     15  N   UNL     1      52.430   3.966  18.524  0.00  0.00    +0.000 NA
ENDBRANCH   9  10
ENDBRANCH   6   9
ENDBRANCH   2   3
BRANCH   2  16
ATOM     16  N   UNL     1      46.918   5.840  12.892  0.00  0.00    +0.000 N 
ATOM     17  C   UNL     1      45.649   6.035  12.411  0.00  0.00    +0.000 C 
ATOM     18  O   UNL     1      45.103   7.135  12.433  0.00  0.00    +0.000 OA
ATOM     19  H   UNL     1      47.266   4.894  13.017  0.00  0.00    +0.000 HD
BRANCH  17  20
ATOM     20  C   UNL     1      44.986   4.872  11.803  0.00  0.00    +0.000 A 
ATOM     21  C   UNL     1      44.199   4.040  12.590  0.00  0.00    +0.000 A 
ATOM     22  S   UNL     1      43.482   2.755  11.724  0.00  0.00    +0.000 S 
ATOM     23  C   UNL     1      44.239   3.241  10.281  0.00  0.00    +0.000 A 
ATOM     24  N   UNL     1      44.086   2.548   9.125  0.00  0.00    +0.000 NA
ATOM     25  N   UNL     1      44.699   2.926   8.094  0.00  0.00    +0.000 NA
ATOM     26  N   UNL     1      45.481   4.045   8.156  0.00  0.00    +0.000 N 
ATOM     27  C   UNL     1      45.661   4.845   9.259  0.00  0.00    +0.000 A 
ATOM     28  O   UNL     1      46.322   5.877   9.212  0.00  0.00    +0.000 OA
ATOM     29  C   UNL     1      44.994   4.379  10.449  0.00  0.00    +0.000 A 
ATOM     30  H   UNL     1      45.937   4.315   7.294  0.00  0.00    +0.000 HD
ENDBRANCH  17  20
ENDBRANCH   2  16
TORSDOF 5
ENDMDL
MODEL 9
REMARK VINA RESULT:    -6.880      3.971      9.469
REMARK INTER + INTRA:          -9.463
REMARK INTER:                  -8.297
REMARK INTRA:                  -1.166
REMARK UNBOUND:                -0.573
REMARK  Name = 
REMARK  6 active torsions:
REMARK  status: ('A' for Active; 'I' for Inactive)
REMARK    1  A    between atoms: C_1  and  C_2
REMARK    2  A    between atoms: C_2  and  N_3
REMARK    3  A    between atoms: C_2  and  C_16
REMARK    4  A    between atoms: C_4  and  C_6
REMARK    5  A    between atoms: C_19  and  O_20
REMARK    6  A    between atoms: O_20  and  C_21
REMARK                            x       y       z     vdW  Elec       q    Type
REMARK                         _______ _______ _______ _____ _____    ______ ____
ROOT
ATOM      1  C   UNL     1      47.859   2.857  16.333  0.00  0.00    +0.000 C 
ATOM      2  C   UNL     1      48.139   4.317  15.964  0.00  0.00    +0.000 C 
ENDROOT
BRANCH   2   3
ATOM      3  C   UNL     1      48.248   5.174  17.212  0.00  0.00    +0.000 A 
ATOM      4  C   UNL     1      49.301   6.090  17.334  0.00  0.00    +0.000 A 
ATOM      5  C   UNL     1      49.405   6.904  18.463  0.00  0.00    +0.000 A 
ATOM      6  C   UNL     1      48.432   6.856  19.463  0.00  0.00    +0.000 A 
ATOM      7  C   UNL     1      47.402   5.919  19.373  0.00  0.00    +0.000 A 
ATOM      8  C   UNL     1      47.309   5.086  18.256  0.00  0.00    +0.000 A 
BRANCH   6   9
ATOM      9  O   UNL     1      48.456   7.647  20.591  0.00  0.00    +0.000 OA
BRANCH   9  10
ATOM     10  C   UNL     1      48.001   8.956  20.483  0.00  0.00    +0.000 A 
ATOM     11  C   UNL     1      46.632   9.155  20.626  0.00  0.00    +0.000 A 
ATOM     12  C   UNL     1      46.147  10.458  20.568  0.00  0.00    +0.000 A 
ATOM     13  C   UNL     1      47.036  11.513  20.375  0.00  0.00    +0.000 A 
ATOM     14  C   UNL     1      48.379  11.214  20.212  0.00  0.00    +0.000 A 
ATOM     15  N   UNL     1      48.874   9.957  20.242  0.00  0.00    +0.000 NA
ENDBRANCH   9  10
ENDBRANCH   6   9
ENDBRANCH   2   3
BRANCH   2  16
ATOM     16  N   UNL     1      47.122   4.847  15.072  0.00  0.00    +0.000 N 
ATOM     17  C   UNL     1      47.432   5.576  13.953  0.00  0.00    +0.000 C 
ATOM     18  O   UNL     1      48.591   5.845  13.646  0.00  0.00    +0.000 OA
ATOM     19  H   UNL     1      46.156   4.795  15.384  0.00  0.00    +0.000 HD
BRANCH  17  20
ATOM     20  C   UNL     1      46.310   5.972  13.090  0.00  0.00    +0.000 A 
ATOM     21  C   UNL     1      46.086   7.319  12.827  0.00  0.00    +0.000 A 
ATOM     22  S   UNL     1      44.761   7.603  11.789  0.00  0.00    +0.000 S 
ATOM     23  C   UNL     1      44.415   5.942  11.695  0.00  0.00    +0.000 A 
ATOM     24  N   UNL     1      43.360   5.470  10.984  0.00  0.00    +0.000 NA
ATOM     25  N   UNL     1      43.123   4.235  10.979  0.00  0.00    +0.000 NA
ATOM     26  N   UNL     1      43.952   3.394  11.666  0.00  0.00    +0.000 N 
ATOM     27  C   UNL     1      45.073   3.762  12.372  0.00  0.00    +0.000 A 
ATOM     28  O   UNL     1      45.809   2.936  12.901  0.00  0.00    +0.000 OA
ATOM     29  C   UNL     1      45.311   5.183  12.413  0.00  0.00    +0.000 A 
ATOM     30  H   UNL     1      43.727   2.409  11.615  0.00  0.00    +0.000 HD
ENDBRANCH  17  20
ENDBRANCH   2  16
TORSDOF 5
ENDMDL
