MODEL 1
REMARK VINA RESULT:    -8.306      0.000      0.000
REMARK INTER + INTRA:         -12.510
REMARK INTER:                 -11.462
REMARK INTRA:                  -1.049
REMARK UNBOUND:                -1.049
REMARK  Name = 
REMARK  7 active torsions:
REMARK  status: ('A' for Active; 'I' for Inactive)
REMARK    1  A    between atoms: N_1  and  C_2
REMARK    2  A    between atoms: C_2  and  C_3
REMARK    3  A    between atoms: C_2  and  C_25
REMARK    4  A    between atoms: C_3  and  N_4
REMARK    5  A    between atoms: C_8  and  C_9
REMARK    6  A    between atoms: C_9  and  N_10
REMARK    7  A    between atoms: C_11  and  C_13
REMARK                            x       y       z     vdW  Elec       q    Type
REMARK                         _______ _______ _______ _____ _____    ______ ____
ROOT
ATOM      1  N   UNL     1      43.784   4.362  10.125  0.00  0.00    +0.000 N 
ATOM      2  C   UNL     1      44.563   5.283  10.817  0.00  0.00    +0.000 A 
ATOM      3  C   UNL     1      44.268   5.566  12.154  0.00  0.00    +0.000 A 
ATOM      4  N   UNL     1      45.010   6.388  12.940  0.00  0.00    +0.000 NA
ATOM      5  C   UNL     1      46.090   6.941  12.334  0.00  0.00    +0.000 A 
ATOM      6  C   UNL     1      46.388   6.666  11.005  0.00  0.00    +0.000 A 
ATOM      7  N   UNL     1      45.639   5.845  10.231  0.00  0.00    +0.000 NA
ATOM      8  H   UNL     1      42.808   4.639  10.058  0.00  0.00    +0.000 HD
ENDROOT
BRANCH   1   9
ATOM      9  C   UNL     1      44.307   3.881   8.847  0.00  0.00    +0.000 C 
BRANCH   9  10
ATOM     10  C   UNL     1      45.272   2.699   9.132  0.00  0.00    +0.000 C 
BRANCH  10  11
ATOM     11  C   UNL     1      46.465   2.641   8.151  0.00  0.00    +0.000 C 
ATOM     12  C   UNL     1      46.196   3.420   6.859  0.00  0.00    +0.000 C 
ATOM     13  C   UNL     1      47.054   2.776   5.780  0.00  0.00    +0.000 C 
ATOM     14  C   UNL     1      47.480   1.414   6.310  0.00  0.00    +0.000 C 
ATOM     15  C   UNL     1      46.774   1.227   7.647  0.00  0.00    +0.000 C 
ENDBRANCH  10  11
BRANCH  10  16
ATOM     16  N   UNL     1      44.533   1.415   9.151  0.00  0.00    +0.000 NA
ATOM     17  H   UNL     1      44.193   1.212   8.212  0.00  0.00    +0.000 HD
ATOM     18  H   UNL     1      43.709   1.508   9.742  0.00  0.00    +0.000 HD
ENDBRANCH  10  16
ENDBRANCH   9  10
ENDBRANCH   1   9
BRANCH   5  19
ATOM     19  C   UNL     1      46.986   7.831  13.151  0.00  0.00    +0.000 C 
BRANCH  19  20
ATOM     20  N   UNL     1      47.393   7.214  14.394  0.00  0.00    +0.000 N 
ATOM     21  C   UNL     1      48.673   6.770  14.599  0.00  0.00    +0.000 C 
ATOM     22  O   UNL     1      49.545   6.902  13.743  0.00  0.00    +0.000 OA
ATOM     23  H   UNL     1      46.644   6.891  15.001  0.00  0.00    +0.000 HD
BRANCH  21  24
ATOM     24  C   UNL     1      48.970   6.184  15.911  0.00  0.00    +0.000 A 
ATOM     25  C   UNL     1      49.969   6.743  16.698  0.00  0.00    +0.000 A 
ATOM     26  S   UNL     1      50.164   5.972  18.207  0.00  0.00    +0.000 S 
ATOM     27  C   UNL     1      48.959   4.831  17.841  0.00  0.00    +0.000 A 
ATOM     28  N   UNL     1      48.648   3.842  18.720  0.00  0.00    +0.000 NA
ATOM     29  C   UNL     1      47.741   3.021  18.299  0.00  0.00    +0.000 A 
ATOM     30  N   UNL     1      47.110   3.106  17.083  0.00  0.00    +0.000 N 
ATOM     31  C   UNL     1      47.358   4.125  16.188  0.00  0.00    +0.000 A 
ATOM     32  O   UNL     1      46.716   4.228  15.148  0.00  0.00    +0.000 OA
ATOM     33  C   UNL     1      48.392   5.050  16.596  0.00  0.00    +0.000 A 
ATOM     34  H   UNL     1      46.400   2.447  16.819  0.00  0.00    +0.000 HD
ENDBRANCH  21  24
ENDBRANCH  19  20
ENDBRANCH   5  19
TORSDOF 7
ENDMDL
MODEL 2
REMARK VINA RESULT:    -7.178      4.796      8.941
REMARK INTER + INTRA:         -10.954
REMARK INTER:                  -9.906
REMARK INTRA:                  -1.048
REMARK UNBOUND:                -1.049
REMARK  Name = 
REMARK  7 active torsions:
REMARK  status: ('A' for Active; 'I' for Inactive)
REMARK    1  A    between atoms: N_1  and  C_2
REMARK    2  A    between atoms: C_2  and  C_3
REMARK    3  A    between atoms: C_2  and  C_25
REMARK    4  A    between atoms: C_3  and  N_4
REMARK    5  A    between atoms: C_8  and  C_9
REMARK    6  A    between atoms: C_9  and  N_10
REMARK    7  A    between atoms: C_11  and  C_13
REMARK                            x       y       z     vdW  Elec       q    Type
REMARK                         _______ _______ _______ _____ _____    ______ ____
ROOT
ATOM      1  N   UNL     1      51.503   0.796  17.440  0.00  0.00    +0.000 N 
ATOM      2  C   UNL     1      50.900   2.039  17.274  0.00  0.00    +0.000 A 
ATOM      3  C   UNL     1      49.574   2.107  16.839  0.00  0.00    +0.000 A 
ATOM      4  N   UNL     1      48.871   3.262  16.718  0.00  0.00    +0.000 NA
ATOM      5  C   UNL     1      49.551   4.387  17.055  0.00  0.00    +0.000 A 
ATOM      6  C   UNL     1      50.870   4.326  17.487  0.00  0.00    +0.000 A 
ATOM      7  N   UNL     1      51.562   3.166  17.601  0.00  0.00    +0.000 NA
ATOM      8  H   UNL     1      51.550   0.260  16.577  0.00  0.00    +0.000 HD
ENDROOT
BRANCH   1   9
ATOM      9  C   UNL     1      52.767   0.766  18.175  0.00  0.00    +0.000 C 
BRANCH   9  10
ATOM     10  C   UNL     1      53.925   0.682  17.144  0.00  0.00    +0.000 C 
BRANCH  10  11
ATOM     11  C   UNL     1      54.883  -0.502  17.406  0.00  0.00    +0.000 C 
ATOM     12  C   UNL     1      55.033  -1.412  16.181  0.00  0.00    +0.000 C 
ATOM     13  C   UNL     1      55.396  -2.791  16.710  0.00  0.00    +0.000 C 
ATOM     14  C   UNL     1      55.052  -2.799  18.194  0.00  0.00    +0.000 C 
ATOM     15  C   UNL     1      54.388  -1.462  18.493  0.00  0.00    +0.000 C 
ENDBRANCH  10  11
BRANCH  10  16
ATOM     16  N   UNL     1      54.664   1.965  17.087  0.00  0.00    +0.000 NA
ATOM     17  H   UNL     1      55.150   2.110  17.970  0.00  0.00    +0.000 HD
ATOM     18  H   UNL     1      54.003   2.733  16.992  0.00  0.00    +0.000 HD
ENDBRANCH  10  16
ENDBRANCH   9  10
ENDBRANCH   1   9
BRANCH   5  19
ATOM     19  C   UNL     1      48.827   5.703  16.989  0.00  0.00    +0.000 C 
BRANCH  19  20
ATOM     20  N   UNL     1      47.866   5.751  15.908  0.00  0.00    +0.000 N 
ATOM     21  C   UNL     1      48.197   6.212  14.662  0.00  0.00    +0.000 C 
ATOM     22  O   UNL     1      49.338   6.583  14.394  0.00  0.00    +0.000 OA
ATOM     23  H   UNL     1      46.888   5.676  16.175  0.00  0.00    +0.000 HD
BRANCH  21  24
ATOM     24  C   UNL     1      47.142   6.187  13.643  0.00  0.00    +0.000 A 
ATOM     25  C   UNL     1      46.706   7.380  13.081  0.00  0.00    +0.000 A 
ATOM     26  S   UNL     1      45.506   7.177  11.886  0.00  0.00    +0.000 S 
ATOM     27  C   UNL     1      45.487   5.493  12.115  0.00  0.00    +0.000 A 
ATOM     28  N   UNL     1      44.636   4.705  11.406  0.00  0.00    +0.000 NA
ATOM     29  C   UNL     1      44.699   3.448  11.706  0.00  0.00    +0.000 A 
ATOM     30  N   UNL     1      45.545   2.907  12.643  0.00  0.00    +0.000 N 
ATOM     31  C   UNL     1      46.461   3.664  13.341  0.00  0.00    +0.000 A 
ATOM     32  O   UNL     1      47.266   3.144  14.105  0.00  0.00    +0.000 OA
ATOM     33  C   UNL     1      46.405   5.085  13.068  0.00  0.00    +0.000 A 
ATOM     34  H   UNL     1      45.560   1.919  12.819  0.00  0.00    +0.000 HD
ENDBRANCH  21  24
ENDBRANCH  19  20
ENDBRANCH   5  19
TORSDOF 7
ENDMDL
MODEL 3
REMARK VINA RESULT:    -7.128      2.628      3.495
REMARK INTER + INTRA:         -10.885
REMARK INTER:                  -9.936
REMARK INTRA:                  -0.949
REMARK UNBOUND:                -1.049
REMARK  Name = 
REMARK  7 active torsions:
REMARK  status: ('A' for Active; 'I' for Inactive)
REMARK    1  A    between atoms: N_1  and  C_2
REMARK    2  A    between atoms: C_2  and  C_3
REMARK    3  A    between atoms: C_2  and  C_25
REMARK    4  A    between atoms: C_3  and  N_4
REMARK    5  A    between atoms: C_8  and  C_9
REMARK    6  A    between atoms: C_9  and  N_10
REMARK    7  A    between atoms: C_11  and  C_13
REMARK                            x       y       z     vdW  Elec       q    Type
REMARK                         _______ _______ _______ _____ _____    ______ ____
ROOT
ATOM      1  N   UNL     1      44.972   4.076  13.178  0.00  0.00    +0.000 N 
ATOM      2  C   UNL     1      45.955   5.024  13.446  0.00  0.00    +0.000 A 
ATOM      3  C   UNL     1      46.908   4.765  14.435  0.00  0.00    +0.000 A 
ATOM      4  N   UNL     1      47.950   5.587  14.722  0.00  0.00    +0.000 NA
ATOM      5  C   UNL     1      48.017   6.713  13.970  0.00  0.00    +0.000 A 
ATOM      6  C   UNL     1      47.072   6.978  12.986  0.00  0.00    +0.000 A 
ATOM      7  N   UNL     1      46.035   6.150  12.711  0.00  0.00    +0.000 NA
ATOM      8  H   UNL     1      44.377   3.883  13.980  0.00  0.00    +0.000 HD
ENDROOT
BRANCH   1   9
ATOM      9  C   UNL     1      44.198   4.255  11.950  0.00  0.00    +0.000 C 
BRANCH   9  10
ATOM     10  C   UNL     1      44.217   2.916  11.165  0.00  0.00    +0.000 C 
BRANCH  10  11
ATOM     11  C   UNL     1      44.419   3.109   9.645  0.00  0.00    +0.000 C 
ATOM     12  C   UNL     1      45.268   1.994   9.023  0.00  0.00    +0.000 C 
ATOM     13  C   UNL     1      45.934   2.594   7.793  0.00  0.00    +0.000 C 
ATOM     14  C   UNL     1      45.826   4.107   7.927  0.00  0.00    +0.000 C 
ATOM     15  C   UNL     1      45.198   4.379   9.287  0.00  0.00    +0.000 C 
ENDBRANCH  10  11
BRANCH  10  16
ATOM     16  N   UNL     1      42.994   2.129  11.446  0.00  0.00    +0.000 NA
ATOM     17  H   UNL     1      43.220   1.137  11.411  0.00  0.00    +0.000 HD
ATOM     18  H   UNL     1      42.309   2.295  10.711  0.00  0.00    +0.000 HD
ENDBRANCH  10  16
ENDBRANCH   9  10
ENDBRANCH   1   9
BRANCH   5  19
ATOM     19  C   UNL     1      49.167   7.654  14.198  0.00  0.00    +0.000 C 
BRANCH  19  20
ATOM     20  N   UNL     1      50.310   6.995  14.792  0.00  0.00    +0.000 N 
ATOM     21  C   UNL     1      51.088   7.605  15.740  0.00  0.00    +0.000 C 
ATOM     22  O   UNL     1      50.835   8.735  16.153  0.00  0.00    +0.000 OA
ATOM     23  H   UNL     1      50.663   6.178  14.300  0.00  0.00    +0.000 HD
BRANCH  21  24
ATOM     24  C   UNL     1      52.204   6.824  16.286  0.00  0.00    +0.000 A 
ATOM     25  C   UNL     1      53.502   7.298  16.148  0.00  0.00    +0.000 A 
ATOM     26  S   UNL     1      54.679   6.296  16.870  0.00  0.00    +0.000 S 
ATOM     27  C   UNL     1      53.502   5.165  17.344  0.00  0.00    +0.000 A 
ATOM     28  N   UNL     1      53.856   4.026  17.996  0.00  0.00    +0.000 NA
ATOM     29  C   UNL     1      52.867   3.236  18.264  0.00  0.00    +0.000 A 
ATOM     30  N   UNL     1      51.555   3.490  17.949  0.00  0.00    +0.000 N 
ATOM     31  C   UNL     1      51.149   4.657  17.340  0.00  0.00    +0.000 A 
ATOM     32  O   UNL     1      49.962   4.898  17.152  0.00  0.00    +0.000 OA
ATOM     33  C   UNL     1      52.224   5.559  16.985  0.00  0.00    +0.000 A 
ATOM     34  H   UNL     1      50.828   2.844  18.200  0.00  0.00    +0.000 HD
ENDBRANCH  21  24
ENDBRANCH  19  20
ENDBRANCH   5  19
TORSDOF 7
ENDMDL
MODEL 4
REMARK VINA RESULT:    -7.019      1.805      2.233
REMARK INTER + INTRA:         -10.734
REMARK INTER:                  -9.829
REMARK INTRA:                  -0.905
REMARK UNBOUND:                -1.049
REMARK  Name = 
REMARK  7 active torsions:
REMARK  status: ('A' for Active; 'I' for Inactive)
REMARK    1  A    between atoms: N_1  and  C_2
REMARK    2  A    between atoms: C_2  and  C_3
REMARK    3  A    between atoms: C_2  and  C_25
REMARK    4  A    between atoms: C_3  and  N_4
REMARK    5  A    between atoms: C_8  and  C_9
REMARK    6  A    between atoms: C_9  and  N_10
REMARK    7  A    between atoms: C_11  and  C_13
REMARK                            x       y       z     vdW  Elec       q    Type
REMARK                         _______ _______ _______ _____ _____    ______ ____
ROOT
ATOM      1  N   UNL     1      45.056   3.243  11.691  0.00  0.00    +0.000 N 
ATOM      2  C   UNL     1      45.822   4.235  12.295  0.00  0.00    +0.000 A 
ATOM      3  C   UNL     1      46.457   3.968  13.511  0.00  0.00    +0.000 A 
ATOM      4  N   UNL     1      47.285   4.838  14.144  0.00  0.00    +0.000 NA
ATOM      5  C   UNL     1      47.469   6.022  13.509  0.00  0.00    +0.000 A 
ATOM      6  C   UNL     1      46.839   6.295  12.301  0.00  0.00    +0.000 A 
ATOM      7  N   UNL     1      46.012   5.419  11.680  0.00  0.00    +0.000 NA
ATOM      8  H   UNL     1      44.270   2.944  12.262  0.00  0.00    +0.000 HD
ENDROOT
BRANCH   1   9
ATOM      9  C   UNL     1      44.669   3.462  10.297  0.00  0.00    +0.000 C 
BRANCH   9  10
ATOM     10  C   UNL     1      45.034   2.189   9.487  0.00  0.00    +0.000 C 
BRANCH  10  11
ATOM     11  C   UNL     1      45.539   2.504   8.060  0.00  0.00    +0.000 C 
ATOM     12  C   UNL     1      46.739   1.637   7.662  0.00  0.00    +0.000 C 
ATOM     13  C   UNL     1      47.522   2.434   6.629  0.00  0.00    +0.000 C 
ATOM     14  C   UNL     1      47.048   3.877   6.733  0.00  0.00    +0.000 C 
ATOM     15  C   UNL     1      46.073   3.931   7.901  0.00  0.00    +0.000 C 
ENDBRANCH  10  11
BRANCH  10  16
ATOM     16  N   UNL     1      43.891   1.247   9.453  0.00  0.00    +0.000 NA
ATOM     17  H   UNL     1      44.201   0.360   9.059  0.00  0.00    +0.000 HD
ATOM     18  H   UNL     1      43.174   1.607   8.825  0.00  0.00    +0.000 HD
ENDBRANCH  10  16
ENDBRANCH   9  10
ENDBRANCH   1   9
BRANCH   5  19
ATOM     19  C   UNL     1      48.406   7.023  14.127  0.00  0.00    +0.000 C 
BRANCH  19  20
ATOM     20  N   UNL     1      48.412   6.955  15.572  0.00  0.00    +0.000 N 
ATOM     21  C   UNL     1      49.572   7.016  16.297  0.00  0.00    +0.000 C 
ATOM     22  O   UNL     1      50.665   7.159  15.753  0.00  0.00    +0.000 OA
ATOM     23  H   UNL     1      47.562   6.605  16.008  0.00  0.00    +0.000 HD
BRANCH  21  24
ATOM     24  C   UNL     1      49.446   6.962  17.758  0.00  0.00    +0.000 A 
ATOM     25  C   UNL     1      49.701   8.103  18.508  0.00  0.00    +0.000 A 
ATOM     26  S   UNL     1      49.473   7.887  20.184  0.00  0.00    +0.000 S 
ATOM     27  C   UNL     1      49.078   6.247  19.973  0.00  0.00    +0.000 A 
ATOM     28  N   UNL     1      48.798   5.457  21.043  0.00  0.00    +0.000 NA
ATOM     29  C   UNL     1      48.552   4.222  20.743  0.00  0.00    +0.000 A 
ATOM     30  N   UNL     1      48.550   3.711  19.469  0.00  0.00    +0.000 N 
ATOM     31  C   UNL     1      48.773   4.491  18.355  0.00  0.00    +0.000 A 
ATOM     32  O   UNL     1      48.676   4.028  17.224  0.00  0.00    +0.000 OA
ATOM     33  C   UNL     1      49.090   5.874  18.640  0.00  0.00    +0.000 A 
ATOM     34  H   UNL     1      48.333   2.745  19.299  0.00  0.00    +0.000 HD
ENDBRANCH  21  24
ENDBRANCH  19  20
ENDBRANCH   5  19
TORSDOF 7
ENDMDL
MODEL 5
REMARK VINA RESULT:    -6.734      3.828      4.614
REMARK INTER + INTRA:         -10.342
REMARK INTER:                  -9.446
REMARK INTRA:                  -0.896
REMARK UNBOUND:                -1.049
REMARK  Name = 
REMARK  7 active torsions:
REMARK  status: ('A' for Active; 'I' for Inactive)
REMARK    1  A    between atoms: N_1  and  C_2
REMARK    2  A    between atoms: C_2  and  C_3
REMARK    3  A    between atoms: C_2  and  C_25
REMARK    4  A    between atoms: C_3  and  N_4
REMARK    5  A    between atoms: C_8  and  C_9
REMARK    6  A    between atoms: C_9  and  N_10
REMARK    7  A    between atoms: C_11  and  C_13
REMARK                            x       y       z     vdW  Elec       q    Type
REMARK                         _______ _______ _______ _____ _____    ______ ____
ROOT
ATOM      1  N   UNL     1      44.401   3.441  11.150  0.00  0.00    +0.000 N 
ATOM      2  C   UNL     1      44.668   4.750  11.539  0.00  0.00    +0.000 A 
ATOM      3  C   UNL     1      44.058   5.265  12.686  0.00  0.00    +0.000 A 
ATOM      4  N   UNL     1      44.308   6.499  13.193  0.00  0.00    +0.000 NA
ATOM      5  C   UNL     1      45.214   7.232  12.500  0.00  0.00    +0.000 A 
ATOM      6  C   UNL     1      45.824   6.727  11.357  0.00  0.00    +0.000 A 
ATOM      7  N   UNL     1      45.564   5.494  10.860  0.00  0.00    +0.000 NA
ATOM      8  H   UNL     1      43.419   3.282  10.940  0.00  0.00    +0.000 HD
ENDROOT
BRANCH   1   9
ATOM      9  C   UNL     1      45.281   2.859  10.138  0.00  0.00    +0.000 C 
BRANCH   9  10
ATOM     10  C   UNL     1      44.554   2.926   8.767  0.00  0.00    +0.000 C 
BRANCH  10  11
ATOM     11  C   UNL     1      45.420   2.407   7.597  0.00  0.00    +0.000 C 
ATOM     12  C   UNL     1      46.412   1.326   8.040  0.00  0.00    +0.000 C 
ATOM     13  C   UNL     1      47.579   1.387   7.065  0.00  0.00    +0.000 C 
ATOM     14  C   UNL     1      47.482   2.724   6.344  0.00  0.00    +0.000 C 
ATOM     15  C   UNL     1      46.325   3.480   6.983  0.00  0.00    +0.000 C 
ENDBRANCH  10  11
BRANCH  10  16
ATOM     16  N   UNL     1      44.066   4.299   8.503  0.00  0.00    +0.000 NA
ATOM     17  H   UNL     1      44.837   4.955   8.615  0.00  0.00    +0.000 HD
ATOM     18  H   UNL     1      43.369   4.552   9.202  0.00  0.00    +0.000 HD
ENDBRANCH  10  16
ENDBRANCH   9  10
ENDBRANCH   1   9
BRANCH   5  19
ATOM     19  C   UNL     1      45.577   8.595  13.022  0.00  0.00    +0.000 C 
BRANCH  19  20
ATOM     20  N   UNL     1      47.007   8.808  13.061  0.00  0.00    +0.000 N 
ATOM     21  C   UNL     1      47.586   9.943  12.558  0.00  0.00    +0.000 C 
ATOM     22  O   UNL     1      46.912  10.850  12.073  0.00  0.00    +0.000 OA
ATOM     23  H   UNL     1      47.579   7.986  13.236  0.00  0.00    +0.000 HD
BRANCH  21  24
ATOM     24  C   UNL     1      49.044  10.055  12.679  0.00  0.00    +0.000 A 
ATOM     25  C   UNL     1      49.593  11.139  13.352  0.00  0.00    +0.000 A 
ATOM     26  S   UNL     1      51.295  11.102  13.439  0.00  0.00    +0.000 S 
ATOM     27  C   UNL     1      51.364   9.665  12.535  0.00  0.00    +0.000 A 
ATOM     28  N   UNL     1      52.559   9.099  12.218  0.00  0.00    +0.000 NA
ATOM     29  C   UNL     1      52.467   8.030  11.494  0.00  0.00    +0.000 A 
ATOM     30  N   UNL     1      51.287   7.471  11.069  0.00  0.00    +0.000 N 
ATOM     31  C   UNL     1      50.056   7.982  11.415  0.00  0.00    +0.000 A 
ATOM     32  O   UNL     1      49.018   7.412  11.097  0.00  0.00    +0.000 OA
ATOM     33  C   UNL     1      50.104   9.201  12.195  0.00  0.00    +0.000 A 
ATOM     34  H   UNL     1      51.281   6.629  10.522  0.00  0.00    +0.000 HD
ENDBRANCH  21  24
ENDBRANCH  19  20
ENDBRANCH   5  19
TORSDOF 7
ENDMDL
MODEL 6
REMARK VINA RESULT:    -6.726      5.145      7.086
REMARK INTER + INTRA:         -10.330
REMARK INTER:                  -9.554
REMARK INTRA:                  -0.776
REMARK UNBOUND:                -1.049
REMARK  Name = 
REMARK  7 active torsions:
REMARK  status: ('A' for Active; 'I' for Inactive)
REMARK    1  A    between atoms: N_1  and  C_2
REMARK    2  A    between atoms: C_2  and  C_3
REMARK    3  A    between atoms: C_2  and  C_25
REMARK    4  A    between atoms: C_3  and  N_4
REMARK    5  A    between atoms: C_8  and  C_9
REMARK    6  A    between atoms: C_9  and  N_10
REMARK    7  A    between atoms: C_11  and  C_13
REMARK                            x       y       z     vdW  Elec       q    Type
REMARK                         _______ _______ _______ _____ _____    ______ ____
ROOT
ATOM      1  N   UNL     1      45.205   4.918  12.745  0.00  0.00    +0.000 N 
ATOM      2  C   UNL     1      46.352   5.704  12.708  0.00  0.00    +0.000 A 
ATOM      3  C   UNL     1      47.334   5.534  13.688  0.00  0.00    +0.000 A 
ATOM      4  N   UNL     1      48.520   6.194  13.701  0.00  0.00    +0.000 NA
ATOM      5  C   UNL     1      48.707   7.059  12.673  0.00  0.00    +0.000 A 
ATOM      6  C   UNL     1      47.734   7.235  11.696  0.00  0.00    +0.000 A 
ATOM      7  N   UNL     1      46.553   6.571  11.696  0.00  0.00    +0.000 NA
ATOM      8  H   UNL     1      44.661   5.048  13.594  0.00  0.00    +0.000 HD
ENDROOT
BRANCH   1   9
ATOM      9  C   UNL     1      44.364   4.919  11.548  0.00  0.00    +0.000 C 
BRANCH   9  10
ATOM     10  C   UNL     1      44.271   3.462  11.020  0.00  0.00    +0.000 C 
BRANCH  10  11
ATOM     11  C   UNL     1      44.524   3.353   9.498  0.00  0.00    +0.000 C 
ATOM     12  C   UNL     1      45.290   2.079   9.125  0.00  0.00    +0.000 C 
ATOM     13  C   UNL     1      46.032   2.386   7.832  0.00  0.00    +0.000 C 
ATOM     14  C   UNL     1      46.048   3.901   7.682  0.00  0.00    +0.000 C 
ATOM     15  C   UNL     1      45.414   4.470   8.944  0.00  0.00    +0.000 C 
ENDBRANCH  10  11
BRANCH  10  16
ATOM     16  N   UNL     1      42.972   2.854  11.390  0.00  0.00    +0.000 NA
ATOM     17  H   UNL     1      42.801   2.044  10.797  0.00  0.00    +0.000 HD
ATOM     18  H   UNL     1      42.222   3.516  11.198  0.00  0.00    +0.000 HD
ENDBRANCH  10  16
ENDBRANCH   9  10
ENDBRANCH   1   9
BRANCH   5  19
ATOM     19  C   UNL     1      50.014   7.798  12.593  0.00  0.00    +0.000 C 
BRANCH  19  20
ATOM     20  N   UNL     1      50.766   7.463  11.403  0.00  0.00    +0.000 N 
ATOM     21  C   UNL     1      52.030   7.942  11.183  0.00  0.00    +0.000 C 
ATOM     22  O   UNL     1      52.598   8.661  12.003  0.00  0.00    +0.000 OA
ATOM     23  H   UNL     1      50.231   7.077  10.629  0.00  0.00    +0.000 HD
BRANCH  21  24
ATOM     24  C   UNL     1      52.699   7.510   9.952  0.00  0.00    +0.000 A 
ATOM     25  C   UNL     1      53.125   6.194   9.830  0.00  0.00    +0.000 A 
ATOM     26  S   UNL     1      53.848   5.842   8.326  0.00  0.00    +0.000 S 
ATOM     27  C   UNL     1      53.668   7.449   7.803  0.00  0.00    +0.000 A 
ATOM     28  N   UNL     1      54.120   7.837   6.582  0.00  0.00    +0.000 NA
ATOM     29  C   UNL     1      53.953   9.095   6.327  0.00  0.00    +0.000 A 
ATOM     30  N   UNL     1      53.364   9.996   7.179  0.00  0.00    +0.000 N 
ATOM     31  C   UNL     1      52.842   9.630   8.401  0.00  0.00    +0.000 A 
ATOM     32  O   UNL     1      52.241  10.436   9.103  0.00  0.00    +0.000 OA
ATOM     33  C   UNL     1      53.037   8.239   8.750  0.00  0.00    +0.000 A 
ATOM     34  H   UNL     1      53.247  10.958   6.916  0.00  0.00    +0.000 HD
ENDBRANCH  21  24
ENDBRANCH  19  20
ENDBRANCH   5  19
TORSDOF 7
ENDMDL
MODEL 7
REMARK VINA RESULT:    -6.576      3.885      9.127
REMARK INTER + INTRA:         -10.123
REMARK INTER:                  -9.007
REMARK INTRA:                  -1.116
REMARK UNBOUND:                -1.049
REMARK  Name = 
REMARK  7 active torsions:
REMARK  status: ('A' for Active; 'I' for Inactive)
REMARK    1  A    between atoms: N_1  and  C_2
REMARK    2  A    between atoms: C_2  and  C_3
REMARK    3  A    between atoms: C_2  and  C_25
REMARK    4  A    between atoms: C_3  and  N_4
REMARK    5  A    between atoms: C_8  and  C_9
REMARK    6  A    between atoms: C_9  and  N_10
REMARK    7  A    between atoms: C_11  and  C_13
REMARK                            x       y       z     vdW  Elec       q    Type
REMARK                         _______ _______ _______ _____ _____    ______ ____
ROOT
ATOM      1  N   UNL     1      52.632   3.104  18.021  0.00  0.00    +0.000 N 
ATOM      2  C   UNL     1      51.285   3.230  17.696  0.00  0.00    +0.000 A 
ATOM      3  C   UNL     1      50.638   2.186  17.030  0.00  0.00    +0.000 A 
ATOM      4  N   UNL     1      49.313   2.176  16.734  0.00  0.00    +0.000 NA
ATOM      5  C   UNL     1      48.627   3.276  17.135  0.00  0.00    +0.000 A 
ATOM      6  C   UNL     1      49.264   4.319  17.796  0.00  0.00    +0.000 A 
ATOM      7  N   UNL     1      50.589   4.317  18.083  0.00  0.00    +0.000 NA
ATOM      8  H   UNL     1      53.229   2.990  17.206  0.00  0.00    +0.000 HD
ENDROOT
BRANCH   1   9
ATOM      9  C   UNL     1      53.177   4.075  18.969  0.00  0.00    +0.000 C 
BRANCH   9  10
ATOM     10  C   UNL     1      54.351   4.820  18.277  0.00  0.00    +0.000 C 
BRANCH  10  11
ATOM     11  C   UNL     1      53.956   6.222  17.758  0.00  0.00    +0.000 C 
ATOM     12  C   UNL     1      52.918   6.905  18.656  0.00  0.00    +0.000 C 
ATOM     13  C   UNL     1      52.149   7.871  17.768  0.00  0.00    +0.000 C 
ATOM     14  C   UNL     1      52.429   7.464  16.328  0.00  0.00    +0.000 C 
ATOM     15  C   UNL     1      53.268   6.196  16.390  0.00  0.00    +0.000 C 
ENDBRANCH  10  11
BRANCH  10  16
ATOM     16  N   UNL     1      54.928   3.992  17.193  0.00  0.00    +0.000 NA
ATOM     17  H   UNL     1      55.923   4.193  17.113  0.00  0.00    +0.000 HD
ATOM     18  H   UNL     1      54.508   4.258  16.304  0.00  0.00    +0.000 HD
ENDBRANCH  10  16
ENDBRANCH   9  10
ENDBRANCH   1   9
BRANCH   5  19
ATOM     19  C   UNL     1      47.146   3.322  16.882  0.00  0.00    +0.000 C 
BRANCH  19  20
ATOM     20  N   UNL     1      46.784   4.330  15.908  0.00  0.00    +0.000 N 
ATOM     21  C   UNL     1      46.860   4.097  14.561  0.00  0.00    +0.000 C 
ATOM     22  O   UNL     1      47.214   3.008  14.114  0.00  0.00    +0.000 OA
ATOM     23  H   UNL     1      46.721   5.284  16.253  0.00  0.00    +0.000 HD
BRANCH  21  24
ATOM     24  C   UNL     1      46.441   5.188  13.674  0.00  0.00    +0.000 A 
ATOM     25  C   UNL     1      47.301   6.254  13.447  0.00  0.00    +0.000 A 
ATOM     26  S   UNL     1      46.683   7.417  12.364  0.00  0.00    +0.000 S 
ATOM     27  C   UNL     1      45.221   6.567  12.201  0.00  0.00    +0.000 A 
ATOM     28  N   UNL     1      44.219   7.049  11.420  0.00  0.00    +0.000 NA
ATOM     29  C   UNL     1      43.148   6.322  11.416  0.00  0.00    +0.000 A 
ATOM     30  N   UNL     1      42.995   5.150  12.114  0.00  0.00    +0.000 N 
ATOM     31  C   UNL     1      44.006   4.599  12.871  0.00  0.00    +0.000 A 
ATOM     32  O   UNL     1      43.873   3.506  13.411  0.00  0.00    +0.000 OA
ATOM     33  C   UNL     1      45.213   5.394  12.939  0.00  0.00    +0.000 A 
ATOM     34  H   UNL     1      42.144   4.620  12.056  0.00  0.00    +0.000 HD
ENDBRANCH  21  24
ENDBRANCH  19  20
ENDBRANCH   5  19
TORSDOF 7
ENDMDL
MODEL 8
REMARK VINA RESULT:    -6.574      2.981      8.498
REMARK INTER + INTRA:         -10.120
REMARK INTER:                  -9.334
REMARK INTRA:                  -0.786
REMARK UNBOUND:                -1.049
REMARK  Name = 
REMARK  7 active torsions:
REMARK  status: ('A' for Active; 'I' for Inactive)
REMARK    1  A    between atoms: N_1  and  C_2
REMARK    2  A    between atoms: C_2  and  C_3
REMARK    3  A    between atoms: C_2  and  C_25
REMARK    4  A    between atoms: C_3  and  N_4
REMARK    5  A    between atoms: C_8  and  C_9
REMARK    6  A    between atoms: C_9  and  N_10
REMARK    7  A    between atoms: C_11  and  C_13
REMARK                            x       y       z     vdW  Elec       q    Type
REMARK                         _______ _______ _______ _____ _____    ______ ____
ROOT
ATOM      1  N   UNL     1      51.165   7.019  16.331  0.00  0.00    +0.000 N 
ATOM      2  C   UNL     1      50.169   7.187  15.375  0.00  0.00    +0.000 A 
ATOM      3  C   UNL     1      50.223   8.284  14.510  0.00  0.00    +0.000 A 
ATOM      4  N   UNL     1      49.346   8.499  13.497  0.00  0.00    +0.000 NA
ATOM      5  C   UNL     1      48.379   7.556  13.364  0.00  0.00    +0.000 A 
ATOM      6  C   UNL     1      48.318   6.464  14.221  0.00  0.00    +0.000 A 
ATOM      7  N   UNL     1      49.199   6.262  15.231  0.00  0.00    +0.000 NA
ATOM      8  H   UNL     1      51.215   7.790  16.992  0.00  0.00    +0.000 HD
ENDROOT
BRANCH   1   9
ATOM      9  C   UNL     1      51.231   5.718  16.996  0.00  0.00    +0.000 C 
BRANCH   9  10
ATOM     10  C   UNL     1      50.401   5.802  18.306  0.00  0.00    +0.000 C 
BRANCH  10  11
ATOM     11  C   UNL     1      49.361   4.666  18.436  0.00  0.00    +0.000 C 
ATOM     12  C   UNL     1      49.640   3.507  17.472  0.00  0.00    +0.000 C 
ATOM     13  C   UNL     1      48.300   2.837  17.205  0.00  0.00    +0.000 C 
ATOM     14  C   UNL     1      47.221   3.816  17.646  0.00  0.00    +0.000 C 
ATOM     15  C   UNL     1      47.937   5.093  18.063  0.00  0.00    +0.000 C 
ENDBRANCH  10  11
BRANCH  10  16
ATOM     16  N   UNL     1      49.758   7.131  18.432  0.00  0.00    +0.000 NA
ATOM     17  H   UNL     1      49.439   7.258  19.391  0.00  0.00    +0.000 HD
ATOM     18  H   UNL     1      48.927   7.162  17.845  0.00  0.00    +0.000 HD
ENDBRANCH  10  16
ENDBRANCH   9  10
ENDBRANCH   1   9
BRANCH   5  19
ATOM     19  C   UNL     1      47.394   7.701  12.237  0.00  0.00    +0.000 C 
BRANCH  19  20
ATOM     20  N   UNL     1      46.711   6.461  11.939  0.00  0.00    +0.000 N 
ATOM     21  C   UNL     1      45.361   6.412  11.712  0.00  0.00    +0.000 C 
ATOM     22  O   UNL     1      44.668   7.427  11.723  0.00  0.00    +0.000 OA
ATOM     23  H   UNL     1      47.217   5.606  12.158  0.00  0.00    +0.000 HD
BRANCH  21  24
ATOM     24  C   UNL     1      44.788   5.099  11.394  0.00  0.00    +0.000 A 
ATOM     25  C   UNL     1      44.006   4.447  12.338  0.00  0.00    +0.000 A 
ATOM     26  S   UNL     1      43.384   2.953  11.801  0.00  0.00    +0.000 S 
ATOM     27  C   UNL     1      44.182   3.097  10.307  0.00  0.00    +0.000 A 
ATOM     28  N   UNL     1      44.090   2.114   9.372  0.00  0.00    +0.000 NA
ATOM     29  C   UNL     1      44.777   2.335   8.298  0.00  0.00    +0.000 A 
ATOM     30  N   UNL     1      45.538   3.455   8.071  0.00  0.00    +0.000 N 
ATOM     31  C   UNL     1      45.612   4.497   8.969  0.00  0.00    +0.000 A 
ATOM     32  O   UNL     1      46.227   5.524   8.703  0.00  0.00    +0.000 OA
ATOM     33  C   UNL     1      44.890   4.283  10.205  0.00  0.00    +0.000 A 
ATOM     34  H   UNL     1      46.036   3.576   7.207  0.00  0.00    +0.000 HD
ENDBRANCH  21  24
ENDBRANCH  19  20
ENDBRANCH   5  19
TORSDOF 7
ENDMDL
MODEL 9
REMARK VINA RESULT:    -6.527      5.228      6.948
REMARK INTER + INTRA:         -10.056
REMARK INTER:                  -9.136
REMARK INTRA:                  -0.920
REMARK UNBOUND:                -1.049
REMARK  Name = 
REMARK  7 active torsions:
REMARK  status: ('A' for Active; 'I' for Inactive)
REMARK    1  A    between atoms: N_1  and  C_2
REMARK    2  A    between atoms: C_2  and  C_3
REMARK    3  A    between atoms: C_2  and  C_25
REMARK    4  A    between atoms: C_3  and  N_4
REMARK    5  A    between atoms: C_8  and  C_9
REMARK    6  A    between atoms: C_9  and  N_10
REMARK    7  A    between atoms: C_11  and  C_13
REMARK                            x       y       z     vdW  Elec       q    Type
REMARK                         _______ _______ _______ _____ _____    ______ ____
ROOT
ATOM      1  N   UNL     1      45.567   5.377  12.551  0.00  0.00    +0.000 N 
ATOM      2  C   UNL     1      46.757   6.097  12.504  0.00  0.00    +0.000 A 
ATOM      3  C   UNL     1      47.742   5.861  13.467  0.00  0.00    +0.000 A 
ATOM      4  N   UNL     1      48.964   6.453  13.467  0.00  0.00    +0.000 NA
ATOM      5  C   UNL     1      49.184   7.316  12.444  0.00  0.00    +0.000 A 
ATOM      6  C   UNL     1      48.209   7.556  11.484  0.00  0.00    +0.000 A 
ATOM      7  N   UNL     1      46.991   6.961  11.497  0.00  0.00    +0.000 NA
ATOM      8  H   UNL     1      45.045   5.530  13.410  0.00  0.00    +0.000 HD
ENDROOT
BRANCH   1   9
ATOM      9  C   UNL     1      44.710   5.437  11.368  0.00  0.00    +0.000 C 
BRANCH   9  10
ATOM     10  C   UNL     1      44.239   3.995  11.037  0.00  0.00    +0.000 C 
BRANCH  10  11
ATOM     11  C   UNL     1      44.465   3.609   9.557  0.00  0.00    +0.000 C 
ATOM     12  C   UNL     1      45.107   2.225   9.407  0.00  0.00    +0.000 C 
ATOM     13  C   UNL     1      45.861   2.241   8.086  0.00  0.00    +0.000 C 
ATOM     14  C   UNL     1      46.016   3.701   7.684  0.00  0.00    +0.000 C 
ATOM     15  C   UNL     1      45.450   4.530   8.829  0.00  0.00    +0.000 C 
ENDBRANCH  10  11
BRANCH  10  16
ATOM     16  N   UNL     1      42.822   3.807  11.428  0.00  0.00    +0.000 NA
ATOM     17  H   UNL     1      42.718   2.898  11.877  0.00  0.00    +0.000 HD
ATOM     18  H   UNL     1      42.241   3.783  10.592  0.00  0.00    +0.000 HD
ENDBRANCH  10  16
ENDBRANCH   9  10
ENDBRANCH   1   9
BRANCH   5  19
ATOM     19  C   UNL     1      50.530   7.980  12.350  0.00  0.00    +0.000 C 
BRANCH  19  20
ATOM     20  N   UNL     1      51.117   7.853  11.033  0.00  0.00    +0.000 N 
ATOM     21  C   UNL     1      52.260   8.521  10.681  0.00  0.00    +0.000 C 
ATOM     22  O   UNL     1      52.858   9.240  11.478  0.00  0.00    +0.000 OA
ATOM     23  H   UNL     1      50.518   7.463  10.310  0.00  0.00    +0.000 HD
BRANCH  21  24
ATOM     24  C   UNL     1      52.772   8.291   9.325  0.00  0.00    +0.000 A 
ATOM     25  C   UNL     1      52.769   9.333   8.407  0.00  0.00    +0.000 A 
ATOM     26  S   UNL     1      53.432   8.915   6.893  0.00  0.00    +0.000 S 
ATOM     27  C   UNL     1      53.697   7.311   7.391  0.00  0.00    +0.000 A 
ATOM     28  N   UNL     1      54.225   6.396   6.536  0.00  0.00    +0.000 NA
ATOM     29  C   UNL     1      54.337   5.206   7.032  0.00  0.00    +0.000 A 
ATOM     30  N   UNL     1      53.979   4.853   8.309  0.00  0.00    +0.000 N 
ATOM     31  C   UNL     1      53.492   5.763   9.223  0.00  0.00    +0.000 A 
ATOM     32  O   UNL     1      53.265   5.440  10.384  0.00  0.00    +0.000 OA
ATOM     33  C   UNL     1      53.313   7.103   8.705  0.00  0.00    +0.000 A 
ATOM     34  H   UNL     1      54.106   3.914   8.643  0.00  0.00    +0.000 HD
ENDBRANCH  21  24
ENDBRANCH  19  20
ENDBRANCH   5  19
TORSDOF 7
ENDMDL
