MODEL 1
REMARK VINA RESULT:    -7.996      0.000      0.000
REMARK INTER + INTRA:         -13.062
REMARK INTER:                 -11.736
REMARK INTRA:                  -1.326
REMARK UNBOUND:                -1.326
REMARK  Name = 
REMARK  10 active torsions:
REMARK  status: ('A' for Active; 'I' for Inactive)
REMARK    1  A    between atoms: C_1  and  O_2
REMARK    2  A    between atoms: O_2  and  C_3
REMARK    3  A    between atoms: C_10  and  C_11
REMARK    4  A    between atoms: N_13  and  C_14
REMARK    5  A    between atoms: C_14  and  C_15
REMARK    6  A    between atoms: C_18  and  C_19
REMARK    7  A    between atoms: C_19  and  N_20
REMARK    8  A    between atoms: N_20  and  C_21
REMARK    9  A    between atoms: N_20  and  C_22
REMARK   10  A    between atoms: C_22  and  C_23
REMARK                            x       y       z     vdW  Elec       q    Type
REMARK                         _______ _______ _______ _____ _____    ______ ____
ROOT
ATOM      1  C   UNL     1      47.071   8.337  13.315  0.00  0.00    +0.000 C 
ENDROOT
BRANCH   1   2
ATOM      2  C   UNL     1      46.264   7.382  12.474  0.00  0.00    +0.000 A 
ATOM      3  C   UNL     1      46.904   6.495  11.597  0.00  0.00    +0.000 A 
ATOM      4  C   UNL     1      46.159   5.622  10.801  0.00  0.00    +0.000 A 
ATOM      5  C   UNL     1      44.759   5.607  10.875  0.00  0.00    +0.000 A 
ATOM      6  C   UNL     1      44.119   6.522  11.722  0.00  0.00    +0.000 A 
ATOM      7  C   UNL     1      44.864   7.405  12.509  0.00  0.00    +0.000 A 
BRANCH   5   8
ATOM      8  C   UNL     1      43.951   4.606  10.070  0.00  0.00    +0.000 C 
BRANCH   8   9
ATOM      9  N   UNL     1      44.338   3.200  10.328  0.00  0.00    +0.000 NA
ATOM     10  C   UNL     1      43.483   2.600  11.362  0.00  0.00    +0.000 C 
BRANCH   9  11
ATOM     11  C   UNL     1      44.214   2.397   9.089  0.00  0.00    +0.000 C 
BRANCH  11  12
ATOM     12  C   UNL     1      45.467   2.326   8.232  0.00  0.00    +0.000 A 
ATOM     13  C   UNL     1      45.926   3.453   7.553  0.00  0.00    +0.000 A 
ATOM     14  C   UNL     1      47.116   3.366   6.833  0.00  0.00    +0.000 A 
ATOM     15  C   UNL     1      47.806   2.161   6.799  0.00  0.00    +0.000 A 
ATOM     16  C   UNL     1      47.269   1.082   7.480  0.00  0.00    +0.000 A 
ATOM     17  N   UNL     1      46.122   1.136   8.193  0.00  0.00    +0.000 NA
ENDBRANCH  11  12
ENDBRANCH   9  11
ENDBRANCH   8   9
ENDBRANCH   5   8
ENDBRANCH   1   2
BRANCH   1  20
ATOM     18  C   UNL     1      48.769   7.076  14.581  0.00  0.00    +0.000 C 
ATOM     19  O   UNL     1      49.528   7.053  13.613  0.00  0.00    +0.000 OA
ATOM     20  N   UNL     1      47.544   7.682  14.508  0.00  0.00    +0.000 N 
ATOM     21  H   UNL     1      46.922   7.669  15.305  0.00  0.00    +0.000 HD
BRANCH  18  29
ATOM     22  C   UNL     1      47.489   4.421  16.368  0.00  0.00    +0.000 A 
ATOM     23  N   UNL     1      47.212   3.437  17.247  0.00  0.00    +0.000 NA
ATOM     24  C   UNL     1      47.971   3.338  18.343  0.00  0.00    +0.000 A 
ATOM     25  N   UNL     1      48.994   4.117  18.676  0.00  0.00    +0.000 NA
ATOM     26  C   UNL     1      49.244   5.077  17.770  0.00  0.00    +0.000 A 
ATOM     27  S   UNL     1      50.516   6.168  18.038  0.00  0.00    +0.000 S 
ATOM     28  C   UNL     1      50.195   6.979  16.580  0.00  0.00    +0.000 A 
ATOM     29  C   UNL     1      49.132   6.447  15.860  0.00  0.00    +0.000 A 
ATOM     30  C   UNL     1      48.559   5.309  16.581  0.00  0.00    +0.000 A 
BRANCH  22  32
ATOM     31  C   UNL     1      47.177   3.641  14.190  0.00  0.00    +0.000 C 
ATOM     32  O   UNL     1      46.713   4.502  15.232  0.00  0.00    +0.000 OA
ENDBRANCH  22  32
ENDBRANCH  18  29
ENDBRANCH   1  20
TORSDOF 8
ENDMDL
MODEL 2
REMARK VINA RESULT:    -7.554      1.550      2.087
REMARK INTER + INTRA:         -12.413
REMARK INTER:                 -11.181
REMARK INTRA:                  -1.232
REMARK UNBOUND:                -1.326
REMARK  Name = 
REMARK  10 active torsions:
REMARK  status: ('A' for Active; 'I' for Inactive)
REMARK    1  A    between atoms: C_1  and  O_2
REMARK    2  A    between atoms: O_2  and  C_3
REMARK    3  A    between atoms: C_10  and  C_11
REMARK    4  A    between atoms: N_13  and  C_14
REMARK    5  A    between atoms: C_14  and  C_15
REMARK    6  A    between atoms: C_18  and  C_19
REMARK    7  A    between atoms: C_19  and  N_20
REMARK    8  A    between atoms: N_20  and  C_21
REMARK    9  A    between atoms: N_20  and  C_22
REMARK   10  A    between atoms: C_22  and  C_23
REMARK                            x       y       z     vdW  Elec       q    Type
REMARK                         _______ _______ _______ _____ _____    ______ ____
ROOT
ATOM      1  C   UNL     1      49.279   7.104  13.650  0.00  0.00    +0.000 C 
ENDROOT
BRANCH   1   2
ATOM      2  C   UNL     1      48.003   6.571  13.051  0.00  0.00    +0.000 A 
ATOM      3  C   UNL     1      47.306   5.529  13.679  0.00  0.00    +0.000 A 
ATOM      4  C   UNL     1      46.134   5.019  13.118  0.00  0.00    +0.000 A 
ATOM      5  C   UNL     1      45.625   5.549  11.923  0.00  0.00    +0.000 A 
ATOM      6  C   UNL     1      46.345   6.561  11.274  0.00  0.00    +0.000 A 
ATOM      7  C   UNL     1      47.525   7.063  11.829  0.00  0.00    +0.000 A 
BRANCH   5   8
ATOM      8  C   UNL     1      44.311   5.049  11.352  0.00  0.00    +0.000 C 
BRANCH   8   9
ATOM      9  N   UNL     1      44.356   3.628  10.939  0.00  0.00    +0.000 NA
ATOM     10  C   UNL     1      43.360   2.834  11.671  0.00  0.00    +0.000 C 
BRANCH   9  11
ATOM     11  C   UNL     1      44.082   3.506   9.487  0.00  0.00    +0.000 C 
BRANCH  11  12
ATOM     12  C   UNL     1      45.270   3.092   8.633  0.00  0.00    +0.000 A 
ATOM     13  C   UNL     1      45.679   1.760   8.587  0.00  0.00    +0.000 A 
ATOM     14  C   UNL     1      46.728   1.409   7.740  0.00  0.00    +0.000 A 
ATOM     15  C   UNL     1      47.345   2.391   6.975  0.00  0.00    +0.000 A 
ATOM     16  C   UNL     1      46.894   3.693   7.097  0.00  0.00    +0.000 A 
ATOM     17  N   UNL     1      45.875   4.065   7.904  0.00  0.00    +0.000 NA
ENDBRANCH  11  12
ENDBRANCH   9  11
ENDBRANCH   8   9
ENDBRANCH   5   8
ENDBRANCH   1   2
BRANCH   1  20
ATOM     18  C   UNL     1      50.369   7.067  15.860  0.00  0.00    +0.000 C 
ATOM     19  O   UNL     1      51.482   7.202  15.355  0.00  0.00    +0.000 OA
ATOM     20  N   UNL     1      49.242   7.004  15.086  0.00  0.00    +0.000 N 
ATOM     21  H   UNL     1      48.336   6.867  15.516  0.00  0.00    +0.000 HD
BRANCH  18  29
ATOM     22  C   UNL     1      49.056   4.628  17.912  0.00  0.00    +0.000 A 
ATOM     23  N   UNL     1      48.627   3.854  18.929  0.00  0.00    +0.000 NA
ATOM     24  C   UNL     1      48.743   4.327  20.174  0.00  0.00    +0.000 A 
ATOM     25  N   UNL     1      49.245   5.503  20.536  0.00  0.00    +0.000 NA
ATOM     26  C   UNL     1      49.671   6.238  19.495  0.00  0.00    +0.000 A 
ATOM     27  S   UNL     1      50.337   7.774  19.776  0.00  0.00    +0.000 S 
ATOM     28  C   UNL     1      50.595   8.020  18.114  0.00  0.00    +0.000 A 
ATOM     29  C   UNL     1      50.191   6.956  17.316  0.00  0.00    +0.000 A 
ATOM     30  C   UNL     1      49.630   5.890  18.149  0.00  0.00    +0.000 A 
BRANCH  22  32
ATOM     31  C   UNL     1      47.771   3.337  16.453  0.00  0.00    +0.000 C 
ATOM     32  O   UNL     1      48.951   4.123  16.634  0.00  0.00    +0.000 OA
ENDBRANCH  22  32
ENDBRANCH  18  29
ENDBRANCH   1  20
TORSDOF 8
ENDMDL
MODEL 3
REMARK VINA RESULT:    -7.553      2.487      3.265
REMARK INTER + INTRA:         -12.412
REMARK INTER:                 -11.285
REMARK INTRA:                  -1.127
REMARK UNBOUND:                -1.326
REMARK  Name = 
REMARK  10 active torsions:
REMARK  status: ('A' for Active; 'I' for Inactive)
REMARK    1  A    between atoms: C_1  and  O_2
REMARK    2  A    between atoms: O_2  and  C_3
REMARK    3  A    between atoms: C_10  and  C_11
REMARK    4  A    between atoms: N_13  and  C_14
REMARK    5  A    between atoms: C_14  and  C_15
REMARK    6  A    between atoms: C_18  and  C_19
REMARK    7  A    between atoms: C_19  and  N_20
REMARK    8  A    between atoms: N_20  and  C_21
REMARK    9  A    between atoms: N_20  and  C_22
REMARK   10  A    between atoms: C_22  and  C_23
REMARK                            x       y       z     vdW  Elec       q    Type
REMARK                         _______ _______ _______ _____ _____    ______ ____
ROOT
ATOM      1  C   UNL     1      48.829   6.887  14.063  0.00  0.00    +0.000 C 
ENDROOT
BRANCH   1   2
ATOM      2  C   UNL     1      47.715   6.330  13.216  0.00  0.00    +0.000 A 
ATOM      3  C   UNL     1      47.396   6.923  11.985  0.00  0.00    +0.000 A 
ATOM      4  C   UNL     1      46.351   6.423  11.205  0.00  0.00    +0.000 A 
ATOM      5  C   UNL     1      45.611   5.311  11.631  0.00  0.00    +0.000 A 
ATOM      6  C   UNL     1      45.904   4.745  12.880  0.00  0.00    +0.000 A 
ATOM      7  C   UNL     1      46.941   5.253  13.666  0.00  0.00    +0.000 A 
BRANCH   5   8
ATOM      8  C   UNL     1      44.527   4.718  10.750  0.00  0.00    +0.000 C 
BRANCH   8   9
ATOM      9  N   UNL     1      44.598   3.243  10.649  0.00  0.00    +0.000 NA
ATOM     10  C   UNL     1      43.650   2.606  11.573  0.00  0.00    +0.000 C 
BRANCH   9  11
ATOM     11  C   UNL     1      44.277   2.806   9.270  0.00  0.00    +0.000 C 
BRANCH  11  12
ATOM     12  C   UNL     1      45.477   2.494   8.390  0.00  0.00    +0.000 A 
ATOM     13  C   UNL     1      46.092   3.500   7.648  0.00  0.00    +0.000 A 
ATOM     14  C   UNL     1      47.230   3.189   6.908  0.00  0.00    +0.000 A 
ATOM     15  C   UNL     1      47.716   1.887   6.918  0.00  0.00    +0.000 A 
ATOM     16  C   UNL     1      47.032   0.941   7.662  0.00  0.00    +0.000 A 
ATOM     17  N   UNL     1      45.929   1.213   8.396  0.00  0.00    +0.000 NA
ENDBRANCH  11  12
ENDBRANCH   9  11
ENDBRANCH   8   9
ENDBRANCH   5   8
ENDBRANCH   1   2
BRANCH   1  20
ATOM     18  C   UNL     1      49.112   6.482  16.478  0.00  0.00    +0.000 C 
ATOM     19  O   UNL     1      50.153   5.854  16.289  0.00  0.00    +0.000 OA
ATOM     20  N   UNL     1      48.404   7.013  15.434  0.00  0.00    +0.000 N 
ATOM     21  H   UNL     1      47.537   7.504  15.606  0.00  0.00    +0.000 HD
BRANCH  18  29
ATOM     22  C   UNL     1      47.923   9.241  18.169  0.00  0.00    +0.000 A 
ATOM     23  N   UNL     1      47.401  10.126  19.041  0.00  0.00    +0.000 NA
ATOM     24  C   UNL     1      47.042   9.683  20.250  0.00  0.00    +0.000 A 
ATOM     25  N   UNL     1      47.141   8.438  20.704  0.00  0.00    +0.000 NA
ATOM     26  C   UNL     1      47.656   7.586  19.802  0.00  0.00    +0.000 A 
ATOM     27  S   UNL     1      47.859   5.953  20.217  0.00  0.00    +0.000 S 
ATOM     28  C   UNL     1      48.500   5.592  18.685  0.00  0.00    +0.000 A 
ATOM     29  C   UNL     1      48.571   6.685  17.830  0.00  0.00    +0.000 A 
ATOM     30  C   UNL     1      48.069   7.883  18.507  0.00  0.00    +0.000 A 
BRANCH  22  32
ATOM     31  C   UNL     1      49.601  10.230  16.882  0.00  0.00    +0.000 C 
ATOM     32  O   UNL     1      48.273   9.704  16.918  0.00  0.00    +0.000 OA
ENDBRANCH  22  32
ENDBRANCH  18  29
ENDBRANCH   1  20
TORSDOF 8
ENDMDL
MODEL 4
REMARK VINA RESULT:    -6.988      1.523      1.985
REMARK INTER + INTRA:         -11.582
REMARK INTER:                 -10.242
REMARK INTRA:                  -1.340
REMARK UNBOUND:                -1.326
REMARK  Name = 
REMARK  10 active torsions:
REMARK  status: ('A' for Active; 'I' for Inactive)
REMARK    1  A    between atoms: C_1  and  O_2
REMARK    2  A    between atoms: O_2  and  C_3
REMARK    3  A    between atoms: C_10  and  C_11
REMARK    4  A    between atoms: N_13  and  C_14
REMARK    5  A    between atoms: C_14  and  C_15
REMARK    6  A    between atoms: C_18  and  C_19
REMARK    7  A    between atoms: C_19  and  N_20
REMARK    8  A    between atoms: N_20  and  C_21
REMARK    9  A    between atoms: N_20  and  C_22
REMARK   10  A    between atoms: C_22  and  C_23
REMARK                            x       y       z     vdW  Elec       q    Type
REMARK                         _______ _______ _______ _____ _____    ______ ____
ROOT
ATOM      1  C   UNL     1      48.727   8.935  13.900  0.00  0.00    +0.000 C 
ENDROOT
BRANCH   1   2
ATOM      2  C   UNL     1      47.612   8.266  13.139  0.00  0.00    +0.000 A 
ATOM      3  C   UNL     1      47.890   7.213  12.256  0.00  0.00    +0.000 A 
ATOM      4  C   UNL     1      46.862   6.603  11.533  0.00  0.00    +0.000 A 
ATOM      5  C   UNL     1      45.533   7.023  11.688  0.00  0.00    +0.000 A 
ATOM      6  C   UNL     1      45.263   8.103  12.540  0.00  0.00    +0.000 A 
ATOM      7  C   UNL     1      46.293   8.721  13.253  0.00  0.00    +0.000 A 
BRANCH   5   8
ATOM      8  C   UNL     1      44.406   6.310  10.963  0.00  0.00    +0.000 C 
BRANCH   8   9
ATOM      9  N   UNL     1      44.371   4.854  11.227  0.00  0.00    +0.000 NA
ATOM     10  C   UNL     1      43.527   4.550  12.391  0.00  0.00    +0.000 C 
BRANCH   9  11
ATOM     11  C   UNL     1      43.830   4.132  10.051  0.00  0.00    +0.000 C 
BRANCH  11  12
ATOM     12  C   UNL     1      44.871   3.509   9.135  0.00  0.00    +0.000 A 
ATOM     13  C   UNL     1      45.127   2.140   9.181  0.00  0.00    +0.000 A 
ATOM     14  C   UNL     1      46.038   1.595   8.279  0.00  0.00    +0.000 A 
ATOM     15  C   UNL     1      46.676   2.429   7.368  0.00  0.00    +0.000 A 
ATOM     16  C   UNL     1      46.384   3.781   7.404  0.00  0.00    +0.000 A 
ATOM     17  N   UNL     1      45.500   4.338   8.262  0.00  0.00    +0.000 NA
ENDBRANCH  11  12
ENDBRANCH   9  11
ENDBRANCH   8   9
ENDBRANCH   5   8
ENDBRANCH   1   2
BRANCH   1  20
ATOM     18  C   UNL     1      49.199   8.326  16.242  0.00  0.00    +0.000 C 
ATOM     19  O   UNL     1      48.695   9.370  16.654  0.00  0.00    +0.000 OA
ATOM     20  N   UNL     1      49.257   8.047  14.903  0.00  0.00    +0.000 N 
ATOM     21  H   UNL     1      49.699   7.196  14.580  0.00  0.00    +0.000 HD
BRANCH  18  29
ATOM     22  C   UNL     1      48.869   4.909  16.553  0.00  0.00    +0.000 A 
ATOM     23  N   UNL     1      48.939   3.605  16.887  0.00  0.00    +0.000 NA
ATOM     24  C   UNL     1      49.717   3.258  17.917  0.00  0.00    +0.000 A 
ATOM     25  N   UNL     1      50.449   4.071  18.671  0.00  0.00    +0.000 NA
ATOM     26  C   UNL     1      50.360   5.359  18.300  0.00  0.00    +0.000 A 
ATOM     27  S   UNL     1      51.228   6.537  19.159  0.00  0.00    +0.000 S 
ATOM     28  C   UNL     1      50.631   7.777  18.161  0.00  0.00    +0.000 A 
ATOM     29  C   UNL     1      49.774   7.333  17.162  0.00  0.00    +0.000 A 
ATOM     30  C   UNL     1      49.608   5.881  17.252  0.00  0.00    +0.000 A 
BRANCH  22  32
ATOM     31  C   UNL     1      47.190   4.203  15.094  0.00  0.00    +0.000 C 
ATOM     32  O   UNL     1      48.079   5.254  15.478  0.00  0.00    +0.000 OA
ENDBRANCH  22  32
ENDBRANCH  18  29
ENDBRANCH   1  20
TORSDOF 8
ENDMDL
MODEL 5
REMARK VINA RESULT:    -6.861      2.699      3.625
REMARK INTER + INTRA:         -11.395
REMARK INTER:                 -10.156
REMARK INTRA:                  -1.240
REMARK UNBOUND:                -1.326
REMARK  Name = 
REMARK  10 active torsions:
REMARK  status: ('A' for Active; 'I' for Inactive)
REMARK    1  A    between atoms: C_1  and  O_2
REMARK    2  A    between atoms: O_2  and  C_3
REMARK    3  A    between atoms: C_10  and  C_11
REMARK    4  A    between atoms: N_13  and  C_14
REMARK    5  A    between atoms: C_14  and  C_15
REMARK    6  A    between atoms: C_18  and  C_19
REMARK    7  A    between atoms: C_19  and  N_20
REMARK    8  A    between atoms: N_20  and  C_21
REMARK    9  A    between atoms: N_20  and  C_22
REMARK   10  A    between atoms: C_22  and  C_23
REMARK                            x       y       z     vdW  Elec       q    Type
REMARK                         _______ _______ _______ _____ _____    ______ ____
ROOT
ATOM      1  C   UNL     1      47.812   4.594  16.023  0.00  0.00    +0.000 C 
ENDROOT
BRANCH   1   2
ATOM      2  C   UNL     1      47.198   4.814  14.665  0.00  0.00    +0.000 A 
ATOM      3  C   UNL     1      46.563   3.758  13.994  0.00  0.00    +0.000 A 
ATOM      4  C   UNL     1      46.010   3.952  12.727  0.00  0.00    +0.000 A 
ATOM      5  C   UNL     1      46.066   5.209  12.108  0.00  0.00    +0.000 A 
ATOM      6  C   UNL     1      46.737   6.252  12.761  0.00  0.00    +0.000 A 
ATOM      7  C   UNL     1      47.302   6.055  14.024  0.00  0.00    +0.000 A 
BRANCH   5   8
ATOM      8  C   UNL     1      45.398   5.442  10.765  0.00  0.00    +0.000 C 
BRANCH   8   9
ATOM      9  N   UNL     1      44.363   4.432  10.446  0.00  0.00    +0.000 NA
ATOM     10  C   UNL     1      43.049   4.844  10.957  0.00  0.00    +0.000 C 
BRANCH   9  11
ATOM     11  C   UNL     1      44.261   4.248   8.979  0.00  0.00    +0.000 C 
BRANCH  11  12
ATOM     12  C   UNL     1      45.361   3.406   8.351  0.00  0.00    +0.000 A 
ATOM     13  C   UNL     1      45.500   2.060   8.682  0.00  0.00    +0.000 A 
ATOM     14  C   UNL     1      46.476   1.305   8.035  0.00  0.00    +0.000 A 
ATOM     15  C   UNL     1      47.291   1.914   7.088  0.00  0.00    +0.000 A 
ATOM     16  C   UNL     1      47.105   3.261   6.834  0.00  0.00    +0.000 A 
ATOM     17  N   UNL     1      46.162   4.018   7.441  0.00  0.00    +0.000 NA
ENDBRANCH  11  12
ENDBRANCH   9  11
ENDBRANCH   8   9
ENDBRANCH   5   8
ENDBRANCH   1   2
BRANCH   1  20
ATOM     18  C   UNL     1      49.380   6.290  16.886  0.00  0.00    +0.000 C 
ATOM     19  O   UNL     1      50.352   5.606  16.569  0.00  0.00    +0.000 OA
ATOM     20  N   UNL     1      48.102   5.856  16.655  0.00  0.00    +0.000 N 
ATOM     21  H   UNL     1      47.314   6.419  16.946  0.00  0.00    +0.000 HD
BRANCH  18  29
ATOM     22  C   UNL     1      47.901   7.774  19.623  0.00  0.00    +0.000 A 
ATOM     23  N   UNL     1      47.510   8.572  20.637  0.00  0.00    +0.000 NA
ATOM     24  C   UNL     1      48.071   9.780  20.741  0.00  0.00    +0.000 A 
ATOM     25  N   UNL     1      48.995  10.301  19.940  0.00  0.00    +0.000 NA
ATOM     26  C   UNL     1      49.365   9.471  18.951  0.00  0.00    +0.000 A 
ATOM     27  S   UNL     1      50.534   9.978  17.830  0.00  0.00    +0.000 S 
ATOM     28  C   UNL     1      50.442   8.503  16.991  0.00  0.00    +0.000 A 
ATOM     29  C   UNL     1      49.538   7.599  17.537  0.00  0.00    +0.000 A 
ATOM     30  C   UNL     1      48.887   8.187  18.709  0.00  0.00    +0.000 A 
BRANCH  22  32
ATOM     31  C   UNL     1      48.022   5.550  20.321  0.00  0.00    +0.000 C 
ATOM     32  O   UNL     1      47.330   6.522  19.536  0.00  0.00    +0.000 OA
ENDBRANCH  22  32
ENDBRANCH  18  29
ENDBRANCH   1  20
TORSDOF 8
ENDMDL
MODEL 6
REMARK VINA RESULT:    -6.673      2.539      3.857
REMARK INTER + INTRA:         -11.120
REMARK INTER:                 -10.119
REMARK INTRA:                  -1.001
REMARK UNBOUND:                -1.326
REMARK  Name = 
REMARK  10 active torsions:
REMARK  status: ('A' for Active; 'I' for Inactive)
REMARK    1  A    between atoms: C_1  and  O_2
REMARK    2  A    between atoms: O_2  and  C_3
REMARK    3  A    between atoms: C_10  and  C_11
REMARK    4  A    between atoms: N_13  and  C_14
REMARK    5  A    between atoms: C_14  and  C_15
REMARK    6  A    between atoms: C_18  and  C_19
REMARK    7  A    between atoms: C_19  and  N_20
REMARK    8  A    between atoms: N_20  and  C_21
REMARK    9  A    between atoms: N_20  and  C_22
REMARK   10  A    between atoms: C_22  and  C_23
REMARK                            x       y       z     vdW  Elec       q    Type
REMARK                         _______ _______ _______ _____ _____    ______ ____
ROOT
ATOM      1  C   UNL     1      47.633   4.202  16.139  0.00  0.00    +0.000 C 
ENDROOT
BRANCH   1   2
ATOM      2  C   UNL     1      47.104   4.519  14.764  0.00  0.00    +0.000 A 
ATOM      3  C   UNL     1      46.633   3.492  13.932  0.00  0.00    +0.000 A 
ATOM      4  C   UNL     1      46.160   3.778  12.650  0.00  0.00    +0.000 A 
ATOM      5  C   UNL     1      46.135   5.098  12.176  0.00  0.00    +0.000 A 
ATOM      6  C   UNL     1      46.644   6.117  12.993  0.00  0.00    +0.000 A 
ATOM      7  C   UNL     1      47.129   5.829  14.271  0.00  0.00    +0.000 A 
BRANCH   5   8
ATOM      8  C   UNL     1      45.550   5.420  10.814  0.00  0.00    +0.000 C 
BRANCH   8   9
ATOM      9  N   UNL     1      44.763   4.306  10.238  0.00  0.00    +0.000 NA
ATOM     10  C   UNL     1      43.366   4.359  10.690  0.00  0.00    +0.000 C 
BRANCH   9  11
ATOM     11  C   UNL     1      44.782   4.376   8.757  0.00  0.00    +0.000 C 
BRANCH  11  12
ATOM     12  C   UNL     1      45.605   3.300   8.066  0.00  0.00    +0.000 A 
ATOM     13  C   UNL     1      46.358   3.602   6.933  0.00  0.00    +0.000 A 
ATOM     14  C   UNL     1      47.153   2.607   6.369  0.00  0.00    +0.000 A 
ATOM     15  C   UNL     1      47.167   1.340   6.940  0.00  0.00    +0.000 A 
ATOM     16  C   UNL     1      46.371   1.115   8.049  0.00  0.00    +0.000 A 
ATOM     17  N   UNL     1      45.595   2.062   8.624  0.00  0.00    +0.000 NA
ENDBRANCH  11  12
ENDBRANCH   9  11
ENDBRANCH   8   9
ENDBRANCH   5   8
ENDBRANCH   1   2
BRANCH   1  20
ATOM     18  C   UNL     1      47.938   5.346  18.301  0.00  0.00    +0.000 C 
ATOM     19  O   UNL     1      48.288   4.301  18.847  0.00  0.00    +0.000 OA
ATOM     20  N   UNL     1      47.595   5.374  16.976  0.00  0.00    +0.000 N 
ATOM     21  H   UNL     1      47.285   6.237  16.549  0.00  0.00    +0.000 HD
BRANCH  18  29
ATOM     22  C   UNL     1      48.447   8.642  17.427  0.00  0.00    +0.000 A 
ATOM     23  N   UNL     1      48.562   9.983  17.361  0.00  0.00    +0.000 NA
ATOM     24  C   UNL     1      48.338  10.692  18.472  0.00  0.00    +0.000 A 
ATOM     25  N   UNL     1      48.005  10.215  19.667  0.00  0.00    +0.000 NA
ATOM     26  C   UNL     1      47.890   8.876  19.688  0.00  0.00    +0.000 A 
ATOM     27  S   UNL     1      47.476   8.097  21.138  0.00  0.00    +0.000 S 
ATOM     28  C   UNL     1      47.533   6.571  20.392  0.00  0.00    +0.000 A 
ATOM     29  C   UNL     1      47.860   6.614  19.042  0.00  0.00    +0.000 A 
ATOM     30  C   UNL     1      48.080   8.000  18.624  0.00  0.00    +0.000 A 
BRANCH  22  32
ATOM     31  C   UNL     1      49.896   8.262  15.638  0.00  0.00    +0.000 C 
ATOM     32  O   UNL     1      48.661   7.922  16.271  0.00  0.00    +0.000 OA
ENDBRANCH  22  32
ENDBRANCH  18  29
ENDBRANCH   1  20
TORSDOF 8
ENDMDL
MODEL 7
REMARK VINA RESULT:    -6.672      3.489      8.786
REMARK INTER + INTRA:         -11.119
REMARK INTER:                  -9.813
REMARK INTRA:                  -1.306
REMARK UNBOUND:                -1.326
REMARK  Name = 
REMARK  10 active torsions:
REMARK  status: ('A' for Active; 'I' for Inactive)
REMARK    1  A    between atoms: C_1  and  O_2
REMARK    2  A    between atoms: O_2  and  C_3
REMARK    3  A    between atoms: C_10  and  C_11
REMARK    4  A    between atoms: N_13  and  C_14
REMARK    5  A    between atoms: C_14  and  C_15
REMARK    6  A    between atoms: C_18  and  C_19
REMARK    7  A    between atoms: C_19  and  N_20
REMARK    8  A    between atoms: N_20  and  C_21
REMARK    9  A    between atoms: N_20  and  C_22
REMARK   10  A    between atoms: C_22  and  C_23
REMARK                            x       y       z     vdW  Elec       q    Type
REMARK                         _______ _______ _______ _____ _____    ______ ____
ROOT
ATOM      1  C   UNL     1      47.241   3.402  16.974  0.00  0.00    +0.000 C 
ENDROOT
BRANCH   1   2
ATOM      2  C   UNL     1      48.726   3.343  17.223  0.00  0.00    +0.000 A 
ATOM      3  C   UNL     1      49.436   2.155  16.996  0.00  0.00    +0.000 A 
ATOM      4  C   UNL     1      50.809   2.090  17.244  0.00  0.00    +0.000 A 
ATOM      5  C   UNL     1      51.504   3.215  17.712  0.00  0.00    +0.000 A 
ATOM      6  C   UNL     1      50.786   4.388  17.977  0.00  0.00    +0.000 A 
ATOM      7  C   UNL     1      49.410   4.450  17.741  0.00  0.00    +0.000 A 
BRANCH   5   8
ATOM      8  C   UNL     1      53.008   3.169  17.908  0.00  0.00    +0.000 C 
BRANCH   8   9
ATOM      9  N   UNL     1      53.599   4.493  18.207  0.00  0.00    +0.000 NA
ATOM     10  C   UNL     1      54.219   4.505  19.539  0.00  0.00    +0.000 C 
BRANCH   9  11
ATOM     11  C   UNL     1      54.635   4.831  17.202  0.00  0.00    +0.000 C 
BRANCH  11  12
ATOM     12  C   UNL     1      54.231   5.881  16.179  0.00  0.00    +0.000 A 
ATOM     13  C   UNL     1      53.085   6.651  16.369  0.00  0.00    +0.000 A 
ATOM     14  C   UNL     1      52.784   7.649  15.445  0.00  0.00    +0.000 A 
ATOM     15  C   UNL     1      53.624   7.843  14.355  0.00  0.00    +0.000 A 
ATOM     16  C   UNL     1      54.729   7.020  14.226  0.00  0.00    +0.000 A 
ATOM     17  N   UNL     1      55.051   6.048  15.110  0.00  0.00    +0.000 NA
ENDBRANCH  11  12
ENDBRANCH   9  11
ENDBRANCH   8   9
ENDBRANCH   5   8
ENDBRANCH   1   2
BRANCH   1  20
ATOM     18  C   UNL     1      47.017   4.208  14.655  0.00  0.00    +0.000 C 
ATOM     19  O   UNL     1      47.377   3.122  14.203  0.00  0.00    +0.000 OA
ATOM     20  N   UNL     1      46.933   4.422  16.004  0.00  0.00    +0.000 N 
ATOM     21  H   UNL     1      46.660   5.329  16.359  0.00  0.00    +0.000 HD
BRANCH  18  29
ATOM     22  C   UNL     1      44.312   4.892  12.631  0.00  0.00    +0.000 A 
ATOM     23  N   UNL     1      43.393   5.412  11.793  0.00  0.00    +0.000 NA
ATOM     24  C   UNL     1      43.648   6.600  11.236  0.00  0.00    +0.000 A 
ATOM     25  N   UNL     1      44.732   7.348  11.417  0.00  0.00    +0.000 NA
ATOM     26  C   UNL     1      45.616   6.800  12.266  0.00  0.00    +0.000 A 
ATOM     27  S   UNL     1      47.063   7.620  12.609  0.00  0.00    +0.000 S 
ATOM     28  C   UNL     1      47.574   6.382  13.656  0.00  0.00    +0.000 A 
ATOM     29  C   UNL     1      46.670   5.333  13.773  0.00  0.00    +0.000 A 
ATOM     30  C   UNL     1      45.499   5.584  12.932  0.00  0.00    +0.000 A 
BRANCH  22  32
ATOM     31  C   UNL     1      43.534   2.720  12.275  0.00  0.00    +0.000 C 
ATOM     32  O   UNL     1      44.030   3.676  13.215  0.00  0.00    +0.000 OA
ENDBRANCH  22  32
ENDBRANCH  18  29
ENDBRANCH   1  20
TORSDOF 8
ENDMDL
MODEL 8
REMARK VINA RESULT:    -6.363      4.298      9.401
REMARK INTER + INTRA:         -10.665
REMARK INTER:                  -9.680
REMARK INTRA:                  -0.984
REMARK UNBOUND:                -1.326
REMARK  Name = 
REMARK  10 active torsions:
REMARK  status: ('A' for Active; 'I' for Inactive)
REMARK    1  A    between atoms: C_1  and  O_2
REMARK    2  A    between atoms: O_2  and  C_3
REMARK    3  A    between atoms: C_10  and  C_11
REMARK    4  A    between atoms: N_13  and  C_14
REMARK    5  A    between atoms: C_14  and  C_15
REMARK    6  A    between atoms: C_18  and  C_19
REMARK    7  A    between atoms: C_19  and  N_20
REMARK    8  A    between atoms: N_20  and  C_21
REMARK    9  A    between atoms: N_20  and  C_22
REMARK   10  A    between atoms: C_22  and  C_23
REMARK                            x       y       z     vdW  Elec       q    Type
REMARK                         _______ _______ _______ _____ _____    ______ ____
ROOT
ATOM      1  C   UNL     1      47.513   3.497  16.781  0.00  0.00    +0.000 C 
ENDROOT
BRANCH   1   2
ATOM      2  C   UNL     1      48.932   3.786  17.199  0.00  0.00    +0.000 A 
ATOM      3  C   UNL     1      49.320   5.091  17.537  0.00  0.00    +0.000 A 
ATOM      4  C   UNL     1      50.638   5.367  17.906  0.00  0.00    +0.000 A 
ATOM      5  C   UNL     1      51.594   4.343  17.958  0.00  0.00    +0.000 A 
ATOM      6  C   UNL     1      51.215   3.047  17.581  0.00  0.00    +0.000 A 
ATOM      7  C   UNL     1      49.899   2.773  17.199  0.00  0.00    +0.000 A 
BRANCH   5   8
ATOM      8  C   UNL     1      53.007   4.627  18.434  0.00  0.00    +0.000 C 
BRANCH   8   9
ATOM      9  N   UNL     1      53.993   3.625  17.968  0.00  0.00    +0.000 NA
ATOM     10  C   UNL     1      55.232   4.274  17.520  0.00  0.00    +0.000 C 
BRANCH   9  11
ATOM     11  C   UNL     1      54.323   2.682  19.062  0.00  0.00    +0.000 C 
BRANCH  11  12
ATOM     12  C   UNL     1      54.467   1.227  18.645  0.00  0.00    +0.000 A 
ATOM     13  C   UNL     1      54.229   0.840  17.328  0.00  0.00    +0.000 A 
ATOM     14  C   UNL     1      54.438  -0.490  16.969  0.00  0.00    +0.000 A 
ATOM     15  C   UNL     1      54.865  -1.396  17.932  0.00  0.00    +0.000 A 
ATOM     16  C   UNL     1      55.055  -0.937  19.223  0.00  0.00    +0.000 A 
ATOM     17  N   UNL     1      54.868   0.348  19.601  0.00  0.00    +0.000 NA
ENDBRANCH  11  12
ENDBRANCH   9  11
ENDBRANCH   8   9
ENDBRANCH   5   8
ENDBRANCH   1   2
BRANCH   1  20
ATOM     18  C   UNL     1      46.969   4.316  14.521  0.00  0.00    +0.000 C 
ATOM     19  O   UNL     1      47.325   3.255  14.010  0.00  0.00    +0.000 OA
ATOM     20  N   UNL     1      47.039   4.510  15.874  0.00  0.00    +0.000 N 
ATOM     21  H   UNL     1      46.767   5.398  16.275  0.00  0.00    +0.000 HD
BRANCH  18  29
ATOM     22  C   UNL     1      44.239   4.695  12.451  0.00  0.00    +0.000 A 
ATOM     23  N   UNL     1      43.268   5.118  11.617  0.00  0.00    +0.000 NA
ATOM     24  C   UNL     1      43.336   6.370  11.153  0.00  0.00    +0.000 A 
ATOM     25  N   UNL     1      44.275   7.270  11.425  0.00  0.00    +0.000 NA
ATOM     26  C   UNL     1      45.217   6.813  12.267  0.00  0.00    +0.000 A 
ATOM     27  S   UNL     1      46.498   7.831  12.718  0.00  0.00    +0.000 S 
ATOM     28  C   UNL     1      47.182   6.620  13.695  0.00  0.00    +0.000 A 
ATOM     29  C   UNL     1      46.463   5.431  13.707  0.00  0.00    +0.000 A 
ATOM     30  C   UNL     1      45.287   5.548  12.842  0.00  0.00    +0.000 A 
BRANCH  22  32
ATOM     31  C   UNL     1      43.410   2.546  12.072  0.00  0.00    +0.000 C 
ATOM     32  O   UNL     1      44.150   3.409  12.938  0.00  0.00    +0.000 OA
ENDBRANCH  22  32
ENDBRANCH  18  29
ENDBRANCH   1  20
TORSDOF 8
ENDMDL
MODEL 9
REMARK VINA RESULT:    -6.324      2.364      3.124
REMARK INTER + INTRA:         -10.608
REMARK INTER:                  -9.508
REMARK INTRA:                  -1.100
REMARK UNBOUND:                -1.326
REMARK  Name = 
REMARK  10 active torsions:
REMARK  status: ('A' for Active; 'I' for Inactive)
REMARK    1  A    between atoms: C_1  and  O_2
REMARK    2  A    between atoms: O_2  and  C_3
REMARK    3  A    between atoms: C_10  and  C_11
REMARK    4  A    between atoms: N_13  and  C_14
REMARK    5  A    between atoms: C_14  and  C_15
REMARK    6  A    between atoms: C_18  and  C_19
REMARK    7  A    between atoms: C_19  and  N_20
REMARK    8  A    between atoms: N_20  and  C_21
REMARK    9  A    between atoms: N_20  and  C_22
REMARK   10  A    between atoms: C_22  and  C_23
REMARK                            x       y       z     vdW  Elec       q    Type
REMARK                         _______ _______ _______ _____ _____    ______ ____
ROOT
ATOM      1  C   UNL     1      47.594   9.356  12.662  0.00  0.00    +0.000 C 
ENDROOT
BRANCH   1   2
ATOM      2  C   UNL     1      46.587   8.300  12.287  0.00  0.00    +0.000 A 
ATOM      3  C   UNL     1      45.341   8.664  11.757  0.00  0.00    +0.000 A 
ATOM      4  C   UNL     1      44.397   7.689  11.427  0.00  0.00    +0.000 A 
ATOM      5  C   UNL     1      44.684   6.328  11.606  0.00  0.00    +0.000 A 
ATOM      6  C   UNL     1      45.914   5.968  12.174  0.00  0.00    +0.000 A 
ATOM      7  C   UNL     1      46.853   6.944  12.517  0.00  0.00    +0.000 A 
BRANCH   5   8
ATOM      8  C   UNL     1      43.691   5.265  11.175  0.00  0.00    +0.000 C 
BRANCH   8   9
ATOM      9  N   UNL     1      44.337   4.034  10.666  0.00  0.00    +0.000 NA
ATOM     10  C   UNL     1      43.738   2.836  11.270  0.00  0.00    +0.000 C 
BRANCH   9  11
ATOM     11  C   UNL     1      44.186   3.946   9.194  0.00  0.00    +0.000 C 
BRANCH  11  12
ATOM     12  C   UNL     1      45.361   3.326   8.456  0.00  0.00    +0.000 A 
ATOM     13  C   UNL     1      45.633   1.964   8.573  0.00  0.00    +0.000 A 
ATOM     14  C   UNL     1      46.677   1.421   7.827  0.00  0.00    +0.000 A 
ATOM     15  C   UNL     1      47.425   2.248   6.998  0.00  0.00    +0.000 A 
ATOM     16  C   UNL     1      47.105   3.593   6.957  0.00  0.00    +0.000 A 
ATOM     17  N   UNL     1      46.095   4.149   7.663  0.00  0.00    +0.000 NA
ENDBRANCH  11  12
ENDBRANCH   9  11
ENDBRANCH   8   9
ENDBRANCH   5   8
ENDBRANCH   1   2
BRANCH   1  20
ATOM     18  C   UNL     1      49.876   9.480  13.586  0.00  0.00    +0.000 C 
ATOM     19  O   UNL     1      49.908  10.701  13.444  0.00  0.00    +0.000 OA
ATOM     20  N   UNL     1      48.776   8.751  13.219  0.00  0.00    +0.000 N 
ATOM     21  H   UNL     1      48.777   7.745  13.319  0.00  0.00    +0.000 HD
BRANCH  18  29
ATOM     22  C   UNL     1      50.182   7.130  16.089  0.00  0.00    +0.000 A 
ATOM     23  N   UNL     1      50.583   6.206  16.986  0.00  0.00    +0.000 NA
ATOM     24  C   UNL     1      51.882   5.897  17.035  0.00  0.00    +0.000 A 
ATOM     25  N   UNL     1      52.851   6.407  16.283  0.00  0.00    +0.000 NA
ATOM     26  C   UNL     1      52.410   7.314  15.396  0.00  0.00    +0.000 A 
ATOM     27  S   UNL     1      53.516   8.072  14.357  0.00  0.00    +0.000 S 
ATOM     28  C   UNL     1      52.282   8.986  13.628  0.00  0.00    +0.000 A 
ATOM     29  C   UNL     1      51.016   8.739  14.146  0.00  0.00    +0.000 A 
ATOM     30  C   UNL     1      51.098   7.739  15.212  0.00  0.00    +0.000 A 
BRANCH  22  32
ATOM     31  C   UNL     1      48.478   8.496  16.911  0.00  0.00    +0.000 C 
ATOM     32  O   UNL     1      48.838   7.427  16.033  0.00  0.00    +0.000 OA
ENDBRANCH  22  32
ENDBRANCH  18  29
ENDBRANCH   1  20
TORSDOF 8
ENDMDL
