MODEL 1
REMARK VINA RESULT:    -7.545      0.000      0.000
REMARK INTER + INTRA:         -10.530
REMARK INTER:                 -10.192
REMARK INTRA:                  -0.338
REMARK UNBOUND:                -0.338
REMARK  Name = 
REMARK  7 active torsions:
REMARK  status: ('A' for Active; 'I' for Inactive)
REMARK    1  A    between atoms: N_1  and  C_2
REMARK    2  A    between atoms: C_2  and  C_3
REMARK    3  A    between atoms: C_7  and  C_8
REMARK    4  A    between atoms: C_8  and  S_9
REMARK    5  A    between atoms: S_9  and  C_10
REMARK    6  A    between atoms: C_14  and  C_15
REMARK    7  A    between atoms: C_15  and  O_17
REMARK                            x       y       z     vdW  Elec       q    Type
REMARK                         _______ _______ _______ _____ _____    ______ ____
ROOT
ATOM      1  C   UNL     1      44.140   2.899  10.529  0.00  0.00    +0.000 C 
ENDROOT
BRANCH   1   6
ATOM      2  C   UNL     1      46.512   2.015   7.673  0.00  0.00    +0.000 A 
ATOM      3  C   UNL     1      46.724   3.289   7.150  0.00  0.00    +0.000 A 
ATOM      4  C   UNL     1      46.063   4.360   7.732  0.00  0.00    +0.000 A 
ATOM      5  N   UNL     1      45.233   4.252   8.794  0.00  0.00    +0.000 NA
ATOM      6  C   UNL     1      45.038   3.013   9.314  0.00  0.00    +0.000 A 
ATOM      7  C   UNL     1      45.636   1.881   8.758  0.00  0.00    +0.000 A 
BRANCH   2   8
ATOM      8  C   UNL     1      47.224   0.807   7.126  0.00  0.00    +0.000 C 
BRANCH   8   9
ATOM      9  N   UNL     1      46.769  -0.415   7.776  0.00  0.00    +0.000 NA
ATOM     10  H   UNL     1      47.385  -1.182   7.512  0.00  0.00    +0.000 HD
ATOM     11  H   UNL     1      45.844  -0.652   7.425  0.00  0.00    +0.000 HD
ENDBRANCH   8   9
ENDBRANCH   2   8
ENDBRANCH   1   6
BRANCH   1  12
ATOM     12  S   UNL     1      43.409   4.517  10.988  0.00  0.00    +0.000 S 
BRANCH  12  13
ATOM     13  C   UNL     1      44.739   5.270  11.902  0.00  0.00    +0.000 A 
ATOM     14  C   UNL     1      45.280   6.504  11.533  0.00  0.00    +0.000 A 
ATOM     15  C   UNL     1      46.408   7.010  12.190  0.00  0.00    +0.000 A 
ATOM     16  C   UNL     1      47.002   6.287  13.228  0.00  0.00    +0.000 A 
ATOM     17  C   UNL     1      46.454   5.060  13.620  0.00  0.00    +0.000 A 
ATOM     18  C   UNL     1      45.338   4.549  12.942  0.00  0.00    +0.000 A 
BRANCH  17  19
ATOM     19  C   UNL     1      47.046   4.224  14.693  0.00  0.00    +0.000 C 
ATOM     20  O   UNL     1      47.464   3.095  14.501  0.00  0.00    +0.000 OA
BRANCH  19  21
ATOM     21  O   UNL     1      47.042   4.802  15.915  0.00  0.00    +0.000 OA
ATOM     22  H   UNL     1      46.220   5.266  16.157  0.00  0.00    +0.000 HD
ENDBRANCH  19  21
ENDBRANCH  17  19
ENDBRANCH  12  13
ENDBRANCH   1  12
TORSDOF 7
ENDMDL
MODEL 2
REMARK VINA RESULT:    -7.451      3.430      6.005
REMARK INTER + INTRA:         -10.403
REMARK INTER:                 -10.168
REMARK INTRA:                  -0.235
REMARK UNBOUND:                -0.338
REMARK  Name = 
REMARK  7 active torsions:
REMARK  status: ('A' for Active; 'I' for Inactive)
REMARK    1  A    between atoms: N_1  and  C_2
REMARK    2  A    between atoms: C_2  and  C_3
REMARK    3  A    between atoms: C_7  and  C_8
REMARK    4  A    between atoms: C_8  and  S_9
REMARK    5  A    between atoms: S_9  and  C_10
REMARK    6  A    between atoms: C_14  and  C_15
REMARK    7  A    between atoms: C_15  and  O_17
REMARK                            x       y       z     vdW  Elec       q    Type
REMARK                         _______ _______ _______ _____ _____    ______ ____
ROOT
ATOM      1  C   UNL     1      43.230   4.506  11.282  0.00  0.00    +0.000 C 
ENDROOT
BRANCH   1   6
ATOM      2  C   UNL     1      46.232   5.400  13.462  0.00  0.00    +0.000 A 
ATOM      3  C   UNL     1      46.280   6.773  13.232  0.00  0.00    +0.000 A 
ATOM      4  C   UNL     1      45.356   7.330  12.360  0.00  0.00    +0.000 A 
ATOM      5  N   UNL     1      44.393   6.624  11.726  0.00  0.00    +0.000 NA
ATOM      6  C   UNL     1      44.335   5.288  11.961  0.00  0.00    +0.000 A 
ATOM      7  C   UNL     1      45.255   4.649  12.794  0.00  0.00    +0.000 A 
BRANCH   2   8
ATOM      8  C   UNL     1      47.170   4.726  14.426  0.00  0.00    +0.000 C 
BRANCH   8   9
ATOM      9  N   UNL     1      47.244   3.292  14.180  0.00  0.00    +0.000 NA
ATOM     10  H   UNL     1      47.774   3.126  13.326  0.00  0.00    +0.000 HD
ATOM     11  H   UNL     1      46.305   2.936  14.012  0.00  0.00    +0.000 HD
ENDBRANCH   8   9
ENDBRANCH   2   8
ENDBRANCH   1   6
BRANCH   1  12
ATOM     12  S   UNL     1      43.762   2.801  10.865  0.00  0.00    +0.000 S 
BRANCH  12  13
ATOM     13  C   UNL     1      44.927   3.097   9.550  0.00  0.00    +0.000 A 
ATOM     14  C   UNL     1      45.102   4.365   8.992  0.00  0.00    +0.000 A 
ATOM     15  C   UNL     1      45.927   4.543   7.876  0.00  0.00    +0.000 A 
ATOM     16  C   UNL     1      46.593   3.451   7.312  0.00  0.00    +0.000 A 
ATOM     17  C   UNL     1      46.443   2.179   7.877  0.00  0.00    +0.000 A 
ATOM     18  C   UNL     1      45.596   2.006   8.982  0.00  0.00    +0.000 A 
BRANCH  17  19
ATOM     19  C   UNL     1      47.095   0.970   7.317  0.00  0.00    +0.000 C 
ATOM     20  O   UNL     1      47.887   1.012   6.392  0.00  0.00    +0.000 OA
BRANCH  19  21
ATOM     21  O   UNL     1      46.703  -0.190   7.890  0.00  0.00    +0.000 OA
ATOM     22  H   UNL     1      46.364  -0.114   8.801  0.00  0.00    +0.000 HD
ENDBRANCH  19  21
ENDBRANCH  17  19
ENDBRANCH  12  13
ENDBRANCH   1  12
TORSDOF 7
ENDMDL
MODEL 3
REMARK VINA RESULT:    -7.420      3.463      6.440
REMARK INTER + INTRA:         -10.361
REMARK INTER:                  -9.958
REMARK INTRA:                  -0.403
REMARK UNBOUND:                -0.338
REMARK  Name = 
REMARK  7 active torsions:
REMARK  status: ('A' for Active; 'I' for Inactive)
REMARK    1  A    between atoms: N_1  and  C_2
REMARK    2  A    between atoms: C_2  and  C_3
REMARK    3  A    between atoms: C_7  and  C_8
REMARK    4  A    between atoms: C_8  and  S_9
REMARK    5  A    between atoms: S_9  and  C_10
REMARK    6  A    between atoms: C_14  and  C_15
REMARK    7  A    between atoms: C_15  and  O_17
REMARK                            x       y       z     vdW  Elec       q    Type
REMARK                         _______ _______ _______ _____ _____    ______ ____
ROOT
ATOM      1  C   UNL     1      43.624   4.472  11.681  0.00  0.00    +0.000 C 
ENDROOT
BRANCH   1   6
ATOM      2  C   UNL     1      46.559   6.456  13.099  0.00  0.00    +0.000 A 
ATOM      3  C   UNL     1      47.209   5.438  13.794  0.00  0.00    +0.000 A 
ATOM      4  C   UNL     1      46.644   4.171  13.790  0.00  0.00    +0.000 A 
ATOM      5  N   UNL     1      45.503   3.852  13.137  0.00  0.00    +0.000 NA
ATOM      6  C   UNL     1      44.878   4.840  12.447  0.00  0.00    +0.000 A 
ATOM      7  C   UNL     1      45.363   6.149  12.436  0.00  0.00    +0.000 A 
BRANCH   2   8
ATOM      8  C   UNL     1      47.130   7.846  13.018  0.00  0.00    +0.000 C 
BRANCH   8   9
ATOM      9  N   UNL     1      46.278   8.809  13.703  0.00  0.00    +0.000 NA
ATOM     10  H   UNL     1      45.313   8.672  13.407  0.00  0.00    +0.000 HD
ATOM     11  H   UNL     1      46.539   9.749  13.412  0.00  0.00    +0.000 HD
ENDBRANCH   8   9
ENDBRANCH   2   8
ENDBRANCH   1   6
BRANCH   1  12
ATOM     12  S   UNL     1      43.758   2.811  10.916  0.00  0.00    +0.000 S 
BRANCH  12  13
ATOM     13  C   UNL     1      44.929   3.108   9.607  0.00  0.00    +0.000 A 
ATOM     14  C   UNL     1      45.137   4.386   9.081  0.00  0.00    +0.000 A 
ATOM     15  C   UNL     1      45.966   4.570   7.968  0.00  0.00    +0.000 A 
ATOM     16  C   UNL     1      46.600   3.475   7.374  0.00  0.00    +0.000 A 
ATOM     17  C   UNL     1      46.416   2.194   7.907  0.00  0.00    +0.000 A 
ATOM     18  C   UNL     1      45.566   2.015   9.008  0.00  0.00    +0.000 A 
BRANCH  17  19
ATOM     19  C   UNL     1      47.033   0.982   7.314  0.00  0.00    +0.000 C 
ATOM     20  O   UNL     1      46.761  -0.148   7.679  0.00  0.00    +0.000 OA
BRANCH  19  21
ATOM     21  O   UNL     1      47.958   1.238   6.362  0.00  0.00    +0.000 OA
ATOM     22  H   UNL     1      48.047   2.173   6.104  0.00  0.00    +0.000 HD
ENDBRANCH  19  21
ENDBRANCH  17  19
ENDBRANCH  12  13
ENDBRANCH   1  12
TORSDOF 7
ENDMDL
MODEL 4
REMARK VINA RESULT:    -6.866      2.080      2.772
REMARK INTER + INTRA:          -9.612
REMARK INTER:                  -9.165
REMARK INTRA:                  -0.448
REMARK UNBOUND:                -0.338
REMARK  Name = 
REMARK  7 active torsions:
REMARK  status: ('A' for Active; 'I' for Inactive)
REMARK    1  A    between atoms: N_1  and  C_2
REMARK    2  A    between atoms: C_2  and  C_3
REMARK    3  A    between atoms: C_7  and  C_8
REMARK    4  A    between atoms: C_8  and  S_9
REMARK    5  A    between atoms: S_9  and  C_10
REMARK    6  A    between atoms: C_14  and  C_15
REMARK    7  A    between atoms: C_15  and  O_17
REMARK                            x       y       z     vdW  Elec       q    Type
REMARK                         _______ _______ _______ _____ _____    ______ ____
ROOT
ATOM      1  C   UNL     1      44.229   4.526   9.253  0.00  0.00    +0.000 C 
ENDROOT
BRANCH   1   6
ATOM      2  C   UNL     1      46.684   2.629   7.030  0.00  0.00    +0.000 A 
ATOM      3  C   UNL     1      46.541   1.352   7.569  0.00  0.00    +0.000 A 
ATOM      4  C   UNL     1      45.679   1.182   8.643  0.00  0.00    +0.000 A 
ATOM      5  N   UNL     1      44.951   2.178   9.195  0.00  0.00    +0.000 NA
ATOM      6  C   UNL     1      45.078   3.419   8.661  0.00  0.00    +0.000 A 
ATOM      7  C   UNL     1      45.954   3.678   7.606  0.00  0.00    +0.000 A 
BRANCH   2   8
ATOM      8  C   UNL     1      47.564   2.890   5.838  0.00  0.00    +0.000 C 
BRANCH   8   9
ATOM      9  N   UNL     1      48.549   1.830   5.664  0.00  0.00    +0.000 NA
ATOM     10  H   UNL     1      48.645   1.623   4.672  0.00  0.00    +0.000 HD
ATOM     11  H   UNL     1      48.204   0.980   6.106  0.00  0.00    +0.000 HD
ENDBRANCH   8   9
ENDBRANCH   2   8
ENDBRANCH   1   6
BRANCH   1  12
ATOM     12  S   UNL     1      43.669   4.117  10.951  0.00  0.00    +0.000 S 
BRANCH  12  13
ATOM     13  C   UNL     1      45.081   4.597  11.925  0.00  0.00    +0.000 A 
ATOM     14  C   UNL     1      45.746   3.691  12.755  0.00  0.00    +0.000 A 
ATOM     15  C   UNL     1      46.769   4.125  13.605  0.00  0.00    +0.000 A 
ATOM     16  C   UNL     1      47.141   5.472  13.627  0.00  0.00    +0.000 A 
ATOM     17  C   UNL     1      46.497   6.384  12.783  0.00  0.00    +0.000 A 
ATOM     18  C   UNL     1      45.457   5.945  11.950  0.00  0.00    +0.000 A 
BRANCH  17  19
ATOM     19  C   UNL     1      46.819   7.833  12.772  0.00  0.00    +0.000 C 
ATOM     20  O   UNL     1      47.670   8.317  12.047  0.00  0.00    +0.000 OA
BRANCH  19  21
ATOM     21  O   UNL     1      46.119   8.565  13.666  0.00  0.00    +0.000 OA
ATOM     22  H   UNL     1      45.249   8.202  13.917  0.00  0.00    +0.000 HD
ENDBRANCH  19  21
ENDBRANCH  17  19
ENDBRANCH  12  13
ENDBRANCH   1  12
TORSDOF 7
ENDMDL
MODEL 5
REMARK VINA RESULT:    -6.356      3.636      6.383
REMARK INTER + INTRA:          -8.924
REMARK INTER:                  -8.427
REMARK INTRA:                  -0.497
REMARK UNBOUND:                -0.338
REMARK  Name = 
REMARK  7 active torsions:
REMARK  status: ('A' for Active; 'I' for Inactive)
REMARK    1  A    between atoms: N_1  and  C_2
REMARK    2  A    between atoms: C_2  and  C_3
REMARK    3  A    between atoms: C_7  and  C_8
REMARK    4  A    between atoms: C_8  and  S_9
REMARK    5  A    between atoms: S_9  and  C_10
REMARK    6  A    between atoms: C_14  and  C_15
REMARK    7  A    between atoms: C_15  and  O_17
REMARK                            x       y       z     vdW  Elec       q    Type
REMARK                         _______ _______ _______ _____ _____    ______ ____
ROOT
ATOM      1  C   UNL     1      45.782   6.672  11.003  0.00  0.00    +0.000 C 
ENDROOT
BRANCH   1   6
ATOM      2  C   UNL     1      47.344   5.514  14.287  0.00  0.00    +0.000 A 
ATOM      3  C   UNL     1      48.286   6.525  14.461  0.00  0.00    +0.000 A 
ATOM      4  C   UNL     1      48.384   7.511  13.490  0.00  0.00    +0.000 A 
ATOM      5  N   UNL     1      47.608   7.564  12.384  0.00  0.00    +0.000 NA
ATOM      6  C   UNL     1      46.679   6.588  12.221  0.00  0.00    +0.000 A 
ATOM      7  C   UNL     1      46.547   5.540  13.134  0.00  0.00    +0.000 A 
BRANCH   2   8
ATOM      8  C   UNL     1      47.144   4.433  15.315  0.00  0.00    +0.000 C 
BRANCH   8   9
ATOM      9  N   UNL     1      47.596   3.139  14.819  0.00  0.00    +0.000 NA
ATOM     10  H   UNL     1      48.601   3.058  14.966  0.00  0.00    +0.000 HD
ATOM     11  H   UNL     1      47.447   3.099  13.813  0.00  0.00    +0.000 HD
ENDBRANCH   8   9
ENDBRANCH   2   8
ENDBRANCH   1   6
BRANCH   1  12
ATOM     12  S   UNL     1      44.208   5.765  11.255  0.00  0.00    +0.000 S 
BRANCH  12  13
ATOM     13  C   UNL     1      44.437   4.343  10.209  0.00  0.00    +0.000 A 
ATOM     14  C   UNL     1      43.977   3.076  10.575  0.00  0.00    +0.000 A 
ATOM     15  C   UNL     1      44.284   1.955   9.796  0.00  0.00    +0.000 A 
ATOM     16  C   UNL     1      45.050   2.093   8.636  0.00  0.00    +0.000 A 
ATOM     17  C   UNL     1      45.498   3.361   8.247  0.00  0.00    +0.000 A 
ATOM     18  C   UNL     1      45.205   4.476   9.046  0.00  0.00    +0.000 A 
BRANCH  17  19
ATOM     19  C   UNL     1      46.339   3.581   7.044  0.00  0.00    +0.000 C 
ATOM     20  O   UNL     1      46.281   2.871   6.055  0.00  0.00    +0.000 OA
BRANCH  19  21
ATOM     21  O   UNL     1      47.209   4.610   7.154  0.00  0.00    +0.000 OA
ATOM     22  H   UNL     1      46.848   5.422   7.554  0.00  0.00    +0.000 HD
ENDBRANCH  19  21
ENDBRANCH  17  19
ENDBRANCH  12  13
ENDBRANCH   1  12
TORSDOF 7
ENDMDL
MODEL 6
REMARK VINA RESULT:    -6.175      2.126      2.841
REMARK INTER + INTRA:          -8.678
REMARK INTER:                  -8.180
REMARK INTRA:                  -0.498
REMARK UNBOUND:                -0.338
REMARK  Name = 
REMARK  7 active torsions:
REMARK  status: ('A' for Active; 'I' for Inactive)
REMARK    1  A    between atoms: N_1  and  C_2
REMARK    2  A    between atoms: C_2  and  C_3
REMARK    3  A    between atoms: C_7  and  C_8
REMARK    4  A    between atoms: C_8  and  S_9
REMARK    5  A    between atoms: S_9  and  C_10
REMARK    6  A    between atoms: C_14  and  C_15
REMARK    7  A    between atoms: C_15  and  O_17
REMARK                            x       y       z     vdW  Elec       q    Type
REMARK                         _______ _______ _______ _____ _____    ______ ____
ROOT
ATOM      1  C   UNL     1      43.614   5.328  10.934  0.00  0.00    +0.000 C 
ENDROOT
BRANCH   1   6
ATOM      2  C   UNL     1      45.788   3.677   8.267  0.00  0.00    +0.000 A 
ATOM      3  C   UNL     1      45.382   2.354   8.428  0.00  0.00    +0.000 A 
ATOM      4  C   UNL     1      44.448   2.065   9.412  0.00  0.00    +0.000 A 
ATOM      5  N   UNL     1      43.889   2.993  10.222  0.00  0.00    +0.000 NA
ATOM      6  C   UNL     1      44.272   4.284  10.055  0.00  0.00    +0.000 A 
ATOM      7  C   UNL     1      45.236   4.649   9.113  0.00  0.00    +0.000 A 
BRANCH   2   8
ATOM      8  C   UNL     1      46.763   4.079   7.194  0.00  0.00    +0.000 C 
BRANCH   8   9
ATOM      9  N   UNL     1      47.722   3.016   6.923  0.00  0.00    +0.000 NA
ATOM     10  H   UNL     1      48.603   3.236   7.384  0.00  0.00    +0.000 HD
ATOM     11  H   UNL     1      47.916   2.992   5.924  0.00  0.00    +0.000 HD
ENDBRANCH   8   9
ENDBRANCH   2   8
ENDBRANCH   1   6
BRANCH   1  12
ATOM     12  S   UNL     1      44.250   5.268  12.653  0.00  0.00    +0.000 S 
BRANCH  12  13
ATOM     13  C   UNL     1      45.428   6.604  12.651  0.00  0.00    +0.000 A 
ATOM     14  C   UNL     1      45.104   7.871  12.158  0.00  0.00    +0.000 A 
ATOM     15  C   UNL     1      46.085   8.863  12.050  0.00  0.00    +0.000 A 
ATOM     16  C   UNL     1      47.400   8.598  12.441  0.00  0.00    +0.000 A 
ATOM     17  C   UNL     1      47.731   7.339  12.957  0.00  0.00    +0.000 A 
ATOM     18  C   UNL     1      46.747   6.343  13.041  0.00  0.00    +0.000 A 
BRANCH  17  19
ATOM     19  C   UNL     1      49.110   6.977  13.366  0.00  0.00    +0.000 C 
ATOM     20  O   UNL     1      49.400   6.648  14.502  0.00  0.00    +0.000 OA
BRANCH  19  21
ATOM     21  O   UNL     1      50.029   7.084  12.380  0.00  0.00    +0.000 OA
ATOM     22  H   UNL     1      50.799   6.492  12.459  0.00  0.00    +0.000 HD
ENDBRANCH  19  21
ENDBRANCH  17  19
ENDBRANCH  12  13
ENDBRANCH   1  12
TORSDOF 7
ENDMDL
MODEL 7
REMARK VINA RESULT:    -6.009      2.644      4.394
REMARK INTER + INTRA:          -8.454
REMARK INTER:                  -8.008
REMARK INTRA:                  -0.446
REMARK UNBOUND:                -0.338
REMARK  Name = 
REMARK  7 active torsions:
REMARK  status: ('A' for Active; 'I' for Inactive)
REMARK    1  A    between atoms: N_1  and  C_2
REMARK    2  A    between atoms: C_2  and  C_3
REMARK    3  A    between atoms: C_7  and  C_8
REMARK    4  A    between atoms: C_8  and  S_9
REMARK    5  A    between atoms: S_9  and  C_10
REMARK    6  A    between atoms: C_14  and  C_15
REMARK    7  A    between atoms: C_15  and  O_17
REMARK                            x       y       z     vdW  Elec       q    Type
REMARK                         _______ _______ _______ _____ _____    ______ ____
ROOT
ATOM      1  C   UNL     1      45.770   7.329  12.721  0.00  0.00    +0.000 C 
ENDROOT
BRANCH   1   6
ATOM      2  C   UNL     1      44.293   4.588  10.515  0.00  0.00    +0.000 A 
ATOM      3  C   UNL     1      43.310   4.105  11.376  0.00  0.00    +0.000 A 
ATOM      4  C   UNL     1      43.199   4.675  12.636  0.00  0.00    +0.000 A 
ATOM      5  N   UNL     1      43.978   5.687  13.081  0.00  0.00    +0.000 NA
ATOM      6  C   UNL     1      44.926   6.167  12.237  0.00  0.00    +0.000 A 
ATOM      7  C   UNL     1      45.125   5.620  10.968  0.00  0.00    +0.000 A 
BRANCH   2   8
ATOM      8  C   UNL     1      44.450   4.054   9.116  0.00  0.00    +0.000 C 
BRANCH   8   9
ATOM      9  N   UNL     1      45.436   4.819   8.364  0.00  0.00    +0.000 NA
ATOM     10  H   UNL     1      45.274   4.685   7.368  0.00  0.00    +0.000 HD
ATOM     11  H   UNL     1      46.363   4.446   8.559  0.00  0.00    +0.000 HD
ENDBRANCH   8   9
ENDBRANCH   2   8
ENDBRANCH   1   6
BRANCH   1  12
ATOM     12  S   UNL     1      47.562   6.954  12.620  0.00  0.00    +0.000 S 
BRANCH  12  13
ATOM     13  C   UNL     1      47.935   6.506  14.303  0.00  0.00    +0.000 A 
ATOM     14  C   UNL     1      48.644   7.358  15.153  0.00  0.00    +0.000 A 
ATOM     15  C   UNL     1      49.034   6.929  16.426  0.00  0.00    +0.000 A 
ATOM     16  C   UNL     1      48.711   5.642  16.865  0.00  0.00    +0.000 A 
ATOM     17  C   UNL     1      47.980   4.788  16.031  0.00  0.00    +0.000 A 
ATOM     18  C   UNL     1      47.613   5.218  14.747  0.00  0.00    +0.000 A 
BRANCH  17  19
ATOM     19  C   UNL     1      47.625   3.400  16.417  0.00  0.00    +0.000 C 
ATOM     20  O   UNL     1      46.760   3.140  17.234  0.00  0.00    +0.000 OA
BRANCH  19  21
ATOM     21  O   UNL     1      48.373   2.447  15.817  0.00  0.00    +0.000 OA
ATOM     22  H   UNL     1      49.337   2.533  15.938  0.00  0.00    +0.000 HD
ENDBRANCH  19  21
ENDBRANCH  17  19
ENDBRANCH  12  13
ENDBRANCH   1  12
TORSDOF 7
ENDMDL
MODEL 8
REMARK VINA RESULT:    -5.955      4.234      7.208
REMARK INTER + INTRA:          -8.382
REMARK INTER:                  -7.996
REMARK INTRA:                  -0.386
REMARK UNBOUND:                -0.338
REMARK  Name = 
REMARK  7 active torsions:
REMARK  status: ('A' for Active; 'I' for Inactive)
REMARK    1  A    between atoms: N_1  and  C_2
REMARK    2  A    between atoms: C_2  and  C_3
REMARK    3  A    between atoms: C_7  and  C_8
REMARK    4  A    between atoms: C_8  and  S_9
REMARK    5  A    between atoms: S_9  and  C_10
REMARK    6  A    between atoms: C_14  and  C_15
REMARK    7  A    between atoms: C_15  and  O_17
REMARK                            x       y       z     vdW  Elec       q    Type
REMARK                         _______ _______ _______ _____ _____    ______ ____
ROOT
ATOM      1  C   UNL     1      47.694   6.202  12.888  0.00  0.00    +0.000 C 
ENDROOT
BRANCH   1   6
ATOM      2  C   UNL     1      48.011   5.133  16.538  0.00  0.00    +0.000 A 
ATOM      3  C   UNL     1      49.129   5.882  16.899  0.00  0.00    +0.000 A 
ATOM      4  C   UNL     1      49.737   6.669  15.932  0.00  0.00    +0.000 A 
ATOM      5  N   UNL     1      49.303   6.771  14.656  0.00  0.00    +0.000 NA
ATOM      6  C   UNL     1      48.205   6.054  14.307  0.00  0.00    +0.000 A 
ATOM      7  C   UNL     1      47.561   5.209  15.212  0.00  0.00    +0.000 A 
BRANCH   2   8
ATOM      8  C   UNL     1      47.268   4.289  17.538  0.00  0.00    +0.000 C 
BRANCH   8   9
ATOM      9  N   UNL     1      46.576   5.114  18.519  0.00  0.00    +0.000 NA
ATOM     10  H   UNL     1      46.253   4.524  19.284  0.00  0.00    +0.000 HD
ATOM     11  H   UNL     1      45.744   5.513  18.089  0.00  0.00    +0.000 HD
ENDBRANCH   8   9
ENDBRANCH   2   8
ENDBRANCH   1   6
BRANCH   1  12
ATOM     12  S   UNL     1      46.011   6.928  12.845  0.00  0.00    +0.000 S 
BRANCH  12  13
ATOM     13  C   UNL     1      45.086   5.650  12.019  0.00  0.00    +0.000 A 
ATOM     14  C   UNL     1      44.206   4.814  12.710  0.00  0.00    +0.000 A 
ATOM     15  C   UNL     1      43.591   3.737  12.061  0.00  0.00    +0.000 A 
ATOM     16  C   UNL     1      43.847   3.491  10.709  0.00  0.00    +0.000 A 
ATOM     17  C   UNL     1      44.710   4.337  10.001  0.00  0.00    +0.000 A 
ATOM     18  C   UNL     1      45.339   5.400  10.665  0.00  0.00    +0.000 A 
BRANCH  17  19
ATOM     19  C   UNL     1      45.050   4.122   8.573  0.00  0.00    +0.000 C 
ATOM     20  O   UNL     1      45.948   4.721   8.008  0.00  0.00    +0.000 OA
BRANCH  19  21
ATOM     21  O   UNL     1      44.251   3.237   7.937  0.00  0.00    +0.000 OA
ATOM     22  H   UNL     1      43.590   3.626   7.335  0.00  0.00    +0.000 HD
ENDBRANCH  19  21
ENDBRANCH  17  19
ENDBRANCH  12  13
ENDBRANCH   1  12
TORSDOF 7
ENDMDL
MODEL 9
REMARK VINA RESULT:    -5.806      2.462      3.499
REMARK INTER + INTRA:          -8.181
REMARK INTER:                  -7.811
REMARK INTRA:                  -0.370
REMARK UNBOUND:                -0.338
REMARK  Name = 
REMARK  7 active torsions:
REMARK  status: ('A' for Active; 'I' for Inactive)
REMARK    1  A    between atoms: N_1  and  C_2
REMARK    2  A    between atoms: C_2  and  C_3
REMARK    3  A    between atoms: C_7  and  C_8
REMARK    4  A    between atoms: C_8  and  S_9
REMARK    5  A    between atoms: S_9  and  C_10
REMARK    6  A    between atoms: C_14  and  C_15
REMARK    7  A    between atoms: C_15  and  O_17
REMARK                            x       y       z     vdW  Elec       q    Type
REMARK                         _______ _______ _______ _____ _____    ______ ____
ROOT
ATOM      1  C   UNL     1      45.340   6.339  11.022  0.00  0.00    +0.000 C 
ENDROOT
BRANCH   1   6
ATOM      2  C   UNL     1      45.376   3.487   8.486  0.00  0.00    +0.000 A 
ATOM      3  C   UNL     1      44.605   2.555   9.179  0.00  0.00    +0.000 A 
ATOM      4  C   UNL     1      44.142   2.891  10.442  0.00  0.00    +0.000 A 
ATOM      5  N   UNL     1      44.376   4.079  11.044  0.00  0.00    +0.000 NA
ATOM      6  C   UNL     1      45.114   4.993  10.364  0.00  0.00    +0.000 A 
ATOM      7  C   UNL     1      45.649   4.715   9.105  0.00  0.00    +0.000 A 
BRANCH   2   8
ATOM      8  C   UNL     1      45.880   3.217   7.094  0.00  0.00    +0.000 C 
BRANCH   8   9
ATOM      9  N   UNL     1      46.921   4.164   6.714  0.00  0.00    +0.000 NA
ATOM     10  H   UNL     1      46.584   4.740   5.945  0.00  0.00    +0.000 HD
ATOM     11  H   UNL     1      47.724   3.648   6.360  0.00  0.00    +0.000 HD
ENDBRANCH   8   9
ENDBRANCH   2   8
ENDBRANCH   1   6
BRANCH   1  12
ATOM     12  S   UNL     1      45.742   6.165  12.803  0.00  0.00    +0.000 S 
BRANCH  12  13
ATOM     13  C   UNL     1      47.351   6.924  12.888  0.00  0.00    +0.000 A 
ATOM     14  C   UNL     1      47.945   7.518  11.772  0.00  0.00    +0.000 A 
ATOM     15  C   UNL     1      49.260   7.991  11.834  0.00  0.00    +0.000 A 
ATOM     16  C   UNL     1      49.992   7.881  13.020  0.00  0.00    +0.000 A 
ATOM     17  C   UNL     1      49.399   7.308  14.151  0.00  0.00    +0.000 A 
ATOM     18  C   UNL     1      48.087   6.815  14.073  0.00  0.00    +0.000 A 
BRANCH  17  19
ATOM     19  C   UNL     1      50.122   7.131  15.434  0.00  0.00    +0.000 C 
ATOM     20  O   UNL     1      50.931   7.939  15.856  0.00  0.00    +0.000 OA
BRANCH  19  21
ATOM     21  O   UNL     1      49.841   5.976  16.077  0.00  0.00    +0.000 OA
ATOM     22  H   UNL     1      50.367   5.804  16.880  0.00  0.00    +0.000 HD
ENDBRANCH  19  21
ENDBRANCH  17  19
ENDBRANCH  12  13
ENDBRANCH   1  12
TORSDOF 7
ENDMDL
