MODEL 1
REMARK VINA RESULT:    -8.876      0.000      0.000
REMARK INTER + INTRA:         -11.567
REMARK INTER:                 -11.470
REMARK INTRA:                  -0.097
REMARK UNBOUND:                -0.097
REMARK  Name = 
REMARK  5 active torsions:
REMARK  status: ('A' for Active; 'I' for Inactive)
REMARK    1  A    between atoms: C_2  and  C_4
REMARK    2  A    between atoms: C_7  and  C_8
REMARK    3  A    between atoms: C_12  and  C_13
REMARK    4  A    between atoms: C_13  and  C_14
REMARK    5  A    between atoms: C_14  and  C_15
REMARK                            x       y       z     vdW  Elec       q    Type
REMARK                         _______ _______ _______ _____ _____    ______ ____
ROOT
ATOM      1  C   UNL     1      47.001   5.518  13.369  0.00  0.00    +0.000 A 
ATOM      2  N   UNL     1      47.389   6.672  12.796  0.00  0.00    +0.000 NA
ATOM      3  C   UNL     1      46.791   6.985  11.633  0.00  0.00    +0.000 A 
ATOM      4  C   UNL     1      45.818   6.212  11.044  0.00  0.00    +0.000 A 
ATOM      5  C   UNL     1      45.454   5.055  11.707  0.00  0.00    +0.000 A 
ATOM      6  N   UNL     1      46.077   4.693  12.847  0.00  0.00    +0.000 NA
ENDROOT
BRANCH   1  10
ATOM      7  C   UNL     1      48.521   4.319  17.136  0.00  0.00    +0.000 A 
ATOM      8  C   UNL     1      47.809   3.472  16.305  0.00  0.00    +0.000 A 
ATOM      9  N   UNL     1      47.317   3.851  15.101  0.00  0.00    +0.000 NA
ATOM     10  C   UNL     1      47.552   5.139  14.684  0.00  0.00    +0.000 A 
ATOM     11  C   UNL     1      48.283   6.027  15.464  0.00  0.00    +0.000 A 
ATOM     12  F   UNL     1      48.562   7.274  15.054  0.00  0.00    +0.000 F 
ATOM     13  C   UNL     1      48.776   5.617  16.698  0.00  0.00    +0.000 A 
BRANCH   7  15
ATOM     14  N   UNL     1      48.127   3.006  19.135  0.00  0.00    +0.000 N 
ATOM     15  C   UNL     1      48.984   3.814  18.446  0.00  0.00    +0.000 C 
ATOM     16  O   UNL     1      50.097   4.079  18.870  0.00  0.00    +0.000 OA
ATOM     17  H   UNL     1      48.489   2.581  19.980  0.00  0.00    +0.000 HD
ATOM     18  H   UNL     1      47.316   2.575  18.710  0.00  0.00    +0.000 HD
ENDBRANCH   7  15
ENDBRANCH   1  10
BRANCH   5  19
ATOM     19  C   UNL     1      44.308   4.176  11.270  0.00  0.00    +0.000 C 
ATOM     20  C   UNL     1      43.144   3.983  12.226  0.00  0.00    +0.000 C 
ATOM     21  O   UNL     1      44.068   2.926  11.945  0.00  0.00    +0.000 OA
BRANCH  19  22
ATOM     22  C   UNL     1      44.003   4.173   9.788  0.00  0.00    +0.000 C 
BRANCH  22  23
ATOM     23  C   UNL     1      45.056   3.462   8.962  0.00  0.00    +0.000 A 
ATOM     24  C   UNL     1      45.216   2.070   9.051  0.00  0.00    +0.000 A 
ATOM     25  C   UNL     1      46.134   1.410   8.233  0.00  0.00    +0.000 A 
ATOM     26  C   UNL     1      46.890   2.138   7.321  0.00  0.00    +0.000 A 
ATOM     27  F   UNL     1      47.748   1.498   6.517  0.00  0.00    +0.000 F 
ATOM     28  C   UNL     1      46.760   3.519   7.229  0.00  0.00    +0.000 A 
ATOM     29  C   UNL     1      45.849   4.181   8.052  0.00  0.00    +0.000 A 
ENDBRANCH  22  23
ENDBRANCH  19  22
ENDBRANCH   5  19
TORSDOF 5
ENDMDL
MODEL 2
REMARK VINA RESULT:    -8.436      3.047      4.650
REMARK INTER + INTRA:         -11.000
REMARK INTER:                 -10.391
REMARK INTRA:                  -0.609
REMARK UNBOUND:                -0.097
REMARK  Name = 
REMARK  5 active torsions:
REMARK  status: ('A' for Active; 'I' for Inactive)
REMARK    1  A    between atoms: C_2  and  C_4
REMARK    2  A    between atoms: C_7  and  C_8
REMARK    3  A    between atoms: C_12  and  C_13
REMARK    4  A    between atoms: C_13  and  C_14
REMARK    5  A    between atoms: C_14  and  C_15
REMARK                            x       y       z     vdW  Elec       q    Type
REMARK                         _______ _______ _______ _____ _____    ______ ____
ROOT
ATOM      1  C   UNL     1      46.880   5.947  12.559  0.00  0.00    +0.000 A 
ATOM      2  N   UNL     1      47.507   5.057  13.349  0.00  0.00    +0.000 NA
ATOM      3  C   UNL     1      46.929   3.847  13.453  0.00  0.00    +0.000 A 
ATOM      4  C   UNL     1      45.779   3.493  12.788  0.00  0.00    +0.000 A 
ATOM      5  C   UNL     1      45.207   4.453  11.974  0.00  0.00    +0.000 A 
ATOM      6  N   UNL     1      45.740   5.690  11.896  0.00  0.00    +0.000 NA
ENDROOT
BRANCH   1  10
ATOM      7  C   UNL     1      48.732   9.693  11.871  0.00  0.00    +0.000 A 
ATOM      8  C   UNL     1      49.315   8.488  11.521  0.00  0.00    +0.000 A 
ATOM      9  N   UNL     1      48.728   7.286  11.742  0.00  0.00    +0.000 NA
ATOM     10  C   UNL     1      47.488   7.272  12.332  0.00  0.00    +0.000 A 
ATOM     11  C   UNL     1      46.842   8.452  12.681  0.00  0.00    +0.000 A 
ATOM     12  F   UNL     1      45.611   8.462  13.216  0.00  0.00    +0.000 F 
ATOM     13  C   UNL     1      47.464   9.674  12.447  0.00  0.00    +0.000 A 
BRANCH   7  15
ATOM     14  N   UNL     1      49.319  11.516  10.385  0.00  0.00    +0.000 N 
ATOM     15  C   UNL     1      49.473  10.947  11.616  0.00  0.00    +0.000 C 
ATOM     16  O   UNL     1      50.159  11.466  12.481  0.00  0.00    +0.000 OA
ATOM     17  H   UNL     1      49.745  12.424  10.252  0.00  0.00    +0.000 HD
ATOM     18  H   UNL     1      48.582  11.252   9.745  0.00  0.00    +0.000 HD
ENDBRANCH   7  15
ENDBRANCH   1  10
BRANCH   5  19
ATOM     19  C   UNL     1      44.031   4.179  11.070  0.00  0.00    +0.000 C 
ATOM     20  C   UNL     1      42.634   4.300  11.652  0.00  0.00    +0.000 C 
ATOM     21  O   UNL     1      43.198   3.029  11.312  0.00  0.00    +0.000 OA
BRANCH  19  22
ATOM     22  C   UNL     1      44.215   4.543   9.613  0.00  0.00    +0.000 C 
BRANCH  22  23
ATOM     23  C   UNL     1      45.192   3.637   8.890  0.00  0.00    +0.000 A 
ATOM     24  C   UNL     1      45.147   2.246   9.072  0.00  0.00    +0.000 A 
ATOM     25  C   UNL     1      45.997   1.410   8.346  0.00  0.00    +0.000 A 
ATOM     26  C   UNL     1      46.888   1.963   7.433  0.00  0.00    +0.000 A 
ATOM     27  F   UNL     1      47.681   1.156   6.717  0.00  0.00    +0.000 F 
ATOM     28  C   UNL     1      46.961   3.338   7.249  0.00  0.00    +0.000 A 
ATOM     29  C   UNL     1      46.119   4.176   7.981  0.00  0.00    +0.000 A 
ENDBRANCH  22  23
ENDBRANCH  19  22
ENDBRANCH   5  19
TORSDOF 5
ENDMDL
MODEL 3
REMARK VINA RESULT:    -7.884      4.304      7.780
REMARK INTER + INTRA:         -10.285
REMARK INTER:                  -9.926
REMARK INTRA:                  -0.359
REMARK UNBOUND:                -0.097
REMARK  Name = 
REMARK  5 active torsions:
REMARK  status: ('A' for Active; 'I' for Inactive)
REMARK    1  A    between atoms: C_2  and  C_4
REMARK    2  A    between atoms: C_7  and  C_8
REMARK    3  A    between atoms: C_12  and  C_13
REMARK    4  A    between atoms: C_13  and  C_14
REMARK    5  A    between atoms: C_14  and  C_15
REMARK                            x       y       z     vdW  Elec       q    Type
REMARK                         _______ _______ _______ _____ _____    ______ ____
ROOT
ATOM      1  C   UNL     1      44.469   4.754  10.271  0.00  0.00    +0.000 A 
ATOM      2  N   UNL     1      43.314   4.229  10.716  0.00  0.00    +0.000 NA
ATOM      3  C   UNL     1      42.619   4.981  11.588  0.00  0.00    +0.000 A 
ATOM      4  C   UNL     1      43.019   6.228  12.007  0.00  0.00    +0.000 A 
ATOM      5  C   UNL     1      44.204   6.711  11.485  0.00  0.00    +0.000 A 
ATOM      6  N   UNL     1      44.944   5.953  10.650  0.00  0.00    +0.000 NA
ENDROOT
BRANCH   1  10
ATOM      7  C   UNL     1      46.753   2.780   7.300  0.00  0.00    +0.000 A 
ATOM      8  C   UNL     1      46.746   4.155   7.457  0.00  0.00    +0.000 A 
ATOM      9  N   UNL     1      46.014   4.792   8.403  0.00  0.00    +0.000 NA
ATOM     10  C   UNL     1      45.254   4.028   9.255  0.00  0.00    +0.000 A 
ATOM     11  C   UNL     1      45.242   2.641   9.162  0.00  0.00    +0.000 A 
ATOM     12  F   UNL     1      44.541   1.875  10.013  0.00  0.00    +0.000 F 
ATOM     13  C   UNL     1      45.997   2.008   8.182  0.00  0.00    +0.000 A 
BRANCH   7  15
ATOM     14  N   UNL     1      47.806   2.976   5.126  0.00  0.00    +0.000 N 
ATOM     15  C   UNL     1      47.560   2.188   6.214  0.00  0.00    +0.000 C 
ATOM     16  O   UNL     1      48.016   1.059   6.304  0.00  0.00    +0.000 OA
ATOM     17  H   UNL     1      48.444   2.602   4.434  0.00  0.00    +0.000 HD
ATOM     18  H   UNL     1      47.657   3.976   5.127  0.00  0.00    +0.000 HD
ENDBRANCH   7  15
ENDBRANCH   1  10
BRANCH   5  19
ATOM     19  C   UNL     1      44.706   8.112  11.730  0.00  0.00    +0.000 C 
ATOM     20  C   UNL     1      43.791   9.275  11.387  0.00  0.00    +0.000 C 
ATOM     21  O   UNL     1      44.960   8.986  10.613  0.00  0.00    +0.000 OA
BRANCH  19  22
ATOM     22  C   UNL     1      45.644   8.284  12.905  0.00  0.00    +0.000 C 
BRANCH  22  23
ATOM     23  C   UNL     1      47.107   8.256  12.511  0.00  0.00    +0.000 A 
ATOM     24  C   UNL     1      47.788   9.443  12.201  0.00  0.00    +0.000 A 
ATOM     25  C   UNL     1      49.154   9.421  11.914  0.00  0.00    +0.000 A 
ATOM     26  C   UNL     1      49.842   8.213  11.941  0.00  0.00    +0.000 A 
ATOM     27  F   UNL     1      51.158   8.199  11.694  0.00  0.00    +0.000 F 
ATOM     28  C   UNL     1      49.184   7.023  12.228  0.00  0.00    +0.000 A 
ATOM     29  C   UNL     1      47.817   7.042  12.507  0.00  0.00    +0.000 A 
ENDBRANCH  22  23
ENDBRANCH  19  22
ENDBRANCH   5  19
TORSDOF 5
ENDMDL
MODEL 4
REMARK VINA RESULT:    -7.682      2.960      7.801
REMARK INTER + INTRA:         -10.024
REMARK INTER:                  -9.225
REMARK INTRA:                  -0.799
REMARK UNBOUND:                -0.097
REMARK  Name = 
REMARK  5 active torsions:
REMARK  status: ('A' for Active; 'I' for Inactive)
REMARK    1  A    between atoms: C_2  and  C_4
REMARK    2  A    between atoms: C_7  and  C_8
REMARK    3  A    between atoms: C_12  and  C_13
REMARK    4  A    between atoms: C_13  and  C_14
REMARK    5  A    between atoms: C_14  and  C_15
REMARK                            x       y       z     vdW  Elec       q    Type
REMARK                         _______ _______ _______ _____ _____    ______ ____
ROOT
ATOM      1  C   UNL     1      48.030   6.353  13.782  0.00  0.00    +0.000 A 
ATOM      2  N   UNL     1      49.108   6.841  13.141  0.00  0.00    +0.000 NA
ATOM      3  C   UNL     1      50.067   7.374  13.919  0.00  0.00    +0.000 A 
ATOM      4  C   UNL     1      50.000   7.414  15.292  0.00  0.00    +0.000 A 
ATOM      5  C   UNL     1      48.874   6.869  15.878  0.00  0.00    +0.000 A 
ATOM      6  N   UNL     1      47.875   6.377  15.117  0.00  0.00    +0.000 NA
ENDROOT
BRANCH   1  10
ATOM      7  C   UNL     1      44.953   4.539  11.505  0.00  0.00    +0.000 A 
ATOM      8  C   UNL     1      45.411   5.824  11.267  0.00  0.00    +0.000 A 
ATOM      9  N   UNL     1      46.392   6.410  11.995  0.00  0.00    +0.000 NA
ATOM     10  C   UNL     1      46.967   5.683  13.009  0.00  0.00    +0.000 A 
ATOM     11  C   UNL     1      46.566   4.379  13.277  0.00  0.00    +0.000 A 
ATOM     12  F   UNL     1      47.146   3.637  14.234  0.00  0.00    +0.000 F 
ATOM     13  C   UNL     1      45.555   3.798  12.520  0.00  0.00    +0.000 A 
BRANCH   7  15
ATOM     14  N   UNL     1      43.812   4.411   9.370  0.00  0.00    +0.000 N 
ATOM     15  C   UNL     1      43.854   4.007  10.673  0.00  0.00    +0.000 C 
ATOM     16  O   UNL     1      43.045   3.211  11.124  0.00  0.00    +0.000 OA
ATOM     17  H   UNL     1      43.121   3.965   8.781  0.00  0.00    +0.000 HD
ATOM     18  H   UNL     1      44.591   4.863   8.910  0.00  0.00    +0.000 HD
ENDBRANCH   7  15
ENDBRANCH   1  10
BRANCH   5  19
ATOM     19  C   UNL     1      48.713   6.706  17.369  0.00  0.00    +0.000 C 
ATOM     20  C   UNL     1      48.336   7.927  18.189  0.00  0.00    +0.000 C 
ATOM     21  O   UNL     1      49.643   7.348  18.262  0.00  0.00    +0.000 OA
BRANCH  19  22
ATOM     22  C   UNL     1      48.197   5.363  17.838  0.00  0.00    +0.000 C 
BRANCH  22  23
ATOM     23  C   UNL     1      49.155   4.223  17.556  0.00  0.00    +0.000 A 
ATOM     24  C   UNL     1      50.505   4.314  17.928  0.00  0.00    +0.000 A 
ATOM     25  C   UNL     1      51.366   3.232  17.736  0.00  0.00    +0.000 A 
ATOM     26  C   UNL     1      50.878   2.057  17.177  0.00  0.00    +0.000 A 
ATOM     27  F   UNL     1      51.700   1.011  17.021  0.00  0.00    +0.000 F 
ATOM     28  C   UNL     1      49.549   1.951  16.784  0.00  0.00    +0.000 A 
ATOM     29  C   UNL     1      48.689   3.035  16.967  0.00  0.00    +0.000 A 
ENDBRANCH  22  23
ENDBRANCH  19  22
ENDBRANCH   5  19
TORSDOF 5
ENDMDL
MODEL 5
REMARK VINA RESULT:    -7.049      3.160      7.607
REMARK INTER + INTRA:          -9.207
REMARK INTER:                  -9.062
REMARK INTRA:                  -0.144
REMARK UNBOUND:                -0.097
REMARK  Name = 
REMARK  5 active torsions:
REMARK  status: ('A' for Active; 'I' for Inactive)
REMARK    1  A    between atoms: C_2  and  C_4
REMARK    2  A    between atoms: C_7  and  C_8
REMARK    3  A    between atoms: C_12  and  C_13
REMARK    4  A    between atoms: C_13  and  C_14
REMARK    5  A    between atoms: C_14  and  C_15
REMARK                            x       y       z     vdW  Elec       q    Type
REMARK                         _______ _______ _______ _____ _____    ______ ____
ROOT
ATOM      1  C   UNL     1      44.853   3.642  10.674  0.00  0.00    +0.000 A 
ATOM      2  N   UNL     1      43.509   3.618  10.729  0.00  0.00    +0.000 NA
ATOM      3  C   UNL     1      42.960   3.950  11.911  0.00  0.00    +0.000 A 
ATOM      4  C   UNL     1      43.691   4.321  13.015  0.00  0.00    +0.000 A 
ATOM      5  C   UNL     1      45.066   4.347  12.872  0.00  0.00    +0.000 A 
ATOM      6  N   UNL     1      45.642   3.967  11.713  0.00  0.00    +0.000 NA
ENDROOT
BRANCH   1  10
ATOM      7  C   UNL     1      46.806   2.725   7.030  0.00  0.00    +0.000 A 
ATOM      8  C   UNL     1      46.300   1.757   7.879  0.00  0.00    +0.000 A 
ATOM      9  N   UNL     1      45.678   2.044   9.048  0.00  0.00    +0.000 NA
ATOM     10  C   UNL     1      45.533   3.366   9.395  0.00  0.00    +0.000 A 
ATOM     11  C   UNL     1      45.999   4.382   8.569  0.00  0.00    +0.000 A 
ATOM     12  F   UNL     1      45.828   5.680   8.868  0.00  0.00    +0.000 F 
ATOM     13  C   UNL     1      46.637   4.065   7.375  0.00  0.00    +0.000 A 
BRANCH   7  15
ATOM     14  N   UNL     1      47.176   2.967   4.646  0.00  0.00    +0.000 N 
ATOM     15  C   UNL     1      47.498   2.302   5.794  0.00  0.00    +0.000 C 
ATOM     16  O   UNL     1      48.346   1.424   5.810  0.00  0.00    +0.000 OA
ATOM     17  H   UNL     1      47.726   2.744   3.826  0.00  0.00    +0.000 HD
ATOM     18  H   UNL     1      46.673   3.845   4.642  0.00  0.00    +0.000 HD
ENDBRANCH   7  15
ENDBRANCH   1  10
BRANCH   5  19
ATOM     19  C   UNL     1      45.999   4.866  13.938  0.00  0.00    +0.000 C 
ATOM     20  C   UNL     1      47.163   3.989  14.364  0.00  0.00    +0.000 C 
ATOM     21  O   UNL     1      46.043   4.221  15.225  0.00  0.00    +0.000 OA
BRANCH  19  22
ATOM     22  C   UNL     1      46.206   6.365  13.963  0.00  0.00    +0.000 C 
BRANCH  22  23
ATOM     23  C   UNL     1      47.500   6.801  13.305  0.00  0.00    +0.000 A 
ATOM     24  C   UNL     1      47.569   6.981  11.915  0.00  0.00    +0.000 A 
ATOM     25  C   UNL     1      48.739   7.457  11.321  0.00  0.00    +0.000 A 
ATOM     26  C   UNL     1      49.840   7.757  12.116  0.00  0.00    +0.000 A 
ATOM     27  F   UNL     1      50.951   8.241  11.546  0.00  0.00    +0.000 F 
ATOM     28  C   UNL     1      49.799   7.569  13.492  0.00  0.00    +0.000 A 
ATOM     29  C   UNL     1      48.633   7.086  14.086  0.00  0.00    +0.000 A 
ENDBRANCH  22  23
ENDBRANCH  19  22
ENDBRANCH   5  19
TORSDOF 5
ENDMDL
MODEL 6
REMARK VINA RESULT:    -6.735      2.707      8.874
REMARK INTER + INTRA:          -8.801
REMARK INTER:                  -8.728
REMARK INTRA:                  -0.072
REMARK UNBOUND:                -0.097
REMARK  Name = 
REMARK  5 active torsions:
REMARK  status: ('A' for Active; 'I' for Inactive)
REMARK    1  A    between atoms: C_2  and  C_4
REMARK    2  A    between atoms: C_7  and  C_8
REMARK    3  A    between atoms: C_12  and  C_13
REMARK    4  A    between atoms: C_13  and  C_14
REMARK    5  A    between atoms: C_14  and  C_15
REMARK                            x       y       z     vdW  Elec       q    Type
REMARK                         _______ _______ _______ _____ _____    ______ ____
ROOT
ATOM      1  C   UNL     1      47.746   5.907  14.295  0.00  0.00    +0.000 A 
ATOM      2  N   UNL     1      48.452   7.032  14.078  0.00  0.00    +0.000 NA
ATOM      3  C   UNL     1      49.361   7.350  15.017  0.00  0.00    +0.000 A 
ATOM      4  C   UNL     1      49.602   6.585  16.135  0.00  0.00    +0.000 A 
ATOM      5  C   UNL     1      48.855   5.430  16.273  0.00  0.00    +0.000 A 
ATOM      6  N   UNL     1      47.901   5.119  15.372  0.00  0.00    +0.000 NA
ENDROOT
BRANCH   1  10
ATOM      7  C   UNL     1      44.978   4.472  11.428  0.00  0.00    +0.000 A 
ATOM      8  C   UNL     1      45.330   3.759  12.561  0.00  0.00    +0.000 A 
ATOM      9  N   UNL     1      46.218   4.211  13.479  0.00  0.00    +0.000 NA
ATOM     10  C   UNL     1      46.783   5.447  13.277  0.00  0.00    +0.000 A 
ATOM     11  C   UNL     1      46.448   6.220  12.171  0.00  0.00    +0.000 A 
ATOM     12  F   UNL     1      46.955   7.448  11.979  0.00  0.00    +0.000 F 
ATOM     13  C   UNL     1      45.537   5.735  11.239  0.00  0.00    +0.000 A 
BRANCH   7  15
ATOM     14  N   UNL     1      43.963   4.430   9.228  0.00  0.00    +0.000 N 
ATOM     15  C   UNL     1      44.025   3.871  10.472  0.00  0.00    +0.000 C 
ATOM     16  O   UNL     1      43.354   2.897  10.772  0.00  0.00    +0.000 OA
ATOM     17  H   UNL     1      43.386   3.951   8.547  0.00  0.00    +0.000 HD
ATOM     18  H   UNL     1      44.666   5.065   8.874  0.00  0.00    +0.000 HD
ENDBRANCH   7  15
ENDBRANCH   1  10
BRANCH   5  19
ATOM     19  C   UNL     1      49.097   4.414  17.362  0.00  0.00    +0.000 C 
ATOM     20  C   UNL     1      50.494   3.840  17.511  0.00  0.00    +0.000 C 
ATOM     21  O   UNL     1      49.408   3.052  17.011  0.00  0.00    +0.000 OA
BRANCH  19  22
ATOM     22  C   UNL     1      48.270   4.579  18.618  0.00  0.00    +0.000 C 
BRANCH  22  23
ATOM     23  C   UNL     1      48.411   5.949  19.250  0.00  0.00    +0.000 A 
ATOM     24  C   UNL     1      49.602   6.323  19.891  0.00  0.00    +0.000 A 
ATOM     25  C   UNL     1      49.756   7.612  20.404  0.00  0.00    +0.000 A 
ATOM     26  C   UNL     1      48.721   8.531  20.272  0.00  0.00    +0.000 A 
ATOM     27  F   UNL     1      48.883   9.776  20.739  0.00  0.00    +0.000 F 
ATOM     28  C   UNL     1      47.526   8.177  19.657  0.00  0.00    +0.000 A 
ATOM     29  C   UNL     1      47.368   6.886  19.152  0.00  0.00    +0.000 A 
ENDBRANCH  22  23
ENDBRANCH  19  22
ENDBRANCH   5  19
TORSDOF 5
ENDMDL
MODEL 7
REMARK VINA RESULT:    -6.727      3.325      7.702
REMARK INTER + INTRA:          -8.790
REMARK INTER:                  -8.311
REMARK INTRA:                  -0.478
REMARK UNBOUND:                -0.097
REMARK  Name = 
REMARK  5 active torsions:
REMARK  status: ('A' for Active; 'I' for Inactive)
REMARK    1  A    between atoms: C_2  and  C_4
REMARK    2  A    between atoms: C_7  and  C_8
REMARK    3  A    between atoms: C_12  and  C_13
REMARK    4  A    between atoms: C_13  and  C_14
REMARK    5  A    between atoms: C_14  and  C_15
REMARK                            x       y       z     vdW  Elec       q    Type
REMARK                         _______ _______ _______ _____ _____    ______ ____
ROOT
ATOM      1  C   UNL     1      48.643   7.019  13.794  0.00  0.00    +0.000 A 
ATOM      2  N   UNL     1      49.651   7.345  12.965  0.00  0.00    +0.000 NA
ATOM      3  C   UNL     1      50.615   8.126  13.484  0.00  0.00    +0.000 A 
ATOM      4  C   UNL     1      50.619   8.567  14.787  0.00  0.00    +0.000 A 
ATOM      5  C   UNL     1      49.563   8.169  15.584  0.00  0.00    +0.000 A 
ATOM      6  N   UNL     1      48.558   7.429  15.071  0.00  0.00    +0.000 NA
ENDROOT
BRANCH   1  10
ATOM      7  C   UNL     1      45.654   4.300  12.526  0.00  0.00    +0.000 A 
ATOM      8  C   UNL     1      46.531   4.028  13.561  0.00  0.00    +0.000 A 
ATOM      9  N   UNL     1      47.492   4.892  13.968  0.00  0.00    +0.000 NA
ATOM     10  C   UNL     1      47.585   6.103  13.327  0.00  0.00    +0.000 A 
ATOM     11  C   UNL     1      46.714   6.443  12.298  0.00  0.00    +0.000 A 
ATOM     12  F   UNL     1      46.759   7.638  11.689  0.00  0.00    +0.000 F 
ATOM     13  C   UNL     1      45.737   5.539  11.894  0.00  0.00    +0.000 A 
BRANCH   7  15
ATOM     14  N   UNL     1      44.839   2.672  10.926  0.00  0.00    +0.000 N 
ATOM     15  C   UNL     1      44.664   3.273  12.139  0.00  0.00    +0.000 C 
ATOM     16  O   UNL     1      43.756   2.952  12.888  0.00  0.00    +0.000 OA
ATOM     17  H   UNL     1      44.221   1.900  10.711  0.00  0.00    +0.000 HD
ATOM     18  H   UNL     1      45.701   2.735  10.400  0.00  0.00    +0.000 HD
ENDBRANCH   7  15
ENDBRANCH   1  10
BRANCH   5  19
ATOM     19  C   UNL     1      49.493   8.446  17.065  0.00  0.00    +0.000 C 
ATOM     20  C   UNL     1      48.369   9.329  17.579  0.00  0.00    +0.000 C 
ATOM     21  O   UNL     1      49.728   9.781  17.554  0.00  0.00    +0.000 OA
BRANCH  19  22
ATOM     22  C   UNL     1      49.980   7.337  17.971  0.00  0.00    +0.000 C 
BRANCH  22  23
ATOM     23  C   UNL     1      49.189   6.053  17.822  0.00  0.00    +0.000 A 
ATOM     24  C   UNL     1      49.802   4.888  17.336  0.00  0.00    +0.000 A 
ATOM     25  C   UNL     1      49.091   3.688  17.274  0.00  0.00    +0.000 A 
ATOM     26  C   UNL     1      47.768   3.651  17.702  0.00  0.00    +0.000 A 
ATOM     27  F   UNL     1      47.098   2.492  17.668  0.00  0.00    +0.000 F 
ATOM     28  C   UNL     1      47.137   4.796  18.170  0.00  0.00    +0.000 A 
ATOM     29  C   UNL     1      47.844   5.998  18.225  0.00  0.00    +0.000 A 
ENDBRANCH  22  23
ENDBRANCH  19  22
ENDBRANCH   5  19
TORSDOF 5
ENDMDL
MODEL 8
REMARK VINA RESULT:    -6.374      3.696      7.774
REMARK INTER + INTRA:          -8.335
REMARK INTER:                  -7.576
REMARK INTRA:                  -0.759
REMARK UNBOUND:                -0.097
REMARK  Name = 
REMARK  5 active torsions:
REMARK  status: ('A' for Active; 'I' for Inactive)
REMARK    1  A    between atoms: C_2  and  C_4
REMARK    2  A    between atoms: C_7  and  C_8
REMARK    3  A    between atoms: C_12  and  C_13
REMARK    4  A    between atoms: C_13  and  C_14
REMARK    5  A    between atoms: C_14  and  C_15
REMARK                            x       y       z     vdW  Elec       q    Type
REMARK                         _______ _______ _______ _____ _____    ______ ____
ROOT
ATOM      1  C   UNL     1      46.355   7.598  12.077  0.00  0.00    +0.000 A 
ATOM      2  N   UNL     1      45.596   8.705  11.986  0.00  0.00    +0.000 NA
ATOM      3  C   UNL     1      46.236   9.876  12.154  0.00  0.00    +0.000 A 
ATOM      4  C   UNL     1      47.588   9.981  12.384  0.00  0.00    +0.000 A 
ATOM      5  C   UNL     1      48.304   8.800  12.438  0.00  0.00    +0.000 A 
ATOM      6  N   UNL     1      47.676   7.611  12.324  0.00  0.00    +0.000 NA
ENDROOT
BRANCH   1  10
ATOM      7  C   UNL     1      44.572   3.846  11.252  0.00  0.00    +0.000 A 
ATOM      8  C   UNL     1      44.723   4.836  10.297  0.00  0.00    +0.000 A 
ATOM      9  N   UNL     1      45.289   6.040  10.556  0.00  0.00    +0.000 NA
ATOM     10  C   UNL     1      45.747   6.277  11.830  0.00  0.00    +0.000 A 
ATOM     11  C   UNL     1      45.646   5.311  12.824  0.00  0.00    +0.000 A 
ATOM     12  F   UNL     1      46.128   5.507  14.061  0.00  0.00    +0.000 F 
ATOM     13  C   UNL     1      45.059   4.083  12.536  0.00  0.00    +0.000 A 
BRANCH   7  15
ATOM     14  N   UNL     1      44.408   1.924   9.784  0.00  0.00    +0.000 N 
ATOM     15  C   UNL     1      43.909   2.581  10.872  0.00  0.00    +0.000 C 
ATOM     16  O   UNL     1      42.984   2.128  11.527  0.00  0.00    +0.000 OA
ATOM     17  H   UNL     1      44.018   1.010   9.592  0.00  0.00    +0.000 HD
ATOM     18  H   UNL     1      45.308   2.139   9.378  0.00  0.00    +0.000 HD
ENDBRANCH   7  15
ENDBRANCH   1  10
BRANCH   5  19
ATOM     19  C   UNL     1      49.809   8.748  12.538  0.00  0.00    +0.000 C 
ATOM     20  C   UNL     1      50.619   8.883  11.261  0.00  0.00    +0.000 C 
ATOM     21  O   UNL     1      50.525   7.639  11.963  0.00  0.00    +0.000 OA
BRANCH  19  22
ATOM     22  C   UNL     1      50.408   9.309  13.809  0.00  0.00    +0.000 C 
BRANCH  22  23
ATOM     23  C   UNL     1      50.727   8.245  14.839  0.00  0.00    +0.000 A 
ATOM     24  C   UNL     1      49.699   7.517  15.458  0.00  0.00    +0.000 A 
ATOM     25  C   UNL     1      50.001   6.485  16.349  0.00  0.00    +0.000 A 
ATOM     26  C   UNL     1      51.329   6.177  16.619  0.00  0.00    +0.000 A 
ATOM     27  F   UNL     1      51.615   5.168  17.451  0.00  0.00    +0.000 F 
ATOM     28  C   UNL     1      52.363   6.897  16.031  0.00  0.00    +0.000 A 
ATOM     29  C   UNL     1      52.063   7.934  15.147  0.00  0.00    +0.000 A 
ENDBRANCH  22  23
ENDBRANCH  19  22
ENDBRANCH   5  19
TORSDOF 5
ENDMDL
MODEL 9
REMARK VINA RESULT:    -6.191      3.129      7.706
REMARK INTER + INTRA:          -8.098
REMARK INTER:                  -7.720
REMARK INTRA:                  -0.378
REMARK UNBOUND:                -0.097
REMARK  Name = 
REMARK  5 active torsions:
REMARK  status: ('A' for Active; 'I' for Inactive)
REMARK    1  A    between atoms: C_2  and  C_4
REMARK    2  A    between atoms: C_7  and  C_8
REMARK    3  A    between atoms: C_12  and  C_13
REMARK    4  A    between atoms: C_13  and  C_14
REMARK    5  A    between atoms: C_14  and  C_15
REMARK                            x       y       z     vdW  Elec       q    Type
REMARK                         _______ _______ _______ _____ _____    ______ ____
ROOT
ATOM      1  C   UNL     1      47.500   7.266  13.674  0.00  0.00    +0.000 A 
ATOM      2  N   UNL     1      47.293   8.529  13.262  0.00  0.00    +0.000 NA
ATOM      3  C   UNL     1      48.059   9.473  13.837  0.00  0.00    +0.000 A 
ATOM      4  C   UNL     1      49.025   9.201  14.777  0.00  0.00    +0.000 A 
ATOM      5  C   UNL     1      49.198   7.876  15.130  0.00  0.00    +0.000 A 
ATOM      6  N   UNL     1      48.405   6.918  14.605  0.00  0.00    +0.000 NA
ENDROOT
BRANCH   1  10
ATOM      7  C   UNL     1      45.317   4.179  11.764  0.00  0.00    +0.000 A 
ATOM      8  C   UNL     1      45.456   5.448  11.229  0.00  0.00    +0.000 A 
ATOM      9  N   UNL     1      46.149   6.440  11.838  0.00  0.00    +0.000 NA
ATOM     10  C   UNL     1      46.755   6.163  13.039  0.00  0.00    +0.000 A 
ATOM     11  C   UNL     1      46.673   4.899  13.612  0.00  0.00    +0.000 A 
ATOM     12  F   UNL     1      47.295   4.594  14.762  0.00  0.00    +0.000 F 
ATOM     13  C   UNL     1      45.953   3.896  12.972  0.00  0.00    +0.000 A 
BRANCH   7  15
ATOM     14  N   UNL     1      43.597   2.472  11.762  0.00  0.00    +0.000 N 
ATOM     15  C   UNL     1      44.510   3.180  11.035  0.00  0.00    +0.000 C 
ATOM     16  O   UNL     1      44.629   3.024   9.830  0.00  0.00    +0.000 OA
ATOM     17  H   UNL     1      42.978   1.865  11.241  0.00  0.00    +0.000 HD
ATOM     18  H   UNL     1      43.305   2.744  12.691  0.00  0.00    +0.000 HD
ENDBRANCH   7  15
ENDBRANCH   1  10
BRANCH   5  19
ATOM     19  C   UNL     1      50.306   7.397  16.034  0.00  0.00    +0.000 C 
ATOM     20  C   UNL     1      51.696   7.976  15.836  0.00  0.00    +0.000 C 
ATOM     21  O   UNL     1      51.390   6.622  15.487  0.00  0.00    +0.000 OA
BRANCH  19  22
ATOM     22  C   UNL     1      49.898   7.025  17.443  0.00  0.00    +0.000 C 
BRANCH  22  23
ATOM     23  C   UNL     1      49.099   5.740  17.513  0.00  0.00    +0.000 A 
ATOM     24  C   UNL     1      49.710   4.502  17.263  0.00  0.00    +0.000 A 
ATOM     25  C   UNL     1      48.989   3.315  17.404  0.00  0.00    +0.000 A 
ATOM     26  C   UNL     1      47.658   3.364  17.802  0.00  0.00    +0.000 A 
ATOM     27  F   UNL     1      46.977   2.222  17.965  0.00  0.00    +0.000 F 
ATOM     28  C   UNL     1      47.027   4.579  18.038  0.00  0.00    +0.000 A 
ATOM     29  C   UNL     1      47.744   5.767  17.889  0.00  0.00    +0.000 A 
ENDBRANCH  22  23
ENDBRANCH  19  22
ENDBRANCH   5  19
TORSDOF 5
ENDMDL
