MODEL 1
REMARK VINA RESULT:    -8.108      0.000      0.000
REMARK INTER + INTRA:         -12.635
REMARK INTER:                 -11.426
REMARK INTRA:                  -1.209
REMARK UNBOUND:                -1.209
REMARK  Name = 
REMARK  8 active torsions:
REMARK  status: ('A' for Active; 'I' for Inactive)
REMARK    1  A    between atoms: C_1  and  C_2
REMARK    2  A    between atoms: C_2  and  N_3
REMARK    3  A    between atoms: C_2  and  C_25
REMARK    4  A    between atoms: N_3  and  C_4
REMARK    5  A    between atoms: C_4  and  C_5
REMARK    6  A    between atoms: C_8  and  C_9
REMARK    7  A    between atoms: C_9  and  N_10
REMARK    8  A    between atoms: C_11  and  C_13
REMARK                            x       y       z     vdW  Elec       q    Type
REMARK                         _______ _______ _______ _____ _____    ______ ____
ROOT
ATOM      1  C   UNL     1      45.556   5.473  10.681  0.00  0.00    +0.000 C 
ATOM      2  C   UNL     1      45.733   6.966  10.349  0.00  0.00    +0.000 C 
ATOM      3  C   UNL     1      44.978   7.865  11.326  0.00  0.00    +0.000 C 
ATOM      4  C   UNL     1      45.393   7.606  12.785  0.00  0.00    +0.000 C 
ATOM      5  C   UNL     1      45.214   6.122  13.134  0.00  0.00    +0.000 C 
ATOM      6  C   UNL     1      45.936   5.199  12.149  0.00  0.00    +0.000 C 
ENDROOT
BRANCH   1   7
ATOM      7  C   UNL     1      44.130   4.948  10.401  0.00  0.00    +0.000 C 
BRANCH   7   8
ATOM      8  N   UNL     1      44.048   4.316   9.088  0.00  0.00    +0.000 NA
ATOM      9  H   UNL     1      43.117   4.462   8.696  0.00  0.00    +0.000 HD
BRANCH   8  11
ATOM     10  C   UNL     1      44.331   2.306  10.555  0.00  0.00    +0.000 C 
ATOM     11  C   UNL     1      44.249   2.853   9.126  0.00  0.00    +0.000 C 
BRANCH  11  12
ATOM     12  C   UNL     1      45.511   2.496   8.342  0.00  0.00    +0.000 A 
ATOM     13  C   UNL     1      46.146   3.461   7.554  0.00  0.00    +0.000 A 
ATOM     14  C   UNL     1      47.255   3.097   6.799  0.00  0.00    +0.000 A 
ATOM     15  C   UNL     1      47.700   1.783   6.840  0.00  0.00    +0.000 A 
ATOM     16  C   UNL     1      47.015   0.884   7.640  0.00  0.00    +0.000 A 
ATOM     17  N   UNL     1      45.935   1.207   8.388  0.00  0.00    +0.000 NA
ENDBRANCH  11  12
ENDBRANCH   8  11
ENDBRANCH   7   8
ENDBRANCH   1   7
BRANCH   4  18
ATOM     18  C   UNL     1      46.841   8.043  13.069  0.00  0.00    +0.000 C 
BRANCH  18  19
ATOM     19  N   UNL     1      47.306   7.542  14.339  0.00  0.00    +0.000 N 
ATOM     20  C   UNL     1      48.369   6.682  14.444  0.00  0.00    +0.000 C 
ATOM     21  O   UNL     1      49.028   6.322  13.472  0.00  0.00    +0.000 OA
ATOM     22  H   UNL     1      46.685   7.664  15.132  0.00  0.00    +0.000 HD
BRANCH  20  23
ATOM     23  C   UNL     1      48.719   6.253  15.800  0.00  0.00    +0.000 A 
ATOM     24  C   UNL     1      49.560   7.043  16.572  0.00  0.00    +0.000 A 
ATOM     25  S   UNL     1      49.862   6.405  18.123  0.00  0.00    +0.000 S 
ATOM     26  C   UNL     1      48.908   5.031  17.802  0.00  0.00    +0.000 A 
ATOM     27  N   UNL     1      48.771   4.046  18.729  0.00  0.00    +0.000 NA
ATOM     28  C   UNL     1      48.043   3.052  18.344  0.00  0.00    +0.000 A 
ATOM     29  N   UNL     1      47.431   2.959  17.123  0.00  0.00    +0.000 N 
ATOM     30  C   UNL     1      47.499   3.951  16.175  0.00  0.00    +0.000 A 
ATOM     31  O   UNL     1      46.863   3.873  15.128  0.00  0.00    +0.000 OA
ATOM     32  C   UNL     1      48.339   5.076  16.543  0.00  0.00    +0.000 A 
ATOM     33  H   UNL     1      46.857   2.159  16.890  0.00  0.00    +0.000 HD
ENDBRANCH  20  23
ENDBRANCH  18  19
ENDBRANCH   4  18
TORSDOF 7
ENDMDL
MODEL 2
REMARK VINA RESULT:    -7.896      1.038      1.642
REMARK INTER + INTRA:         -12.337
REMARK INTER:                 -11.240
REMARK INTRA:                  -1.096
REMARK UNBOUND:                -1.209
REMARK  Name = 
REMARK  8 active torsions:
REMARK  status: ('A' for Active; 'I' for Inactive)
REMARK    1  A    between atoms: C_1  and  C_2
REMARK    2  A    between atoms: C_2  and  N_3
REMARK    3  A    between atoms: C_2  and  C_25
REMARK    4  A    between atoms: N_3  and  C_4
REMARK    5  A    between atoms: C_4  and  C_5
REMARK    6  A    between atoms: C_8  and  C_9
REMARK    7  A    between atoms: C_9  and  N_10
REMARK    8  A    between atoms: C_11  and  C_13
REMARK                            x       y       z     vdW  Elec       q    Type
REMARK                         _______ _______ _______ _____ _____    ______ ____
ROOT
ATOM      1  C   UNL     1      43.803   6.237  11.496  0.00  0.00    +0.000 C 
ATOM      2  C   UNL     1      44.023   5.952  12.994  0.00  0.00    +0.000 C 
ATOM      3  C   UNL     1      45.178   4.983  13.229  0.00  0.00    +0.000 C 
ATOM      4  C   UNL     1      46.490   5.487  12.600  0.00  0.00    +0.000 C 
ATOM      5  C   UNL     1      46.289   5.767  11.104  0.00  0.00    +0.000 C 
ATOM      6  C   UNL     1      45.113   6.712  10.840  0.00  0.00    +0.000 C 
ENDROOT
BRANCH   1   7
ATOM      7  C   UNL     1      43.234   5.028  10.719  0.00  0.00    +0.000 C 
BRANCH   7   8
ATOM      8  N   UNL     1      44.077   4.690   9.576  0.00  0.00    +0.000 NA
ATOM      9  H   UNL     1      43.674   5.088   8.726  0.00  0.00    +0.000 HD
BRANCH   8  11
ATOM     10  C   UNL     1      44.362   2.437  10.630  0.00  0.00    +0.000 C 
ATOM     11  C   UNL     1      44.186   3.237   9.335  0.00  0.00    +0.000 C 
BRANCH  11  12
ATOM     12  C   UNL     1      45.348   2.971   8.378  0.00  0.00    +0.000 A 
ATOM     13  C   UNL     1      45.954   1.713   8.339  0.00  0.00    +0.000 A 
ATOM     14  C   UNL     1      47.050   1.514   7.507  0.00  0.00    +0.000 A 
ATOM     15  C   UNL     1      47.520   2.572   6.742  0.00  0.00    +0.000 A 
ATOM     16  C   UNL     1      46.870   3.790   6.840  0.00  0.00    +0.000 A 
ATOM     17  N   UNL     1      45.800   4.016   7.637  0.00  0.00    +0.000 NA
ENDBRANCH  11  12
ENDBRANCH   8  11
ENDBRANCH   7   8
ENDBRANCH   1   7
BRANCH   4  18
ATOM     18  C   UNL     1      47.033   6.743  13.303  0.00  0.00    +0.000 C 
BRANCH  18  19
ATOM     19  N   UNL     1      47.463   6.453  14.649  0.00  0.00    +0.000 N 
ATOM     20  C   UNL     1      48.779   6.519  15.028  0.00  0.00    +0.000 C 
ATOM     21  O   UNL     1      49.671   6.879  14.264  0.00  0.00    +0.000 OA
ATOM     22  H   UNL     1      46.796   5.979  15.249  0.00  0.00    +0.000 HD
BRANCH  20  23
ATOM     23  C   UNL     1      49.064   6.187  16.427  0.00  0.00    +0.000 A 
ATOM     24  C   UNL     1      49.910   7.004  17.165  0.00  0.00    +0.000 A 
ATOM     25  S   UNL     1      50.131   6.481  18.771  0.00  0.00    +0.000 S 
ATOM     26  C   UNL     1      49.134   5.123  18.524  0.00  0.00    +0.000 A 
ATOM     27  N   UNL     1      48.925   4.221  19.519  0.00  0.00    +0.000 NA
ATOM     28  C   UNL     1      48.172   3.227  19.186  0.00  0.00    +0.000 A 
ATOM     29  N   UNL     1      47.599   3.060  17.955  0.00  0.00    +0.000 N 
ATOM     30  C   UNL     1      47.740   3.970  16.935  0.00  0.00    +0.000 A 
ATOM     31  O   UNL     1      47.137   3.832  15.873  0.00  0.00    +0.000 OA
ATOM     32  C   UNL     1      48.612   5.088  17.244  0.00  0.00    +0.000 A 
ATOM     33  H   UNL     1      47.001   2.266  17.764  0.00  0.00    +0.000 HD
ENDBRANCH  20  23
ENDBRANCH  18  19
ENDBRANCH   4  18
TORSDOF 7
ENDMDL
MODEL 3
REMARK VINA RESULT:    -7.473      2.201      2.959
REMARK INTER + INTRA:         -11.741
REMARK INTER:                 -10.936
REMARK INTRA:                  -0.805
REMARK UNBOUND:                -1.209
REMARK  Name = 
REMARK  8 active torsions:
REMARK  status: ('A' for Active; 'I' for Inactive)
REMARK    1  A    between atoms: C_1  and  C_2
REMARK    2  A    between atoms: C_2  and  N_3
REMARK    3  A    between atoms: C_2  and  C_25
REMARK    4  A    between atoms: N_3  and  C_4
REMARK    5  A    between atoms: C_4  and  C_5
REMARK    6  A    between atoms: C_8  and  C_9
REMARK    7  A    between atoms: C_9  and  N_10
REMARK    8  A    between atoms: C_11  and  C_13
REMARK                            x       y       z     vdW  Elec       q    Type
REMARK                         _______ _______ _______ _____ _____    ______ ____
ROOT
ATOM      1  C   UNL     1      45.560   6.271  12.269  0.00  0.00    +0.000 C 
ATOM      2  C   UNL     1      45.970   5.360  13.441  0.00  0.00    +0.000 C 
ATOM      3  C   UNL     1      47.456   5.012  13.404  0.00  0.00    +0.000 C 
ATOM      4  C   UNL     1      48.342   6.271  13.393  0.00  0.00    +0.000 C 
ATOM      5  C   UNL     1      47.951   7.187  12.224  0.00  0.00    +0.000 C 
ATOM      6  C   UNL     1      46.456   7.523  12.220  0.00  0.00    +0.000 C 
ENDROOT
BRANCH   1   7
ATOM      7  C   UNL     1      45.581   5.555  10.900  0.00  0.00    +0.000 C 
BRANCH   7   8
ATOM      8  N   UNL     1      44.258   5.551  10.285  0.00  0.00    +0.000 NA
ATOM      9  H   UNL     1      43.579   5.953  10.932  0.00  0.00    +0.000 HD
BRANCH   8  11
ATOM     10  C   UNL     1      43.544   3.338  11.214  0.00  0.00    +0.000 C 
ATOM     11  C   UNL     1      43.763   4.197   9.964  0.00  0.00    +0.000 C 
BRANCH  11  12
ATOM     12  C   UNL     1      44.742   3.515   9.008  0.00  0.00    +0.000 A 
ATOM     13  C   UNL     1      45.083   2.172   9.189  0.00  0.00    +0.000 A 
ATOM     14  C   UNL     1      46.025   1.592   8.348  0.00  0.00    +0.000 A 
ATOM     15  C   UNL     1      46.610   2.363   7.353  0.00  0.00    +0.000 A 
ATOM     16  C   UNL     1      46.225   3.688   7.241  0.00  0.00    +0.000 A 
ATOM     17  N   UNL     1      45.310   4.282   8.042  0.00  0.00    +0.000 NA
ENDBRANCH  11  12
ENDBRANCH   8  11
ENDBRANCH   7   8
ENDBRANCH   1   7
BRANCH   4  18
ATOM     18  C   UNL     1      48.271   7.050  14.718  0.00  0.00    +0.000 C 
BRANCH  18  19
ATOM     19  N   UNL     1      49.351   6.689  15.603  0.00  0.00    +0.000 N 
ATOM     20  C   UNL     1      49.183   5.821  16.651  0.00  0.00    +0.000 C 
ATOM     21  O   UNL     1      48.116   5.254  16.875  0.00  0.00    +0.000 OA
ATOM     22  H   UNL     1      50.184   7.268  15.566  0.00  0.00    +0.000 HD
BRANCH  20  23
ATOM     23  C   UNL     1      50.370   5.559  17.467  0.00  0.00    +0.000 A 
ATOM     24  C   UNL     1      51.010   6.615  18.103  0.00  0.00    +0.000 A 
ATOM     25  S   UNL     1      52.369   6.138  19.014  0.00  0.00    +0.000 S 
ATOM     26  C   UNL     1      52.171   4.510  18.559  0.00  0.00    +0.000 A 
ATOM     27  N   UNL     1      53.045   3.557  18.981  0.00  0.00    +0.000 NA
ATOM     28  C   UNL     1      52.792   2.371  18.539  0.00  0.00    +0.000 A 
ATOM     29  N   UNL     1      51.739   2.049  17.725  0.00  0.00    +0.000 N 
ATOM     30  C   UNL     1      50.803   2.967  17.315  0.00  0.00    +0.000 A 
ATOM     31  O   UNL     1      49.822   2.624  16.660  0.00  0.00    +0.000 OA
ATOM     32  C   UNL     1      51.064   4.326  17.752  0.00  0.00    +0.000 A 
ATOM     33  H   UNL     1      51.586   1.094  17.430  0.00  0.00    +0.000 HD
ENDBRANCH  20  23
ENDBRANCH  18  19
ENDBRANCH   4  18
TORSDOF 7
ENDMDL
MODEL 4
REMARK VINA RESULT:    -7.096      2.748      8.030
REMARK INTER + INTRA:         -11.210
REMARK INTER:                  -9.314
REMARK INTRA:                  -1.895
REMARK UNBOUND:                -1.209
REMARK  Name = 
REMARK  8 active torsions:
REMARK  status: ('A' for Active; 'I' for Inactive)
REMARK    1  A    between atoms: C_1  and  C_2
REMARK    2  A    between atoms: C_2  and  N_3
REMARK    3  A    between atoms: C_2  and  C_25
REMARK    4  A    between atoms: N_3  and  C_4
REMARK    5  A    between atoms: C_4  and  C_5
REMARK    6  A    between atoms: C_8  and  C_9
REMARK    7  A    between atoms: C_9  and  N_10
REMARK    8  A    between atoms: C_11  and  C_13
REMARK                            x       y       z     vdW  Elec       q    Type
REMARK                         _______ _______ _______ _____ _____    ______ ____
ROOT
ATOM      1  C   UNL     1      48.962   8.909  15.178  0.00  0.00    +0.000 C 
ATOM      2  C   UNL     1      49.422   9.595  13.878  0.00  0.00    +0.000 C 
ATOM      3  C   UNL     1      50.195   8.642  12.969  0.00  0.00    +0.000 C 
ATOM      4  C   UNL     1      49.377   7.383  12.628  0.00  0.00    +0.000 C 
ATOM      5  C   UNL     1      48.918   6.682  13.914  0.00  0.00    +0.000 C 
ATOM      6  C   UNL     1      48.169   7.627  14.858  0.00  0.00    +0.000 C 
ENDROOT
BRANCH   1   7
ATOM      7  C   UNL     1      50.123   8.582  16.143  0.00  0.00    +0.000 C 
BRANCH   7   8
ATOM      8  N   UNL     1      49.655   7.816  17.294  0.00  0.00    +0.000 NA
ATOM      9  H   UNL     1      49.763   8.374  18.142  0.00  0.00    +0.000 HD
BRANCH   8  11
ATOM     10  C   UNL     1      51.594   6.415  16.554  0.00  0.00    +0.000 C 
ATOM     11  C   UNL     1      50.418   6.573  17.523  0.00  0.00    +0.000 C 
BRANCH  11  12
ATOM     12  C   UNL     1      49.473   5.375  17.420  0.00  0.00    +0.000 A 
ATOM     13  C   UNL     1      48.111   5.527  17.693  0.00  0.00    +0.000 A 
ATOM     14  C   UNL     1      47.284   4.411  17.656  0.00  0.00    +0.000 A 
ATOM     15  C   UNL     1      47.832   3.172  17.355  0.00  0.00    +0.000 A 
ATOM     16  C   UNL     1      49.191   3.101  17.102  0.00  0.00    +0.000 A 
ATOM     17  N   UNL     1      50.023   4.168  17.128  0.00  0.00    +0.000 NA
ENDBRANCH  11  12
ENDBRANCH   8  11
ENDBRANCH   7   8
ENDBRANCH   1   7
BRANCH   4  18
ATOM     18  C   UNL     1      48.163   7.696  11.736  0.00  0.00    +0.000 C 
BRANCH  18  19
ATOM     19  N   UNL     1      47.285   6.558  11.619  0.00  0.00    +0.000 N 
ATOM     20  C   UNL     1      45.925   6.663  11.754  0.00  0.00    +0.000 C 
ATOM     21  O   UNL     1      45.359   7.739  11.932  0.00  0.00    +0.000 OA
ATOM     22  H   UNL     1      47.719   5.641  11.659  0.00  0.00    +0.000 HD
BRANCH  20  23
ATOM     23  C   UNL     1      45.165   5.418  11.618  0.00  0.00    +0.000 A 
ATOM     24  C   UNL     1      44.433   4.943  12.698  0.00  0.00    +0.000 A 
ATOM     25  S   UNL     1      43.606   3.489  12.373  0.00  0.00    +0.000 S 
ATOM     26  C   UNL     1      44.229   3.425  10.790  0.00  0.00    +0.000 A 
ATOM     27  N   UNL     1      43.929   2.387   9.964  0.00  0.00    +0.000 NA
ATOM     28  C   UNL     1      44.491   2.452   8.803  0.00  0.00    +0.000 A 
ATOM     29  N   UNL     1      45.313   3.465   8.389  0.00  0.00    +0.000 N 
ATOM     30  C   UNL     1      45.603   4.558   9.169  0.00  0.00    +0.000 A 
ATOM     31  O   UNL     1      46.271   5.491   8.731  0.00  0.00    +0.000 OA
ATOM     32  C   UNL     1      45.029   4.515  10.501  0.00  0.00    +0.000 A 
ATOM     33  H   UNL     1      45.706   3.466   7.457  0.00  0.00    +0.000 HD
ENDBRANCH  20  23
ENDBRANCH  18  19
ENDBRANCH   4  18
TORSDOF 7
ENDMDL
MODEL 5
REMARK VINA RESULT:    -6.952      3.098      7.732
REMARK INTER + INTRA:         -11.006
REMARK INTER:                  -9.147
REMARK INTRA:                  -1.858
REMARK UNBOUND:                -1.209
REMARK  Name = 
REMARK  8 active torsions:
REMARK  status: ('A' for Active; 'I' for Inactive)
REMARK    1  A    between atoms: C_1  and  C_2
REMARK    2  A    between atoms: C_2  and  N_3
REMARK    3  A    between atoms: C_2  and  C_25
REMARK    4  A    between atoms: N_3  and  C_4
REMARK    5  A    between atoms: C_4  and  C_5
REMARK    6  A    between atoms: C_8  and  C_9
REMARK    7  A    between atoms: C_9  and  N_10
REMARK    8  A    between atoms: C_11  and  C_13
REMARK                            x       y       z     vdW  Elec       q    Type
REMARK                         _______ _______ _______ _____ _____    ______ ____
ROOT
ATOM      1  C   UNL     1      48.839   9.013  15.380  0.00  0.00    +0.000 C 
ATOM      2  C   UNL     1      49.423   9.808  14.197  0.00  0.00    +0.000 C 
ATOM      3  C   UNL     1      50.244   8.924  13.262  0.00  0.00    +0.000 C 
ATOM      4  C   UNL     1      49.428   7.732  12.731  0.00  0.00    +0.000 C 
ATOM      5  C   UNL     1      48.845   6.924  13.899  0.00  0.00    +0.000 C 
ATOM      6  C   UNL     1      48.044   7.796  14.870  0.00  0.00    +0.000 C 
ENDROOT
BRANCH   1   7
ATOM      7  C   UNL     1      49.907   8.554  16.398  0.00  0.00    +0.000 C 
BRANCH   7   8
ATOM      8  N   UNL     1      49.359   7.580  17.337  0.00  0.00    +0.000 NA
ATOM      9  H   UNL     1      49.265   8.009  18.258  0.00  0.00    +0.000 HD
BRANCH   8  11
ATOM     10  C   UNL     1      51.421   6.382  16.572  0.00  0.00    +0.000 C 
ATOM     11  C   UNL     1      50.221   6.395  17.525  0.00  0.00    +0.000 C 
BRANCH  11  12
ATOM     12  C   UNL     1      49.383   5.129  17.349  0.00  0.00    +0.000 A 
ATOM     13  C   UNL     1      47.987   5.201  17.361  0.00  0.00    +0.000 A 
ATOM     14  C   UNL     1      47.247   4.029  17.265  0.00  0.00    +0.000 A 
ATOM     15  C   UNL     1      47.911   2.815  17.167  0.00  0.00    +0.000 A 
ATOM     16  C   UNL     1      49.295   2.824  17.167  0.00  0.00    +0.000 A 
ATOM     17  N   UNL     1      50.045   3.947  17.257  0.00  0.00    +0.000 NA
ENDBRANCH  11  12
ENDBRANCH   8  11
ENDBRANCH   7   8
ENDBRANCH   1   7
BRANCH   4  18
ATOM     18  C   UNL     1      48.300   8.171  11.780  0.00  0.00    +0.000 C 
BRANCH  18  19
ATOM     19  N   UNL     1      47.576   7.038  11.259  0.00  0.00    +0.000 N 
ATOM     20  C   UNL     1      46.211   6.935  11.349  0.00  0.00    +0.000 C 
ATOM     21  O   UNL     1      45.511   7.822  11.832  0.00  0.00    +0.000 OA
ATOM     22  H   UNL     1      48.122   6.215  11.027  0.00  0.00    +0.000 HD
BRANCH  20  23
ATOM     23  C   UNL     1      45.618   5.721  10.783  0.00  0.00    +0.000 A 
ATOM     24  C   UNL     1      45.767   5.456   9.428  0.00  0.00    +0.000 A 
ATOM     25  S   UNL     1      45.023   4.005   8.932  0.00  0.00    +0.000 S 
ATOM     26  C   UNL     1      44.444   3.702  10.504  0.00  0.00    +0.000 A 
ATOM     27  N   UNL     1      43.682   2.606  10.766  0.00  0.00    +0.000 NA
ATOM     28  C   UNL     1      43.289   2.515  11.993  0.00  0.00    +0.000 A 
ATOM     29  N   UNL     1      43.597   3.410  12.981  0.00  0.00    +0.000 N 
ATOM     30  C   UNL     1      44.404   4.503  12.774  0.00  0.00    +0.000 A 
ATOM     31  O   UNL     1      44.733   5.234  13.705  0.00  0.00    +0.000 OA
ATOM     32  C   UNL     1      44.842   4.675  11.402  0.00  0.00    +0.000 A 
ATOM     33  H   UNL     1      43.272   3.269  13.928  0.00  0.00    +0.000 HD
ENDBRANCH  20  23
ENDBRANCH  18  19
ENDBRANCH   4  18
TORSDOF 7
ENDMDL
MODEL 6
REMARK VINA RESULT:    -6.949      3.694      9.156
REMARK INTER + INTRA:         -11.001
REMARK INTER:                  -9.301
REMARK INTRA:                  -1.701
REMARK UNBOUND:                -1.209
REMARK  Name = 
REMARK  8 active torsions:
REMARK  status: ('A' for Active; 'I' for Inactive)
REMARK    1  A    between atoms: C_1  and  C_2
REMARK    2  A    between atoms: C_2  and  N_3
REMARK    3  A    between atoms: C_2  and  C_25
REMARK    4  A    between atoms: N_3  and  C_4
REMARK    5  A    between atoms: C_4  and  C_5
REMARK    6  A    between atoms: C_8  and  C_9
REMARK    7  A    between atoms: C_9  and  N_10
REMARK    8  A    between atoms: C_11  and  C_13
REMARK                            x       y       z     vdW  Elec       q    Type
REMARK                         _______ _______ _______ _____ _____    ______ ____
ROOT
ATOM      1  C   UNL     1      50.783   4.754  17.541  0.00  0.00    +0.000 C 
ATOM      2  C   UNL     1      50.230   3.355  17.868  0.00  0.00    +0.000 C 
ATOM      3  C   UNL     1      48.900   3.424  18.614  0.00  0.00    +0.000 C 
ATOM      4  C   UNL     1      47.844   4.228  17.834  0.00  0.00    +0.000 C 
ATOM      5  C   UNL     1      48.377   5.630  17.507  0.00  0.00    +0.000 C 
ATOM      6  C   UNL     1      49.728   5.587  16.788  0.00  0.00    +0.000 C 
ENDROOT
BRANCH   1   7
ATOM      7  C   UNL     1      51.272   5.527  18.786  0.00  0.00    +0.000 C 
BRANCH   7   8
ATOM      8  N   UNL     1      51.594   6.912  18.457  0.00  0.00    +0.000 NA
ATOM      9  H   UNL     1      52.607   7.038  18.463  0.00  0.00    +0.000 HD
BRANCH   8  11
ATOM     10  C   UNL     1      50.564   7.225  20.718  0.00  0.00    +0.000 C 
ATOM     11  C   UNL     1      51.055   7.888  19.426  0.00  0.00    +0.000 C 
BRANCH  11  12
ATOM     12  C   UNL     1      49.927   8.682  18.768  0.00  0.00    +0.000 A 
ATOM     13  C   UNL     1      48.662   8.729  19.359  0.00  0.00    +0.000 A 
ATOM     14  C   UNL     1      47.634   9.404  18.710  0.00  0.00    +0.000 A 
ATOM     15  C   UNL     1      47.889  10.008  17.487  0.00  0.00    +0.000 A 
ATOM     16  C   UNL     1      49.167   9.913  16.963  0.00  0.00    +0.000 A 
ATOM     17  N   UNL     1      50.189   9.266  17.571  0.00  0.00    +0.000 NA
ENDBRANCH  11  12
ENDBRANCH   8  11
ENDBRANCH   7   8
ENDBRANCH   1   7
BRANCH   4  18
ATOM     18  C   UNL     1      47.402   3.518  16.542  0.00  0.00    +0.000 C 
BRANCH  18  19
ATOM     19  N   UNL     1      46.786   4.437  15.617  0.00  0.00    +0.000 N 
ATOM     20  C   UNL     1      46.781   4.221  14.263  0.00  0.00    +0.000 C 
ATOM     21  O   UNL     1      47.253   3.209  13.752  0.00  0.00    +0.000 OA
ATOM     22  H   UNL     1      46.555   5.358  15.975  0.00  0.00    +0.000 HD
BRANCH  20  23
ATOM     23  C   UNL     1      46.124   5.248  13.451  0.00  0.00    +0.000 A 
ATOM     24  C   UNL     1      46.762   6.464  13.239  0.00  0.00    +0.000 A 
ATOM     25  S   UNL     1      45.867   7.543  12.271  0.00  0.00    +0.000 S 
ATOM     26  C   UNL     1      44.580   6.437  12.132  0.00  0.00    +0.000 A 
ATOM     27  N   UNL     1      43.454   6.760  11.442  0.00  0.00    +0.000 NA
ATOM     28  C   UNL     1      42.549   5.840  11.441  0.00  0.00    +0.000 A 
ATOM     29  N   UNL     1      42.671   4.623  12.055  0.00  0.00    +0.000 N 
ATOM     30  C   UNL     1      43.808   4.233  12.721  0.00  0.00    +0.000 A 
ATOM     31  O   UNL     1      43.917   3.100  13.182  0.00  0.00    +0.000 OA
ATOM     32  C   UNL     1      44.844   5.248  12.786  0.00  0.00    +0.000 A 
ATOM     33  H   UNL     1      41.930   3.937  12.000  0.00  0.00    +0.000 HD
ENDBRANCH  20  23
ENDBRANCH  18  19
ENDBRANCH   4  18
TORSDOF 7
ENDMDL
MODEL 7
REMARK VINA RESULT:    -6.522      2.767      8.132
REMARK INTER + INTRA:         -10.399
REMARK INTER:                  -8.965
REMARK INTRA:                  -1.435
REMARK UNBOUND:                -1.209
REMARK  Name = 
REMARK  8 active torsions:
REMARK  status: ('A' for Active; 'I' for Inactive)
REMARK    1  A    between atoms: C_1  and  C_2
REMARK    2  A    between atoms: C_2  and  N_3
REMARK    3  A    between atoms: C_2  and  C_25
REMARK    4  A    between atoms: N_3  and  C_4
REMARK    5  A    between atoms: C_4  and  C_5
REMARK    6  A    between atoms: C_8  and  C_9
REMARK    7  A    between atoms: C_9  and  N_10
REMARK    8  A    between atoms: C_11  and  C_13
REMARK                            x       y       z     vdW  Elec       q    Type
REMARK                         _______ _______ _______ _____ _____    ______ ____
ROOT
ATOM      1  C   UNL     1      50.284   7.793  14.560  0.00  0.00    +0.000 C 
ATOM      2  C   UNL     1      49.232   6.691  14.329  0.00  0.00    +0.000 C 
ATOM      3  C   UNL     1      47.807   7.220  14.473  0.00  0.00    +0.000 C 
ATOM      4  C   UNL     1      47.534   8.402  13.526  0.00  0.00    +0.000 C 
ATOM      5  C   UNL     1      48.570   9.513  13.750  0.00  0.00    +0.000 C 
ATOM      6  C   UNL     1      50.009   9.000  13.644  0.00  0.00    +0.000 C 
ENDROOT
BRANCH   1   7
ATOM      7  C   UNL     1      50.371   8.258  16.031  0.00  0.00    +0.000 C 
BRANCH   7   8
ATOM      8  N   UNL     1      50.569   7.127  16.932  0.00  0.00    +0.000 NA
ATOM      9  H   UNL     1      50.681   6.271  16.387  0.00  0.00    +0.000 HD
BRANCH   8  11
ATOM     10  C   UNL     1      49.757   7.192  19.301  0.00  0.00    +0.000 C 
ATOM     11  C   UNL     1      49.425   6.888  17.836  0.00  0.00    +0.000 C 
BRANCH  11  12
ATOM     12  C   UNL     1      48.954   5.442  17.681  0.00  0.00    +0.000 A 
ATOM     13  C   UNL     1      49.885   4.411  17.531  0.00  0.00    +0.000 A 
ATOM     14  C   UNL     1      49.431   3.113  17.327  0.00  0.00    +0.000 A 
ATOM     15  C   UNL     1      48.065   2.874  17.270  0.00  0.00    +0.000 A 
ATOM     16  C   UNL     1      47.206   3.949  17.423  0.00  0.00    +0.000 A 
ATOM     17  N   UNL     1      47.615   5.223  17.625  0.00  0.00    +0.000 NA
ENDBRANCH  11  12
ENDBRANCH   8  11
ENDBRANCH   7   8
ENDBRANCH   1   7
BRANCH   4  18
ATOM     18  C   UNL     1      47.526   7.979  12.047  0.00  0.00    +0.000 C 
BRANCH  18  19
ATOM     19  N   UNL     1      46.796   6.752  11.850  0.00  0.00    +0.000 N 
ATOM     20  C   UNL     1      45.432   6.723  11.713  0.00  0.00    +0.000 C 
ATOM     21  O   UNL     1      44.747   7.743  11.696  0.00  0.00    +0.000 OA
ATOM     22  H   UNL     1      47.294   5.889  12.043  0.00  0.00    +0.000 HD
BRANCH  20  23
ATOM     23  C   UNL     1      44.831   5.400  11.529  0.00  0.00    +0.000 A 
ATOM     24  C   UNL     1      44.062   4.851  12.547  0.00  0.00    +0.000 A 
ATOM     25  S   UNL     1      43.434   3.312  12.173  0.00  0.00    +0.000 S 
ATOM     26  C   UNL     1      44.199   3.310  10.652  0.00  0.00    +0.000 A 
ATOM     27  N   UNL     1      44.092   2.241   9.819  0.00  0.00    +0.000 NA
ATOM     28  C   UNL     1      44.745   2.362   8.712  0.00  0.00    +0.000 A 
ATOM     29  N   UNL     1      45.483   3.459   8.357  0.00  0.00    +0.000 N 
ATOM     30  C   UNL     1      45.579   4.582   9.143  0.00  0.00    +0.000 A 
ATOM     31  O   UNL     1      46.176   5.581   8.751  0.00  0.00    +0.000 OA
ATOM     32  C   UNL     1      44.896   4.482  10.419  0.00  0.00    +0.000 A 
ATOM     33  H   UNL     1      45.956   3.498   7.463  0.00  0.00    +0.000 HD
ENDBRANCH  20  23
ENDBRANCH  18  19
ENDBRANCH   4  18
TORSDOF 7
ENDMDL
MODEL 8
REMARK VINA RESULT:    -6.383      3.390      8.034
REMARK INTER + INTRA:         -10.205
REMARK INTER:                  -8.327
REMARK INTRA:                  -1.878
REMARK UNBOUND:                -1.209
REMARK  Name = 
REMARK  8 active torsions:
REMARK  status: ('A' for Active; 'I' for Inactive)
REMARK    1  A    between atoms: C_1  and  C_2
REMARK    2  A    between atoms: C_2  and  N_3
REMARK    3  A    between atoms: C_2  and  C_25
REMARK    4  A    between atoms: N_3  and  C_4
REMARK    5  A    between atoms: C_4  and  C_5
REMARK    6  A    between atoms: C_8  and  C_9
REMARK    7  A    between atoms: C_9  and  N_10
REMARK    8  A    between atoms: C_11  and  C_13
REMARK                            x       y       z     vdW  Elec       q    Type
REMARK                         _______ _______ _______ _____ _____    ______ ____
ROOT
ATOM      1  C   UNL     1      50.267   7.939  17.563  0.00  0.00    +0.000 C 
ATOM      2  C   UNL     1      50.694   8.742  16.320  0.00  0.00    +0.000 C 
ATOM      3  C   UNL     1      50.730   7.877  15.063  0.00  0.00    +0.000 C 
ATOM      4  C   UNL     1      49.376   7.193  14.796  0.00  0.00    +0.000 C 
ATOM      5  C   UNL     1      48.940   6.381  16.024  0.00  0.00    +0.000 C 
ATOM      6  C   UNL     1      48.929   7.219  17.305  0.00  0.00    +0.000 C 
ENDROOT
BRANCH   1   7
ATOM      7  C   UNL     1      51.330   6.920  18.030  0.00  0.00    +0.000 C 
BRANCH   7   8
ATOM      8  N   UNL     1      50.824   6.088  19.117  0.00  0.00    +0.000 NA
ATOM      9  H   UNL     1      51.253   6.379  19.997  0.00  0.00    +0.000 HD
BRANCH   8  11
ATOM     10  C   UNL     1      52.385   4.421  18.089  0.00  0.00    +0.000 C 
ATOM     11  C   UNL     1      51.147   4.655  18.961  0.00  0.00    +0.000 C 
BRANCH  11  12
ATOM     12  C   UNL     1      49.936   3.926  18.379  0.00  0.00    +0.000 A 
ATOM     13  C   UNL     1      50.096   3.028  17.320  0.00  0.00    +0.000 A 
ATOM     14  C   UNL     1      48.973   2.427  16.765  0.00  0.00    +0.000 A 
ATOM     15  C   UNL     1      47.718   2.739  17.271  0.00  0.00    +0.000 A 
ATOM     16  C   UNL     1      47.641   3.642  18.317  0.00  0.00    +0.000 A 
ATOM     17  N   UNL     1      48.714   4.243  18.881  0.00  0.00    +0.000 NA
ENDBRANCH  11  12
ENDBRANCH   8  11
ENDBRANCH   7   8
ENDBRANCH   1   7
BRANCH   4  18
ATOM     18  C   UNL     1      48.277   8.198  14.412  0.00  0.00    +0.000 C 
BRANCH  18  19
ATOM     19  N   UNL     1      47.108   7.532  13.892  0.00  0.00    +0.000 N 
ATOM     20  C   UNL     1      46.884   7.386  12.547  0.00  0.00    +0.000 C 
ATOM     21  O   UNL     1      47.686   7.767  11.698  0.00  0.00    +0.000 OA
ATOM     22  H   UNL     1      46.346   7.374  14.543  0.00  0.00    +0.000 HD
BRANCH  20  23
ATOM     23  C   UNL     1      45.649   6.695  12.171  0.00  0.00    +0.000 A 
ATOM     24  C   UNL     1      44.617   7.412  11.580  0.00  0.00    +0.000 A 
ATOM     25  S   UNL     1      43.255   6.460  11.202  0.00  0.00    +0.000 S 
ATOM     26  C   UNL     1      43.983   5.064  11.849  0.00  0.00    +0.000 A 
ATOM     27  N   UNL     1      43.320   3.878  11.870  0.00  0.00    +0.000 NA
ATOM     28  C   UNL     1      43.979   2.910  12.414  0.00  0.00    +0.000 A 
ATOM     29  N   UNL     1      45.244   3.017  12.927  0.00  0.00    +0.000 N 
ATOM     30  C   UNL     1      45.972   4.182  12.883  0.00  0.00    +0.000 A 
ATOM     31  O   UNL     1      47.137   4.217  13.270  0.00  0.00    +0.000 OA
ATOM     32  C   UNL     1      45.261   5.313  12.316  0.00  0.00    +0.000 A 
ATOM     33  H   UNL     1      45.713   2.214  13.323  0.00  0.00    +0.000 HD
ENDBRANCH  20  23
ENDBRANCH  18  19
ENDBRANCH   4  18
TORSDOF 7
ENDMDL
MODEL 9
REMARK VINA RESULT:    -6.326      2.730      4.065
REMARK INTER + INTRA:         -10.123
REMARK INTER:                  -8.773
REMARK INTRA:                  -1.350
REMARK UNBOUND:                -1.209
REMARK  Name = 
REMARK  8 active torsions:
REMARK  status: ('A' for Active; 'I' for Inactive)
REMARK    1  A    between atoms: C_1  and  C_2
REMARK    2  A    between atoms: C_2  and  N_3
REMARK    3  A    between atoms: C_2  and  C_25
REMARK    4  A    between atoms: N_3  and  C_4
REMARK    5  A    between atoms: C_4  and  C_5
REMARK    6  A    between atoms: C_8  and  C_9
REMARK    7  A    between atoms: C_9  and  N_10
REMARK    8  A    between atoms: C_11  and  C_13
REMARK                            x       y       z     vdW  Elec       q    Type
REMARK                         _______ _______ _______ _____ _____    ______ ____
ROOT
ATOM      1  C   UNL     1      48.199   8.066  12.632  0.00  0.00    +0.000 C 
ATOM      2  C   UNL     1      48.353   9.178  13.686  0.00  0.00    +0.000 C 
ATOM      3  C   UNL     1      47.946   8.706  15.080  0.00  0.00    +0.000 C 
ATOM      4  C   UNL     1      48.739   7.463  15.521  0.00  0.00    +0.000 C 
ATOM      5  C   UNL     1      48.589   6.341  14.483  0.00  0.00    +0.000 C 
ATOM      6  C   UNL     1      48.959   6.800  13.069  0.00  0.00    +0.000 C 
ENDROOT
BRANCH   1   7
ATOM      7  C   UNL     1      46.727   7.715  12.322  0.00  0.00    +0.000 C 
BRANCH   7   8
ATOM      8  N   UNL     1      46.627   6.462  11.579  0.00  0.00    +0.000 NA
ATOM      9  H   UNL     1      46.721   6.649  10.580  0.00  0.00    +0.000 HD
BRANCH   8  11
ATOM     10  C   UNL     1      45.202   5.074  13.101  0.00  0.00    +0.000 C 
ATOM     11  C   UNL     1      45.327   5.780  11.747  0.00  0.00    +0.000 C 
BRANCH  11  12
ATOM     12  C   UNL     1      45.128   4.786  10.603  0.00  0.00    +0.000 A 
ATOM     13  C   UNL     1      44.538   3.543  10.845  0.00  0.00    +0.000 A 
ATOM     14  C   UNL     1      44.426   2.631   9.802  0.00  0.00    +0.000 A 
ATOM     15  C   UNL     1      44.911   2.974   8.548  0.00  0.00    +0.000 A 
ATOM     16  C   UNL     1      45.488   4.222   8.388  0.00  0.00    +0.000 A 
ATOM     17  N   UNL     1      45.610   5.133   9.381  0.00  0.00    +0.000 NA
ENDBRANCH  11  12
ENDBRANCH   8  11
ENDBRANCH   7   8
ENDBRANCH   1   7
BRANCH   4  18
ATOM     18  C   UNL     1      50.229   7.769  15.753  0.00  0.00    +0.000 C 
BRANCH  18  19
ATOM     19  N   UNL     1      50.936   6.614  16.251  0.00  0.00    +0.000 N 
ATOM     20  C   UNL     1      51.066   6.356  17.592  0.00  0.00    +0.000 C 
ATOM     21  O   UNL     1      50.548   7.059  18.455  0.00  0.00    +0.000 OA
ATOM     22  H   UNL     1      51.526   6.121  15.590  0.00  0.00    +0.000 HD
BRANCH  20  23
ATOM     23  C   UNL     1      51.819   5.150  17.944  0.00  0.00    +0.000 A 
ATOM     24  C   UNL     1      53.059   5.273  18.558  0.00  0.00    +0.000 A 
ATOM     25  S   UNL     1      53.799   3.778  18.905  0.00  0.00    +0.000 S 
ATOM     26  C   UNL     1      52.505   2.915  18.212  0.00  0.00    +0.000 A 
ATOM     27  N   UNL     1      52.526   1.557  18.152  0.00  0.00    +0.000 NA
ATOM     28  C   UNL     1      51.495   1.035  17.576  0.00  0.00    +0.000 A 
ATOM     29  N   UNL     1      50.441   1.745  17.068  0.00  0.00    +0.000 N 
ATOM     30  C   UNL     1      50.353   3.114  17.150  0.00  0.00    +0.000 A 
ATOM     31  O   UNL     1      49.350   3.710  16.765  0.00  0.00    +0.000 OA
ATOM     32  C   UNL     1      51.506   3.755  17.754  0.00  0.00    +0.000 A 
ATOM     33  H   UNL     1      49.653   1.272  16.645  0.00  0.00    +0.000 HD
ENDBRANCH  20  23
ENDBRANCH  18  19
ENDBRANCH   4  18
TORSDOF 7
ENDMDL
