MODEL 1
REMARK VINA RESULT:    -8.616      0.000      0.000
REMARK INTER + INTRA:         -11.815
REMARK INTER:                 -11.135
REMARK INTRA:                  -0.681
REMARK UNBOUND:                -0.681
REMARK  Name = 
REMARK  5 active torsions:
REMARK  status: ('A' for Active; 'I' for Inactive)
REMARK    1  A    between atoms: C_2  and  C_3
REMARK    2  A    between atoms: C_7  and  N_8
REMARK    3  A    between atoms: N_8  and  C_9
REMARK    4  A    between atoms: C_9  and  C_10
REMARK    5  A    between atoms: C_14  and  C_15
REMARK                            x       y       z     vdW  Elec       q    Type
REMARK                         _______ _______ _______ _____ _____    ______ ____
ROOT
ATOM      1  C   UNL     1      43.609   5.126  10.797  0.00  0.00    +0.000 A 
ATOM      2  C   UNL     1      42.952   4.192  11.585  0.00  0.00    +0.000 A 
ATOM      3  N   UNL     1      43.100   2.858  11.453  0.00  0.00    +0.000 NA
ATOM      4  C   UNL     1      43.945   2.431  10.483  0.00  0.00    +0.000 A 
ATOM      5  C   UNL     1      44.648   3.258   9.603  0.00  0.00    +0.000 A 
ATOM      6  C   UNL     1      44.450   4.638   9.784  0.00  0.00    +0.000 A 
ENDROOT
BRANCH   5   7
ATOM      7  C   UNL     1      45.549   2.716   8.561  0.00  0.00    +0.000 A 
ATOM      8  C   UNL     1      46.156   3.553   7.602  0.00  0.00    +0.000 A 
ATOM      9  C   UNL     1      47.010   3.043   6.615  0.00  0.00    +0.000 A 
ATOM     10  C   UNL     1      47.282   1.680   6.570  0.00  0.00    +0.000 A 
ATOM     11  C   UNL     1      46.694   0.843   7.505  0.00  0.00    +0.000 A 
ATOM     12  F   UNL     1      46.953  -0.471   7.468  0.00  0.00    +0.000 F 
ATOM     13  C   UNL     1      45.836   1.342   8.483  0.00  0.00    +0.000 A 
ENDBRANCH   5   7
BRANCH   1  14
ATOM     14  C   UNL     1      43.425   6.600  11.038  0.00  0.00    +0.000 C 
BRANCH  14  15
ATOM     15  N   UNL     1      44.108   7.014  12.251  0.00  0.00    +0.000 N 
ATOM     16  H   UNL     1      43.841   7.922  12.619  0.00  0.00    +0.000 HD
BRANCH  15  21
ATOM     17  C   UNL     1      47.022   5.254  13.783  0.00  0.00    +0.000 A 
ATOM     18  C   UNL     1      48.031   6.024  13.231  0.00  0.00    +0.000 A 
ATOM     19  N   UNL     1      47.804   7.046  12.379  0.00  0.00    +0.000 NA
ATOM     20  C   UNL     1      46.506   7.307  12.076  0.00  0.00    +0.000 A 
ATOM     21  C   UNL     1      45.398   6.594  12.551  0.00  0.00    +0.000 A 
ATOM     22  C   UNL     1      45.695   5.553  13.440  0.00  0.00    +0.000 A 
BRANCH  17  24
ATOM     23  N   UNL     1      47.574   3.327  15.423  0.00  0.00    +0.000 NA
ATOM     24  C   UNL     1      47.328   4.194  14.689  0.00  0.00    +0.000 C 
ENDBRANCH  17  24
ENDBRANCH  15  21
ENDBRANCH  14  15
ENDBRANCH   1  14
TORSDOF 5
ENDMDL
MODEL 2
REMARK VINA RESULT:    -8.529      1.127      2.306
REMARK INTER + INTRA:         -11.703
REMARK INTER:                 -10.904
REMARK INTRA:                  -0.799
REMARK UNBOUND:                -0.681
REMARK  Name = 
REMARK  5 active torsions:
REMARK  status: ('A' for Active; 'I' for Inactive)
REMARK    1  A    between atoms: C_2  and  C_3
REMARK    2  A    between atoms: C_7  and  N_8
REMARK    3  A    between atoms: N_8  and  C_9
REMARK    4  A    between atoms: C_9  and  C_10
REMARK    5  A    between atoms: C_14  and  C_15
REMARK                            x       y       z     vdW  Elec       q    Type
REMARK                         _______ _______ _______ _____ _____    ______ ____
ROOT
ATOM      1  C   UNL     1      43.870   5.180  11.029  0.00  0.00    +0.000 A 
ATOM      2  C   UNL     1      43.099   4.248  11.711  0.00  0.00    +0.000 A 
ATOM      3  N   UNL     1      43.103   2.926  11.441  0.00  0.00    +0.000 NA
ATOM      4  C   UNL     1      43.913   2.510  10.437  0.00  0.00    +0.000 A 
ATOM      5  C   UNL     1      44.719   3.340   9.654  0.00  0.00    +0.000 A 
ATOM      6  C   UNL     1      44.670   4.708   9.977  0.00  0.00    +0.000 A 
ENDROOT
BRANCH   5   7
ATOM      7  C   UNL     1      45.575   2.813   8.567  0.00  0.00    +0.000 A 
ATOM      8  C   UNL     1      46.096   3.655   7.563  0.00  0.00    +0.000 A 
ATOM      9  C   UNL     1      46.907   3.157   6.534  0.00  0.00    +0.000 A 
ATOM     10  C   UNL     1      47.220   1.804   6.490  0.00  0.00    +0.000 A 
ATOM     11  C   UNL     1      46.717   0.962   7.470  0.00  0.00    +0.000 A 
ATOM     12  F   UNL     1      47.017  -0.343   7.435  0.00  0.00    +0.000 F 
ATOM     13  C   UNL     1      45.902   1.447   8.490  0.00  0.00    +0.000 A 
ENDBRANCH   5   7
BRANCH   1  14
ATOM     14  C   UNL     1      43.844   6.631  11.423  0.00  0.00    +0.000 C 
BRANCH  14  15
ATOM     15  N   UNL     1      44.523   6.835  12.690  0.00  0.00    +0.000 N 
ATOM     16  H   UNL     1      44.013   7.379  13.381  0.00  0.00    +0.000 HD
BRANCH  15  21
ATOM     17  C   UNL     1      48.097   7.838  12.295  0.00  0.00    +0.000 A 
ATOM     18  C   UNL     1      48.681   6.714  12.852  0.00  0.00    +0.000 A 
ATOM     19  N   UNL     1      47.973   5.686  13.366  0.00  0.00    +0.000 NA
ATOM     20  C   UNL     1      46.620   5.791  13.308  0.00  0.00    +0.000 A 
ATOM     21  C   UNL     1      45.908   6.880  12.787  0.00  0.00    +0.000 A 
ATOM     22  C   UNL     1      46.696   7.910  12.259  0.00  0.00    +0.000 A 
BRANCH  17  24
ATOM     23  N   UNL     1      49.563   9.735  11.314  0.00  0.00    +0.000 NA
ATOM     24  C   UNL     1      48.903   8.886  11.757  0.00  0.00    +0.000 C 
ENDBRANCH  17  24
ENDBRANCH  15  21
ENDBRANCH  14  15
ENDBRANCH   1  14
TORSDOF 5
ENDMDL
MODEL 3
REMARK VINA RESULT:    -7.696      3.412      6.779
REMARK INTER + INTRA:         -10.626
REMARK INTER:                  -9.956
REMARK INTRA:                  -0.670
REMARK UNBOUND:                -0.681
REMARK  Name = 
REMARK  5 active torsions:
REMARK  status: ('A' for Active; 'I' for Inactive)
REMARK    1  A    between atoms: C_2  and  C_3
REMARK    2  A    between atoms: C_7  and  N_8
REMARK    3  A    between atoms: N_8  and  C_9
REMARK    4  A    between atoms: C_9  and  C_10
REMARK    5  A    between atoms: C_14  and  C_15
REMARK                            x       y       z     vdW  Elec       q    Type
REMARK                         _______ _______ _______ _____ _____    ______ ____
ROOT
ATOM      1  C   UNL     1      44.823   4.972  11.257  0.00  0.00    +0.000 A 
ATOM      2  C   UNL     1      44.924   4.190  12.399  0.00  0.00    +0.000 A 
ATOM      3  N   UNL     1      45.799   4.425  13.398  0.00  0.00    +0.000 NA
ATOM      4  C   UNL     1      46.620   5.494  13.252  0.00  0.00    +0.000 A 
ATOM      5  C   UNL     1      46.644   6.347  12.146  0.00  0.00    +0.000 A 
ATOM      6  C   UNL     1      45.714   6.050  11.134  0.00  0.00    +0.000 A 
ENDROOT
BRANCH   5   7
ATOM      7  C   UNL     1      47.577   7.493  12.054  0.00  0.00    +0.000 A 
ATOM      8  C   UNL     1      47.126   8.824  12.173  0.00  0.00    +0.000 A 
ATOM      9  C   UNL     1      48.008   9.910  12.087  0.00  0.00    +0.000 A 
ATOM     10  C   UNL     1      49.365   9.687  11.886  0.00  0.00    +0.000 A 
ATOM     11  C   UNL     1      49.825   8.385  11.766  0.00  0.00    +0.000 A 
ATOM     12  F   UNL     1      51.132   8.163  11.574  0.00  0.00    +0.000 F 
ATOM     13  C   UNL     1      48.954   7.301  11.841  0.00  0.00    +0.000 A 
ENDBRANCH   5   7
BRANCH   1  14
ATOM     14  C   UNL     1      43.788   4.670  10.209  0.00  0.00    +0.000 C 
BRANCH  14  15
ATOM     15  N   UNL     1      44.402   4.526   8.902  0.00  0.00    +0.000 N 
ATOM     16  H   UNL     1      43.926   4.996   8.137  0.00  0.00    +0.000 HD
BRANCH  15  21
ATOM     17  C   UNL     1      46.743   2.193   7.165  0.00  0.00    +0.000 A 
ATOM     18  C   UNL     1      46.384   1.028   7.821  0.00  0.00    +0.000 A 
ATOM     19  N   UNL     1      45.457   0.982   8.801  0.00  0.00    +0.000 NA
ATOM     20  C   UNL     1      44.861   2.158   9.129  0.00  0.00    +0.000 A 
ATOM     21  C   UNL     1      45.146   3.405   8.555  0.00  0.00    +0.000 A 
ATOM     22  C   UNL     1      46.107   3.387   7.537  0.00  0.00    +0.000 A 
BRANCH  17  24
ATOM     23  N   UNL     1      48.521   2.160   5.282  0.00  0.00    +0.000 NA
ATOM     24  C   UNL     1      47.723   2.172   6.128  0.00  0.00    +0.000 C 
ENDBRANCH  17  24
ENDBRANCH  15  21
ENDBRANCH  14  15
ENDBRANCH   1  14
TORSDOF 5
ENDMDL
MODEL 4
REMARK VINA RESULT:    -7.530      1.819      2.590
REMARK INTER + INTRA:         -10.412
REMARK INTER:                  -9.718
REMARK INTRA:                  -0.694
REMARK UNBOUND:                -0.681
REMARK  Name = 
REMARK  5 active torsions:
REMARK  status: ('A' for Active; 'I' for Inactive)
REMARK    1  A    between atoms: C_2  and  C_3
REMARK    2  A    between atoms: C_7  and  N_8
REMARK    3  A    between atoms: N_8  and  C_9
REMARK    4  A    between atoms: C_9  and  C_10
REMARK    5  A    between atoms: C_14  and  C_15
REMARK                            x       y       z     vdW  Elec       q    Type
REMARK                         _______ _______ _______ _____ _____    ______ ____
ROOT
ATOM      1  C   UNL     1      45.043   6.104  11.853  0.00  0.00    +0.000 A 
ATOM      2  C   UNL     1      43.691   5.935  12.112  0.00  0.00    +0.000 A 
ATOM      3  N   UNL     1      42.904   5.055  11.461  0.00  0.00    +0.000 NA
ATOM      4  C   UNL     1      43.493   4.306  10.496  0.00  0.00    +0.000 A 
ATOM      5  C   UNL     1      44.834   4.392  10.115  0.00  0.00    +0.000 A 
ATOM      6  C   UNL     1      45.605   5.330  10.826  0.00  0.00    +0.000 A 
ENDROOT
BRANCH   5   7
ATOM      7  C   UNL     1      45.406   3.544   9.045  0.00  0.00    +0.000 A 
ATOM      8  C   UNL     1      45.502   2.144   9.184  0.00  0.00    +0.000 A 
ATOM      9  C   UNL     1      46.042   1.339   8.171  0.00  0.00    +0.000 A 
ATOM     10  C   UNL     1      46.494   1.919   6.991  0.00  0.00    +0.000 A 
ATOM     11  C   UNL     1      46.407   3.294   6.838  0.00  0.00    +0.000 A 
ATOM     12  F   UNL     1      46.840   3.860   5.703  0.00  0.00    +0.000 F 
ATOM     13  C   UNL     1      45.881   4.101   7.844  0.00  0.00    +0.000 A 
ENDBRANCH   5   7
BRANCH   1  14
ATOM     14  C   UNL     1      45.864   7.075  12.658  0.00  0.00    +0.000 C 
BRANCH  14  15
ATOM     15  N   UNL     1      47.239   6.621  12.769  0.00  0.00    +0.000 N 
ATOM     16  H   UNL     1      47.635   6.206  11.931  0.00  0.00    +0.000 HD
BRANCH  15  21
ATOM     17  C   UNL     1      47.757   4.845  16.012  0.00  0.00    +0.000 A 
ATOM     18  C   UNL     1      48.832   5.585  16.474  0.00  0.00    +0.000 A 
ATOM     19  N   UNL     1      49.397   6.591  15.773  0.00  0.00    +0.000 NA
ATOM     20  C   UNL     1      48.851   6.869  14.561  0.00  0.00    +0.000 A 
ATOM     21  C   UNL     1      47.777   6.186  13.974  0.00  0.00    +0.000 A 
ATOM     22  C   UNL     1      47.226   5.160  14.752  0.00  0.00    +0.000 A 
BRANCH  17  24
ATOM     23  N   UNL     1      46.736   2.950  17.452  0.00  0.00    +0.000 NA
ATOM     24  C   UNL     1      47.197   3.801  16.808  0.00  0.00    +0.000 C 
ENDBRANCH  17  24
ENDBRANCH  15  21
ENDBRANCH  14  15
ENDBRANCH   1  14
TORSDOF 5
ENDMDL
MODEL 5
REMARK VINA RESULT:    -7.436      3.613      6.763
REMARK INTER + INTRA:         -10.290
REMARK INTER:                  -9.617
REMARK INTRA:                  -0.673
REMARK UNBOUND:                -0.681
REMARK  Name = 
REMARK  5 active torsions:
REMARK  status: ('A' for Active; 'I' for Inactive)
REMARK    1  A    between atoms: C_2  and  C_3
REMARK    2  A    between atoms: C_7  and  N_8
REMARK    3  A    between atoms: N_8  and  C_9
REMARK    4  A    between atoms: C_9  and  C_10
REMARK    5  A    between atoms: C_14  and  C_15
REMARK                            x       y       z     vdW  Elec       q    Type
REMARK                         _______ _______ _______ _____ _____    ______ ____
ROOT
ATOM      1  C   UNL     1      44.987   5.110  12.102  0.00  0.00    +0.000 A 
ATOM      2  C   UNL     1      45.170   4.158  13.095  0.00  0.00    +0.000 A 
ATOM      3  N   UNL     1      46.188   4.178  13.979  0.00  0.00    +0.000 NA
ATOM      4  C   UNL     1      47.073   5.199  13.867  0.00  0.00    +0.000 A 
ATOM      5  C   UNL     1      47.024   6.207  12.902  0.00  0.00    +0.000 A 
ATOM      6  C   UNL     1      45.944   6.131  12.004  0.00  0.00    +0.000 A 
ENDROOT
BRANCH   5   7
ATOM      7  C   UNL     1      48.034   7.288  12.837  0.00  0.00    +0.000 A 
ATOM      8  C   UNL     1      48.652   7.650  11.622  0.00  0.00    +0.000 A 
ATOM      9  C   UNL     1      49.607   8.674  11.559  0.00  0.00    +0.000 A 
ATOM     10  C   UNL     1      49.961   9.364  12.712  0.00  0.00    +0.000 A 
ATOM     11  C   UNL     1      49.364   9.021  13.915  0.00  0.00    +0.000 A 
ATOM     12  F   UNL     1      49.699   9.684  15.030  0.00  0.00    +0.000 F 
ATOM     13  C   UNL     1      48.421   7.999  13.987  0.00  0.00    +0.000 A 
ENDBRANCH   5   7
BRANCH   1  14
ATOM     14  C   UNL     1      43.797   5.042  11.183  0.00  0.00    +0.000 C 
BRANCH  14  15
ATOM     15  N   UNL     1      43.750   3.766  10.493  0.00  0.00    +0.000 N 
ATOM     16  H   UNL     1      43.441   2.974  11.050  0.00  0.00    +0.000 HD
BRANCH  15  21
ATOM     17  C   UNL     1      46.023   1.968   8.139  0.00  0.00    +0.000 A 
ATOM     18  C   UNL     1      46.478   3.064   7.427  0.00  0.00    +0.000 A 
ATOM     19  N   UNL     1      46.059   4.327   7.659  0.00  0.00    +0.000 NA
ATOM     20  C   UNL     1      45.151   4.492   8.654  0.00  0.00    +0.000 A 
ATOM     21  C   UNL     1      44.599   3.467   9.435  0.00  0.00    +0.000 A 
ATOM     22  C   UNL     1      45.080   2.182   9.156  0.00  0.00    +0.000 A 
BRANCH  17  24
ATOM     23  N   UNL     1      46.920  -0.406   7.623  0.00  0.00    +0.000 NA
ATOM     24  C   UNL     1      46.515   0.659   7.852  0.00  0.00    +0.000 C 
ENDBRANCH  17  24
ENDBRANCH  15  21
ENDBRANCH  14  15
ENDBRANCH   1  14
TORSDOF 5
ENDMDL
MODEL 6
REMARK VINA RESULT:    -7.372      1.740      2.580
REMARK INTER + INTRA:         -10.208
REMARK INTER:                  -9.623
REMARK INTRA:                  -0.585
REMARK UNBOUND:                -0.681
REMARK  Name = 
REMARK  5 active torsions:
REMARK  status: ('A' for Active; 'I' for Inactive)
REMARK    1  A    between atoms: C_2  and  C_3
REMARK    2  A    between atoms: C_7  and  N_8
REMARK    3  A    between atoms: N_8  and  C_9
REMARK    4  A    between atoms: C_9  and  C_10
REMARK    5  A    between atoms: C_14  and  C_15
REMARK                            x       y       z     vdW  Elec       q    Type
REMARK                         _______ _______ _______ _____ _____    ______ ____
ROOT
ATOM      1  C   UNL     1      44.985   5.901  11.834  0.00  0.00    +0.000 A 
ATOM      2  C   UNL     1      43.641   5.633  12.052  0.00  0.00    +0.000 A 
ATOM      3  N   UNL     1      42.925   4.741  11.338  0.00  0.00    +0.000 NA
ATOM      4  C   UNL     1      43.581   4.082  10.351  0.00  0.00    +0.000 A 
ATOM      5  C   UNL     1      44.921   4.272  10.007  0.00  0.00    +0.000 A 
ATOM      6  C   UNL     1      45.615   5.218  10.782  0.00  0.00    +0.000 A 
ENDROOT
BRANCH   5   7
ATOM      7  C   UNL     1      45.569   3.519   8.908  0.00  0.00    +0.000 A 
ATOM      8  C   UNL     1      46.116   4.175   7.786  0.00  0.00    +0.000 A 
ATOM      9  C   UNL     1      46.730   3.464   6.746  0.00  0.00    +0.000 A 
ATOM     10  C   UNL     1      46.816   2.078   6.809  0.00  0.00    +0.000 A 
ATOM     11  C   UNL     1      46.284   1.418   7.905  0.00  0.00    +0.000 A 
ATOM     12  F   UNL     1      46.365   0.082   7.974  0.00  0.00    +0.000 F 
ATOM     13  C   UNL     1      45.663   2.117   8.938  0.00  0.00    +0.000 A 
ENDBRANCH   5   7
BRANCH   1  14
ATOM     14  C   UNL     1      45.724   6.877  12.707  0.00  0.00    +0.000 C 
BRANCH  14  15
ATOM     15  N   UNL     1      47.047   6.378  13.035  0.00  0.00    +0.000 N 
ATOM     16  H   UNL     1      47.617   6.087  12.246  0.00  0.00    +0.000 HD
BRANCH  15  21
ATOM     17  C   UNL     1      48.529   5.501  16.348  0.00  0.00    +0.000 A 
ATOM     18  C   UNL     1      47.938   4.260  16.508  0.00  0.00    +0.000 A 
ATOM     19  N   UNL     1      47.075   3.728  15.616  0.00  0.00    +0.000 NA
ATOM     20  C   UNL     1      46.803   4.475  14.514  0.00  0.00    +0.000 A 
ATOM     21  C   UNL     1      47.320   5.749  14.244  0.00  0.00    +0.000 A 
ATOM     22  C   UNL     1      48.217   6.243  15.198  0.00  0.00    +0.000 A 
BRANCH  17  24
ATOM     23  N   UNL     1      50.192   6.404  18.117  0.00  0.00    +0.000 NA
ATOM     24  C   UNL     1      49.444   6.002  17.322  0.00  0.00    +0.000 C 
ENDBRANCH  17  24
ENDBRANCH  15  21
ENDBRANCH  14  15
ENDBRANCH   1  14
TORSDOF 5
ENDMDL
MODEL 7
REMARK VINA RESULT:    -7.191      3.691      6.949
REMARK INTER + INTRA:          -9.973
REMARK INTER:                  -9.259
REMARK INTRA:                  -0.714
REMARK UNBOUND:                -0.681
REMARK  Name = 
REMARK  5 active torsions:
REMARK  status: ('A' for Active; 'I' for Inactive)
REMARK    1  A    between atoms: C_2  and  C_3
REMARK    2  A    between atoms: C_7  and  N_8
REMARK    3  A    between atoms: N_8  and  C_9
REMARK    4  A    between atoms: C_9  and  C_10
REMARK    5  A    between atoms: C_14  and  C_15
REMARK                            x       y       z     vdW  Elec       q    Type
REMARK                         _______ _______ _______ _____ _____    ______ ____
ROOT
ATOM      1  C   UNL     1      45.965   5.884  11.723  0.00  0.00    +0.000 A 
ATOM      2  C   UNL     1      46.259   5.131  12.851  0.00  0.00    +0.000 A 
ATOM      3  N   UNL     1      47.371   5.294  13.596  0.00  0.00    +0.000 NA
ATOM      4  C   UNL     1      48.240   6.254  13.195  0.00  0.00    +0.000 A 
ATOM      5  C   UNL     1      48.083   7.064  12.067  0.00  0.00    +0.000 A 
ATOM      6  C   UNL     1      46.907   6.846  11.327  0.00  0.00    +0.000 A 
ENDROOT
BRANCH   5   7
ATOM      7  C   UNL     1      49.080   8.090  11.687  0.00  0.00    +0.000 A 
ATOM      8  C   UNL     1      48.744   9.458  11.621  0.00  0.00    +0.000 A 
ATOM      9  C   UNL     1      49.688  10.431  11.262  0.00  0.00    +0.000 A 
ATOM     10  C   UNL     1      50.993  10.055  10.967  0.00  0.00    +0.000 A 
ATOM     11  C   UNL     1      51.340   8.714  11.026  0.00  0.00    +0.000 A 
ATOM     12  F   UNL     1      52.597   8.346  10.745  0.00  0.00    +0.000 F 
ATOM     13  C   UNL     1      50.406   7.741  11.373  0.00  0.00    +0.000 A 
ENDBRANCH   5   7
BRANCH   1  14
ATOM     14  C   UNL     1      44.679   5.672  10.973  0.00  0.00    +0.000 C 
BRANCH  14  15
ATOM     15  N   UNL     1      44.939   5.333   9.586  0.00  0.00    +0.000 N 
ATOM     16  H   UNL     1      44.464   5.907   8.895  0.00  0.00    +0.000 HD
BRANCH  15  21
ATOM     17  C   UNL     1      46.391   2.403   7.783  0.00  0.00    +0.000 A 
ATOM     18  C   UNL     1      45.587   1.417   8.328  0.00  0.00    +0.000 A 
ATOM     19  N   UNL     1      44.639   1.661   9.258  0.00  0.00    +0.000 NA
ATOM     20  C   UNL     1      44.489   2.953   9.648  0.00  0.00    +0.000 A 
ATOM     21  C   UNL     1      45.247   4.038   9.188  0.00  0.00    +0.000 A 
ATOM     22  C   UNL     1      46.207   3.725   8.218  0.00  0.00    +0.000 A 
BRANCH  17  24
ATOM     23  N   UNL     1      48.166   1.814   5.991  0.00  0.00    +0.000 NA
ATOM     24  C   UNL     1      47.368   2.081   6.794  0.00  0.00    +0.000 C 
ENDBRANCH  17  24
ENDBRANCH  15  21
ENDBRANCH  14  15
ENDBRANCH   1  14
TORSDOF 5
ENDMDL
MODEL 8
REMARK VINA RESULT:    -6.868      2.300      3.580
REMARK INTER + INTRA:          -9.556
REMARK INTER:                  -8.973
REMARK INTRA:                  -0.583
REMARK UNBOUND:                -0.681
REMARK  Name = 
REMARK  5 active torsions:
REMARK  status: ('A' for Active; 'I' for Inactive)
REMARK    1  A    between atoms: C_2  and  C_3
REMARK    2  A    between atoms: C_7  and  N_8
REMARK    3  A    between atoms: N_8  and  C_9
REMARK    4  A    between atoms: C_9  and  C_10
REMARK    5  A    between atoms: C_14  and  C_15
REMARK                            x       y       z     vdW  Elec       q    Type
REMARK                         _______ _______ _______ _____ _____    ______ ____
ROOT
ATOM      1  C   UNL     1      45.054   5.630  11.594  0.00  0.00    +0.000 A 
ATOM      2  C   UNL     1      43.678   5.466  11.671  0.00  0.00    +0.000 A 
ATOM      3  N   UNL     1      42.968   4.666  10.850  0.00  0.00    +0.000 NA
ATOM      4  C   UNL     1      43.663   3.996   9.898  0.00  0.00    +0.000 A 
ATOM      5  C   UNL     1      45.042   4.088   9.692  0.00  0.00    +0.000 A 
ATOM      6  C   UNL     1      45.729   4.941  10.574  0.00  0.00    +0.000 A 
ENDROOT
BRANCH   5   7
ATOM      7  C   UNL     1      45.732   3.329   8.624  0.00  0.00    +0.000 A 
ATOM      8  C   UNL     1      46.269   3.973   7.490  0.00  0.00    +0.000 A 
ATOM      9  C   UNL     1      46.924   3.257   6.479  0.00  0.00    +0.000 A 
ATOM     10  C   UNL     1      47.062   1.878   6.583  0.00  0.00    +0.000 A 
ATOM     11  C   UNL     1      46.540   1.229   7.692  0.00  0.00    +0.000 A 
ATOM     12  F   UNL     1      46.671  -0.100   7.800  0.00  0.00    +0.000 F 
ATOM     13  C   UNL     1      45.879   1.933   8.696  0.00  0.00    +0.000 A 
ENDBRANCH   5   7
BRANCH   1  14
ATOM     14  C   UNL     1      45.779   6.506  12.579  0.00  0.00    +0.000 C 
BRANCH  14  15
ATOM     15  N   UNL     1      45.055   7.745  12.799  0.00  0.00    +0.000 N 
ATOM     16  H   UNL     1      44.050   7.654  12.913  0.00  0.00    +0.000 HD
BRANCH  15  21
ATOM     17  C   UNL     1      47.226  10.604  11.775  0.00  0.00    +0.000 A 
ATOM     18  C   UNL     1      46.227  11.515  11.478  0.00  0.00    +0.000 A 
ATOM     19  N   UNL     1      44.910  11.229  11.567  0.00  0.00    +0.000 NA
ATOM     20  C   UNL     1      44.588   9.976  11.980  0.00  0.00    +0.000 A 
ATOM     21  C   UNL     1      45.500   8.960  12.293  0.00  0.00    +0.000 A 
ATOM     22  C   UNL     1      46.850   9.319  12.192  0.00  0.00    +0.000 A 
BRANCH  17  24
ATOM     23  N   UNL     1      49.719  11.280  11.588  0.00  0.00    +0.000 NA
ATOM     24  C   UNL     1      48.601  10.974  11.672  0.00  0.00    +0.000 C 
ENDBRANCH  17  24
ENDBRANCH  15  21
ENDBRANCH  14  15
ENDBRANCH   1  14
TORSDOF 5
ENDMDL
MODEL 9
REMARK VINA RESULT:    -6.866      2.224      3.439
REMARK INTER + INTRA:          -9.553
REMARK INTER:                  -8.916
REMARK INTRA:                  -0.637
REMARK UNBOUND:                -0.681
REMARK  Name = 
REMARK  5 active torsions:
REMARK  status: ('A' for Active; 'I' for Inactive)
REMARK    1  A    between atoms: C_2  and  C_3
REMARK    2  A    between atoms: C_7  and  N_8
REMARK    3  A    between atoms: N_8  and  C_9
REMARK    4  A    between atoms: C_9  and  C_10
REMARK    5  A    between atoms: C_14  and  C_15
REMARK                            x       y       z     vdW  Elec       q    Type
REMARK                         _______ _______ _______ _____ _____    ______ ____
ROOT
ATOM      1  C   UNL     1      44.600   6.262  11.778  0.00  0.00    +0.000 A 
ATOM      2  C   UNL     1      43.344   5.836  12.185  0.00  0.00    +0.000 A 
ATOM      3  N   UNL     1      42.717   4.753  11.683  0.00  0.00    +0.000 NA
ATOM      4  C   UNL     1      43.373   4.060  10.720  0.00  0.00    +0.000 A 
ATOM      5  C   UNL     1      44.626   4.391  10.199  0.00  0.00    +0.000 A 
ATOM      6  C   UNL     1      45.229   5.533  10.757  0.00  0.00    +0.000 A 
ENDROOT
BRANCH   5   7
ATOM      7  C   UNL     1      45.278   3.588   9.140  0.00  0.00    +0.000 A 
ATOM      8  C   UNL     1      45.403   2.188   9.247  0.00  0.00    +0.000 A 
ATOM      9  C   UNL     1      46.019   1.425   8.245  0.00  0.00    +0.000 A 
ATOM     10  C   UNL     1      46.519   2.049   7.107  0.00  0.00    +0.000 A 
ATOM     11  C   UNL     1      46.405   3.425   6.986  0.00  0.00    +0.000 A 
ATOM     12  F   UNL     1      46.883   4.033   5.892  0.00  0.00    +0.000 F 
ATOM     13  C   UNL     1      45.803   4.190   7.982  0.00  0.00    +0.000 A 
ENDBRANCH   5   7
BRANCH   1  14
ATOM     14  C   UNL     1      45.252   7.455  12.423  0.00  0.00    +0.000 C 
BRANCH  14  15
ATOM     15  N   UNL     1      46.207   7.037  13.434  0.00  0.00    +0.000 N 
ATOM     16  H   UNL     1      45.818   6.831  14.350  0.00  0.00    +0.000 HD
BRANCH  15  21
ATOM     17  C   UNL     1      49.411   8.703  12.485  0.00  0.00    +0.000 A 
ATOM     18  C   UNL     1      50.248   8.037  13.362  0.00  0.00    +0.000 A 
ATOM     19  N   UNL     1      49.815   7.114  14.248  0.00  0.00    +0.000 NA
ATOM     20  C   UNL     1      48.483   6.847  14.243  0.00  0.00    +0.000 A 
ATOM     21  C   UNL     1      47.530   7.462  13.420  0.00  0.00    +0.000 A 
ATOM     22  C   UNL     1      48.041   8.401  12.516  0.00  0.00    +0.000 A 
BRANCH  17  24
ATOM     23  N   UNL     1      50.365  10.441  10.818  0.00  0.00    +0.000 NA
ATOM     24  C   UNL     1      49.934   9.660  11.564  0.00  0.00    +0.000 C 
ENDBRANCH  17  24
ENDBRANCH  15  21
ENDBRANCH  14  15
ENDBRANCH   1  14
TORSDOF 5
ENDMDL
