MODEL 1
REMARK VINA RESULT:    -9.955      0.000      0.000
REMARK INTER + INTRA:         -13.557
REMARK INTER:                 -12.864
REMARK INTRA:                  -0.693
REMARK UNBOUND:                -0.693
REMARK  Name = 
REMARK  5 active torsions:
REMARK  status: ('A' for Active; 'I' for Inactive)
REMARK    1  A    between atoms: C_2  and  C_4
REMARK    2  A    between atoms: N_8  and  C_9
REMARK    3  A    between atoms: C_9  and  C_10
REMARK    4  A    between atoms: C_10  and  C_13
REMARK    5  A    between atoms: C_17  and  C_18
REMARK                            x       y       z     vdW  Elec       q    Type
REMARK                         _______ _______ _______ _____ _____    ______ ____
ROOT
ATOM      1  C   UNL     1      43.490   5.508  12.143  0.00  0.00    +0.000 C 
ATOM      2  F   UNL     1      43.089   6.710  11.622  0.00  0.00    +0.000 F 
ATOM      3  F   UNL     1      42.592   5.245  13.149  0.00  0.00    +0.000 F 
ENDROOT
BRANCH   1   4
ATOM      4  C   UNL     1      44.899   5.582  12.688  0.00  0.00    +0.000 A 
ATOM      5  C   UNL     1      45.429   4.688  13.628  0.00  0.00    +0.000 A 
ATOM      6  C   UNL     1      46.750   4.805  14.046  0.00  0.00    +0.000 A 
ATOM      7  C   UNL     1      47.554   5.831  13.549  0.00  0.00    +0.000 A 
ATOM      8  C   UNL     1      47.058   6.783  12.641  0.00  0.00    +0.000 A 
ATOM      9  C   UNL     1      45.721   6.624  12.224  0.00  0.00    +0.000 A 
ATOM     10  F   UNL     1      45.183   7.507  11.368  0.00  0.00    +0.000 F 
BRANCH   8  11
ATOM     11  C   UNL     1      47.913   7.906  12.177  0.00  0.00    +0.000 A 
ATOM     12  C   UNL     1      47.450   9.235  12.151  0.00  0.00    +0.000 A 
ATOM     13  C   UNL     1      48.275  10.291  11.743  0.00  0.00    +0.000 A 
ATOM     14  C   UNL     1      49.577  10.035  11.332  0.00  0.00    +0.000 A 
ATOM     15 CL   UNL     1      50.595  11.328  10.836  0.00  0.00    +0.000 Cl
ATOM     16  C   UNL     1      50.060   8.732  11.323  0.00  0.00    +0.000 A 
ATOM     17  C   UNL     1      49.237   7.683  11.749  0.00  0.00    +0.000 A 
ENDBRANCH   8  11
ENDBRANCH   1   4
BRANCH   1  18
ATOM     18  C   UNL     1      43.238   4.427  11.061  0.00  0.00    +0.000 C 
BRANCH  18  23
ATOM     19  C   UNL     1      46.529   2.540   7.660  0.00  0.00    +0.000 A 
ATOM     20  C   UNL     1      45.679   1.876   8.538  0.00  0.00    +0.000 A 
ATOM     21  C   UNL     1      44.758   2.613   9.277  0.00  0.00    +0.000 A 
ATOM     22  C   UNL     1      44.707   3.996   9.129  0.00  0.00    +0.000 A 
ATOM     23  N   UNL     1      43.732   4.772   9.721  0.00  0.00    +0.000 N 
ATOM     24  N   UNL     1      45.567   4.655   8.331  0.00  0.00    +0.000 NA
ATOM     25  C   UNL     1      46.461   3.923   7.616  0.00  0.00    +0.000 A 
ATOM     26  H   UNL     1      43.935   5.751   9.529  0.00  0.00    +0.000 HD
BRANCH  19  28
ATOM     27  N   UNL     1      48.566   2.525   6.351  0.00  0.00    +0.000 N 
ATOM     28  C   UNL     1      47.466   1.827   6.771  0.00  0.00    +0.000 C 
ATOM     29  O   UNL     1      47.294   0.657   6.464  0.00  0.00    +0.000 OA
ATOM     30  H   UNL     1      49.268   1.997   5.847  0.00  0.00    +0.000 HD
ATOM     31  H   UNL     1      48.867   3.381   6.796  0.00  0.00    +0.000 HD
ENDBRANCH  19  28
ENDBRANCH  18  23
ENDBRANCH   1  18
TORSDOF 5
ENDMDL
MODEL 2
REMARK VINA RESULT:    -9.611      2.604      3.957
REMARK INTER + INTRA:         -13.112
REMARK INTER:                 -12.401
REMARK INTRA:                  -0.712
REMARK UNBOUND:                -0.693
REMARK  Name = 
REMARK  5 active torsions:
REMARK  status: ('A' for Active; 'I' for Inactive)
REMARK    1  A    between atoms: C_2  and  C_4
REMARK    2  A    between atoms: N_8  and  C_9
REMARK    3  A    between atoms: C_9  and  C_10
REMARK    4  A    between atoms: C_10  and  C_13
REMARK    5  A    between atoms: C_17  and  C_18
REMARK                            x       y       z     vdW  Elec       q    Type
REMARK                         _______ _______ _______ _____ _____    ______ ____
ROOT
ATOM      1  C   UNL     1      43.627   5.896  11.793  0.00  0.00    +0.000 C 
ATOM      2  F   UNL     1      43.067   6.993  11.191  0.00  0.00    +0.000 F 
ATOM      3  F   UNL     1      42.913   5.734  12.955  0.00  0.00    +0.000 F 
ENDROOT
BRANCH   1   4
ATOM      4  C   UNL     1      45.093   6.114  12.089  0.00  0.00    +0.000 A 
ATOM      5  C   UNL     1      45.966   6.834  11.264  0.00  0.00    +0.000 A 
ATOM      6  C   UNL     1      47.294   7.021  11.632  0.00  0.00    +0.000 A 
ATOM      7  C   UNL     1      47.775   6.470  12.820  0.00  0.00    +0.000 A 
ATOM      8  C   UNL     1      46.954   5.698  13.662  0.00  0.00    +0.000 A 
ATOM      9  C   UNL     1      45.609   5.545  13.267  0.00  0.00    +0.000 A 
ATOM     10  F   UNL     1      44.777   4.809  14.019  0.00  0.00    +0.000 F 
BRANCH   8  11
ATOM     11  C   UNL     1      47.506   5.066  14.887  0.00  0.00    +0.000 A 
ATOM     12  C   UNL     1      48.277   5.789  15.817  0.00  0.00    +0.000 A 
ATOM     13  C   UNL     1      48.766   5.192  16.986  0.00  0.00    +0.000 A 
ATOM     14  C   UNL     1      48.509   3.850  17.239  0.00  0.00    +0.000 A 
ATOM     15 CL   UNL     1      49.102   3.116  18.676  0.00  0.00    +0.000 Cl
ATOM     16  C   UNL     1      47.770   3.100  16.333  0.00  0.00    +0.000 A 
ATOM     17  C   UNL     1      47.270   3.707  15.175  0.00  0.00    +0.000 A 
ENDBRANCH   8  11
ENDBRANCH   1   4
BRANCH   1  18
ATOM     18  C   UNL     1      43.288   4.664  10.915  0.00  0.00    +0.000 C 
BRANCH  18  23
ATOM     19  C   UNL     1      46.448   2.294   7.697  0.00  0.00    +0.000 A 
ATOM     20  C   UNL     1      45.673   1.772   8.727  0.00  0.00    +0.000 A 
ATOM     21  C   UNL     1      44.768   2.604   9.382  0.00  0.00    +0.000 A 
ATOM     22  C   UNL     1      44.660   3.938   9.001  0.00  0.00    +0.000 A 
ATOM     23  N   UNL     1      43.693   4.781   9.508  0.00  0.00    +0.000 N 
ATOM     24  N   UNL     1      45.450   4.469   8.049  0.00  0.00    +0.000 NA
ATOM     25  C   UNL     1      46.328   3.645   7.418  0.00  0.00    +0.000 A 
ATOM     26  H   UNL     1      43.850   5.716   9.137  0.00  0.00    +0.000 HD
BRANCH  19  28
ATOM     27  N   UNL     1      48.502   2.060   6.436  0.00  0.00    +0.000 N 
ATOM     28  C   UNL     1      47.358   1.461   6.889  0.00  0.00    +0.000 C 
ATOM     29  O   UNL     1      47.126   0.279   6.675  0.00  0.00    +0.000 OA
ATOM     30  H   UNL     1      49.182   1.456   5.991  0.00  0.00    +0.000 HD
ATOM     31  H   UNL     1      48.843   2.933   6.816  0.00  0.00    +0.000 HD
ENDBRANCH  19  28
ENDBRANCH  18  23
ENDBRANCH   1  18
TORSDOF 5
ENDMDL
MODEL 3
REMARK VINA RESULT:    -9.083      2.000      2.614
REMARK INTER + INTRA:         -12.430
REMARK INTER:                 -11.951
REMARK INTRA:                  -0.480
REMARK UNBOUND:                -0.693
REMARK  Name = 
REMARK  5 active torsions:
REMARK  status: ('A' for Active; 'I' for Inactive)
REMARK    1  A    between atoms: C_2  and  C_4
REMARK    2  A    between atoms: N_8  and  C_9
REMARK    3  A    between atoms: C_9  and  C_10
REMARK    4  A    between atoms: C_10  and  C_13
REMARK    5  A    between atoms: C_17  and  C_18
REMARK                            x       y       z     vdW  Elec       q    Type
REMARK                         _______ _______ _______ _____ _____    ______ ____
ROOT
ATOM      1  C   UNL     1      44.321   4.680  12.233  0.00  0.00    +0.000 C 
ATOM      2  F   UNL     1      43.668   4.441  13.414  0.00  0.00    +0.000 F 
ATOM      3  F   UNL     1      45.241   3.665  12.131  0.00  0.00    +0.000 F 
ENDROOT
BRANCH   1   4
ATOM      4  C   UNL     1      45.008   6.027  12.241  0.00  0.00    +0.000 A 
ATOM      5  C   UNL     1      44.484   7.183  11.649  0.00  0.00    +0.000 A 
ATOM      6  C   UNL     1      45.164   8.392  11.738  0.00  0.00    +0.000 A 
ATOM      7  C   UNL     1      46.391   8.459  12.400  0.00  0.00    +0.000 A 
ATOM      8  C   UNL     1      46.985   7.319  12.969  0.00  0.00    +0.000 A 
ATOM      9  C   UNL     1      46.259   6.114  12.878  0.00  0.00    +0.000 A 
ATOM     10  F   UNL     1      46.777   4.987  13.390  0.00  0.00    +0.000 F 
BRANCH   8  11
ATOM     11  C   UNL     1      48.323   7.401  13.610  0.00  0.00    +0.000 A 
ATOM     12  C   UNL     1      49.445   7.911  12.930  0.00  0.00    +0.000 A 
ATOM     13  C   UNL     1      50.695   8.014  13.554  0.00  0.00    +0.000 A 
ATOM     14  C   UNL     1      50.852   7.590  14.867  0.00  0.00    +0.000 A 
ATOM     15 CL   UNL     1      52.383   7.721  15.638  0.00  0.00    +0.000 Cl
ATOM     16  C   UNL     1      49.771   7.061  15.562  0.00  0.00    +0.000 A 
ATOM     17  C   UNL     1      48.520   6.976  14.939  0.00  0.00    +0.000 A 
ENDBRANCH   8  11
ENDBRANCH   1   4
BRANCH   1  18
ATOM     18  C   UNL     1      43.305   4.445  11.087  0.00  0.00    +0.000 C 
BRANCH  18  23
ATOM     19  C   UNL     1      46.555   2.495   7.682  0.00  0.00    +0.000 A 
ATOM     20  C   UNL     1      45.695   1.848   8.563  0.00  0.00    +0.000 A 
ATOM     21  C   UNL     1      44.788   2.602   9.302  0.00  0.00    +0.000 A 
ATOM     22  C   UNL     1      44.761   3.985   9.153  0.00  0.00    +0.000 A 
ATOM     23  N   UNL     1      43.802   4.779   9.746  0.00  0.00    +0.000 N 
ATOM     24  N   UNL     1      45.631   4.628   8.352  0.00  0.00    +0.000 NA
ATOM     25  C   UNL     1      46.511   3.879   7.637  0.00  0.00    +0.000 A 
ATOM     26  H   UNL     1      44.022   5.754   9.552  0.00  0.00    +0.000 HD
BRANCH  19  28
ATOM     27  N   UNL     1      48.599   2.437   6.385  0.00  0.00    +0.000 N 
ATOM     28  C   UNL     1      47.478   1.766   6.793  0.00  0.00    +0.000 C 
ATOM     29  O   UNL     1      47.276   0.603   6.474  0.00  0.00    +0.000 OA
ATOM     30  H   UNL     1      49.290   1.894   5.880  0.00  0.00    +0.000 HD
ATOM     31  H   UNL     1      48.921   3.280   6.840  0.00  0.00    +0.000 HD
ENDBRANCH  19  28
ENDBRANCH  18  23
ENDBRANCH   1  18
TORSDOF 5
ENDMDL
MODEL 4
REMARK VINA RESULT:    -8.271      4.791      7.626
REMARK INTER + INTRA:         -11.381
REMARK INTER:                 -10.760
REMARK INTRA:                  -0.621
REMARK UNBOUND:                -0.693
REMARK  Name = 
REMARK  5 active torsions:
REMARK  status: ('A' for Active; 'I' for Inactive)
REMARK    1  A    between atoms: C_2  and  C_4
REMARK    2  A    between atoms: N_8  and  C_9
REMARK    3  A    between atoms: C_9  and  C_10
REMARK    4  A    between atoms: C_10  and  C_13
REMARK    5  A    between atoms: C_17  and  C_18
REMARK                            x       y       z     vdW  Elec       q    Type
REMARK                         _______ _______ _______ _____ _____    ______ ____
ROOT
ATOM      1  C   UNL     1      44.816   5.750  12.725  0.00  0.00    +0.000 C 
ATOM      2  F   UNL     1      43.801   6.109  13.573  0.00  0.00    +0.000 F 
ATOM      3  F   UNL     1      44.955   6.819  11.874  0.00  0.00    +0.000 F 
ENDROOT
BRANCH   1   4
ATOM      4  C   UNL     1      44.478   4.493  11.955  0.00  0.00    +0.000 A 
ATOM      5  C   UNL     1      43.551   3.533  12.381  0.00  0.00    +0.000 A 
ATOM      6  C   UNL     1      43.270   2.424  11.591  0.00  0.00    +0.000 A 
ATOM      7  C   UNL     1      43.928   2.245  10.375  0.00  0.00    +0.000 A 
ATOM      8  C   UNL     1      44.903   3.153   9.923  0.00  0.00    +0.000 A 
ATOM      9  C   UNL     1      45.149   4.276  10.739  0.00  0.00    +0.000 A 
ATOM     10  F   UNL     1      46.076   5.174  10.371  0.00  0.00    +0.000 F 
BRANCH   8  11
ATOM     11  C   UNL     1      45.639   2.907   8.656  0.00  0.00    +0.000 A 
ATOM     12  C   UNL     1      45.861   3.928   7.712  0.00  0.00    +0.000 A 
ATOM     13  C   UNL     1      46.584   3.693   6.535  0.00  0.00    +0.000 A 
ATOM     14  C   UNL     1      47.083   2.424   6.270  0.00  0.00    +0.000 A 
ATOM     15 CL   UNL     1      47.977   2.134   4.830  0.00  0.00    +0.000 Cl
ATOM     16  C   UNL     1      46.865   1.388   7.169  0.00  0.00    +0.000 A 
ATOM     17  C   UNL     1      46.156   1.633   8.351  0.00  0.00    +0.000 A 
ENDBRANCH   8  11
ENDBRANCH   1   4
BRANCH   1  18
ATOM     18  C   UNL     1      46.121   5.703  13.560  0.00  0.00    +0.000 C 
BRANCH  18  23
ATOM     19  C   UNL     1      49.255   4.172  17.273  0.00  0.00    +0.000 A 
ATOM     20  C   UNL     1      48.968   5.457  16.825  0.00  0.00    +0.000 A 
ATOM     21  C   UNL     1      47.958   5.637  15.884  0.00  0.00    +0.000 A 
ATOM     22  C   UNL     1      47.260   4.533  15.405  0.00  0.00    +0.000 A 
ATOM     23  N   UNL     1      46.160   4.648  14.581  0.00  0.00    +0.000 N 
ATOM     24  N   UNL     1      47.571   3.279  15.784  0.00  0.00    +0.000 NA
ATOM     25  C   UNL     1      48.559   3.118  16.703  0.00  0.00    +0.000 A 
ATOM     26  H   UNL     1      45.859   3.714  14.309  0.00  0.00    +0.000 HD
BRANCH  19  28
ATOM     27  N   UNL     1      51.100   2.858  18.130  0.00  0.00    +0.000 N 
ATOM     28  C   UNL     1      50.241   3.903  18.337  0.00  0.00    +0.000 C 
ATOM     29  O   UNL     1      50.318   4.609  19.332  0.00  0.00    +0.000 OA
ATOM     30  H   UNL     1      51.853   2.755  18.800  0.00  0.00    +0.000 HD
ATOM     31  H   UNL     1      51.234   2.439  17.220  0.00  0.00    +0.000 HD
ENDBRANCH  19  28
ENDBRANCH  18  23
ENDBRANCH   1  18
TORSDOF 5
ENDMDL
MODEL 5
REMARK VINA RESULT:    -7.364      2.813      3.218
REMARK INTER + INTRA:         -10.209
REMARK INTER:                  -9.142
REMARK INTRA:                  -1.067
REMARK UNBOUND:                -0.693
REMARK  Name = 
REMARK  5 active torsions:
REMARK  status: ('A' for Active; 'I' for Inactive)
REMARK    1  A    between atoms: C_2  and  C_4
REMARK    2  A    between atoms: N_8  and  C_9
REMARK    3  A    between atoms: C_9  and  C_10
REMARK    4  A    between atoms: C_10  and  C_13
REMARK    5  A    between atoms: C_17  and  C_18
REMARK                            x       y       z     vdW  Elec       q    Type
REMARK                         _______ _______ _______ _____ _____    ______ ____
ROOT
ATOM      1  C   UNL     1      45.720   6.540  11.961  0.00  0.00    +0.000 C 
ATOM      2  F   UNL     1      46.619   6.888  10.987  0.00  0.00    +0.000 F 
ATOM      3  F   UNL     1      45.094   7.716  12.295  0.00  0.00    +0.000 F 
ENDROOT
BRANCH   1   4
ATOM      4  C   UNL     1      46.410   5.939  13.165  0.00  0.00    +0.000 A 
ATOM      5  C   UNL     1      46.167   4.647  13.649  0.00  0.00    +0.000 A 
ATOM      6  C   UNL     1      46.877   4.158  14.740  0.00  0.00    +0.000 A 
ATOM      7  C   UNL     1      47.823   4.960  15.378  0.00  0.00    +0.000 A 
ATOM      8  C   UNL     1      48.071   6.281  14.962  0.00  0.00    +0.000 A 
ATOM      9  C   UNL     1      47.348   6.738  13.842  0.00  0.00    +0.000 A 
ATOM     10  F   UNL     1      47.529   7.993  13.402  0.00  0.00    +0.000 F 
BRANCH   8  11
ATOM     11  C   UNL     1      49.035   7.139  15.698  0.00  0.00    +0.000 A 
ATOM     12  C   UNL     1      48.636   8.326  16.342  0.00  0.00    +0.000 A 
ATOM     13  C   UNL     1      49.547   9.111  17.061  0.00  0.00    +0.000 A 
ATOM     14  C   UNL     1      50.882   8.734  17.133  0.00  0.00    +0.000 A 
ATOM     15 CL   UNL     1      52.001   9.692  18.019  0.00  0.00    +0.000 Cl
ATOM     16  C   UNL     1      51.315   7.581  16.491  0.00  0.00    +0.000 A 
ATOM     17  C   UNL     1      50.397   6.791  15.789  0.00  0.00    +0.000 A 
ENDBRANCH   8  11
ENDBRANCH   1   4
BRANCH   1  18
ATOM     18  C   UNL     1      44.634   5.659  11.293  0.00  0.00    +0.000 C 
BRANCH  18  23
ATOM     19  C   UNL     1      46.348   2.246   7.921  0.00  0.00    +0.000 A 
ATOM     20  C   UNL     1      45.701   2.048   9.136  0.00  0.00    +0.000 A 
ATOM     21  C   UNL     1      45.193   3.148   9.821  0.00  0.00    +0.000 A 
ATOM     22  C   UNL     1      45.346   4.423   9.283  0.00  0.00    +0.000 A 
ATOM     23  N   UNL     1      44.751   5.540   9.834  0.00  0.00    +0.000 N 
ATOM     24  N   UNL     1      46.026   4.633   8.141  0.00  0.00    +0.000 NA
ATOM     25  C   UNL     1      46.516   3.550   7.484  0.00  0.00    +0.000 A 
ATOM     26  H   UNL     1      45.056   6.360   9.314  0.00  0.00    +0.000 HD
BRANCH  19  28
ATOM     27  N   UNL     1      46.781  -0.120   7.643  0.00  0.00    +0.000 N 
ATOM     28  C   UNL     1      46.829   1.129   7.086  0.00  0.00    +0.000 C 
ATOM     29  O   UNL     1      47.208   1.305   5.937  0.00  0.00    +0.000 OA
ATOM     30  H   UNL     1      46.992  -0.896   7.026  0.00  0.00    +0.000 HD
ATOM     31  H   UNL     1      46.233  -0.325   8.467  0.00  0.00    +0.000 HD
ENDBRANCH  19  28
ENDBRANCH  18  23
ENDBRANCH   1  18
TORSDOF 5
ENDMDL
MODEL 6
REMARK VINA RESULT:    -7.286      4.262      7.063
REMARK INTER + INTRA:         -10.109
REMARK INTER:                  -9.135
REMARK INTRA:                  -0.974
REMARK UNBOUND:                -0.693
REMARK  Name = 
REMARK  5 active torsions:
REMARK  status: ('A' for Active; 'I' for Inactive)
REMARK    1  A    between atoms: C_2  and  C_4
REMARK    2  A    between atoms: N_8  and  C_9
REMARK    3  A    between atoms: C_9  and  C_10
REMARK    4  A    between atoms: C_10  and  C_13
REMARK    5  A    between atoms: C_17  and  C_18
REMARK                            x       y       z     vdW  Elec       q    Type
REMARK                         _______ _______ _______ _____ _____    ______ ____
ROOT
ATOM      1  C   UNL     1      45.802   7.837  12.517  0.00  0.00    +0.000 C 
ATOM      2  F   UNL     1      45.096   8.690  13.325  0.00  0.00    +0.000 F 
ATOM      3  F   UNL     1      46.292   8.634  11.512  0.00  0.00    +0.000 F 
ENDROOT
BRANCH   1   4
ATOM      4  C   UNL     1      44.918   6.747  11.954  0.00  0.00    +0.000 A 
ATOM      5  C   UNL     1      43.600   6.509  12.366  0.00  0.00    +0.000 A 
ATOM      6  C   UNL     1      42.843   5.509  11.767  0.00  0.00    +0.000 A 
ATOM      7  C   UNL     1      43.399   4.717  10.762  0.00  0.00    +0.000 A 
ATOM      8  C   UNL     1      44.732   4.882  10.344  0.00  0.00    +0.000 A 
ATOM      9  C   UNL     1      45.464   5.917  10.960  0.00  0.00    +0.000 A 
ATOM     10  F   UNL     1      46.745   6.118  10.615  0.00  0.00    +0.000 F 
BRANCH   8  11
ATOM     11  C   UNL     1      45.322   3.982   9.320  0.00  0.00    +0.000 A 
ATOM     12  C   UNL     1      45.972   4.481   8.175  0.00  0.00    +0.000 A 
ATOM     13  C   UNL     1      46.553   3.625   7.231  0.00  0.00    +0.000 A 
ATOM     14  C   UNL     1      46.478   2.248   7.404  0.00  0.00    +0.000 A 
ATOM     15 CL   UNL     1      47.196   1.194   6.252  0.00  0.00    +0.000 Cl
ATOM     16  C   UNL     1      45.825   1.720   8.511  0.00  0.00    +0.000 A 
ATOM     17  C   UNL     1      45.261   2.581   9.460  0.00  0.00    +0.000 A 
ENDBRANCH   8  11
ENDBRANCH   1   4
BRANCH   1  18
ATOM     18  C   UNL     1      47.039   7.360  13.319  0.00  0.00    +0.000 C 
BRANCH  18  23
ATOM     19  C   UNL     1      51.810   8.339  11.823  0.00  0.00    +0.000 A 
ATOM     20  C   UNL     1      50.756   7.770  11.117  0.00  0.00    +0.000 A 
ATOM     21  C   UNL     1      49.491   7.736  11.697  0.00  0.00    +0.000 A 
ATOM     22  C   UNL     1      49.305   8.266  12.970  0.00  0.00    +0.000 A 
ATOM     23  N   UNL     1      48.058   8.392  13.549  0.00  0.00    +0.000 N 
ATOM     24  N   UNL     1      50.329   8.761  13.688  0.00  0.00    +0.000 NA
ATOM     25  C   UNL     1      51.558   8.787  13.109  0.00  0.00    +0.000 A 
ATOM     26  H   UNL     1      48.175   8.739  14.499  0.00  0.00    +0.000 HD
BRANCH  19  28
ATOM     27  N   UNL     1      54.145   8.920  12.095  0.00  0.00    +0.000 N 
ATOM     28  C   UNL     1      53.158   8.502  11.245  0.00  0.00    +0.000 C 
ATOM     29  O   UNL     1      53.390   8.230  10.076  0.00  0.00    +0.000 OA
ATOM     30  H   UNL     1      55.089   8.909  11.727  0.00  0.00    +0.000 HD
ATOM     31  H   UNL     1      54.043   8.890  13.100  0.00  0.00    +0.000 HD
ENDBRANCH  19  28
ENDBRANCH  18  23
ENDBRANCH   1  18
TORSDOF 5
ENDMDL
MODEL 7
REMARK VINA RESULT:    -7.252      5.036      7.110
REMARK INTER + INTRA:         -10.064
REMARK INTER:                  -8.542
REMARK INTRA:                  -1.522
REMARK UNBOUND:                -0.693
REMARK  Name = 
REMARK  5 active torsions:
REMARK  status: ('A' for Active; 'I' for Inactive)
REMARK    1  A    between atoms: C_2  and  C_4
REMARK    2  A    between atoms: N_8  and  C_9
REMARK    3  A    between atoms: C_9  and  C_10
REMARK    4  A    between atoms: C_10  and  C_13
REMARK    5  A    between atoms: C_17  and  C_18
REMARK                            x       y       z     vdW  Elec       q    Type
REMARK                         _______ _______ _______ _____ _____    ______ ____
ROOT
ATOM      1  C   UNL     1      49.075   9.530  14.907  0.00  0.00    +0.000 C 
ATOM      2  F   UNL     1      50.419   9.620  14.656  0.00  0.00    +0.000 F 
ATOM      3  F   UNL     1      48.661  10.830  15.065  0.00  0.00    +0.000 F 
ENDROOT
BRANCH   1   4
ATOM      4  C   UNL     1      48.797   8.723  16.155  0.00  0.00    +0.000 A 
ATOM      5  C   UNL     1      48.073   9.198  17.256  0.00  0.00    +0.000 A 
ATOM      6  C   UNL     1      47.828   8.374  18.349  0.00  0.00    +0.000 A 
ATOM      7  C   UNL     1      48.325   7.070  18.368  0.00  0.00    +0.000 A 
ATOM      8  C   UNL     1      49.099   6.559  17.311  0.00  0.00    +0.000 A 
ATOM      9  C   UNL     1      49.311   7.415  16.211  0.00  0.00    +0.000 A 
ATOM     10  F   UNL     1      50.051   6.992  15.175  0.00  0.00    +0.000 F 
BRANCH   8  11
ATOM     11  C   UNL     1      49.672   5.191  17.384  0.00  0.00    +0.000 A 
ATOM     12  C   UNL     1      48.883   4.040  17.195  0.00  0.00    +0.000 A 
ATOM     13  C   UNL     1      49.440   2.755  17.233  0.00  0.00    +0.000 A 
ATOM     14  C   UNL     1      50.798   2.595  17.483  0.00  0.00    +0.000 A 
ATOM     15 CL   UNL     1      51.486   1.020  17.525  0.00  0.00    +0.000 Cl
ATOM     16  C   UNL     1      51.602   3.707  17.696  0.00  0.00    +0.000 A 
ATOM     17  C   UNL     1      51.043   4.989  17.639  0.00  0.00    +0.000 A 
ENDBRANCH   8  11
ENDBRANCH   1   4
BRANCH   1  18
ATOM     18  C   UNL     1      48.395   9.025  13.609  0.00  0.00    +0.000 C 
BRANCH  18  23
ATOM     19  C   UNL     1      45.346   5.026  12.797  0.00  0.00    +0.000 A 
ATOM     20  C   UNL     1      46.661   5.064  13.249  0.00  0.00    +0.000 A 
ATOM     21  C   UNL     1      47.244   6.296  13.533  0.00  0.00    +0.000 A 
ATOM     22  C   UNL     1      46.507   7.463  13.356  0.00  0.00    +0.000 A 
ATOM     23  N   UNL     1      46.969   8.702  13.747  0.00  0.00    +0.000 N 
ATOM     24  N   UNL     1      45.256   7.442  12.859  0.00  0.00    +0.000 NA
ATOM     25  C   UNL     1      44.700   6.233  12.586  0.00  0.00    +0.000 A 
ATOM     26  H   UNL     1      46.294   9.407  13.459  0.00  0.00    +0.000 HD
BRANCH  19  28
ATOM     27  N   UNL     1      45.124   2.935  11.596  0.00  0.00    +0.000 N 
ATOM     28  C   UNL     1      44.623   3.761  12.565  0.00  0.00    +0.000 C 
ATOM     29  O   UNL     1      43.652   3.445  13.238  0.00  0.00    +0.000 OA
ATOM     30  H   UNL     1      44.702   2.016  11.526  0.00  0.00    +0.000 HD
ATOM     31  H   UNL     1      46.056   3.042  11.222  0.00  0.00    +0.000 HD
ENDBRANCH  19  28
ENDBRANCH  18  23
ENDBRANCH   1  18
TORSDOF 5
ENDMDL
MODEL 8
REMARK VINA RESULT:    -7.061      4.523      7.434
REMARK INTER + INTRA:          -9.817
REMARK INTER:                  -9.506
REMARK INTRA:                  -0.312
REMARK UNBOUND:                -0.693
REMARK  Name = 
REMARK  5 active torsions:
REMARK  status: ('A' for Active; 'I' for Inactive)
REMARK    1  A    between atoms: C_2  and  C_4
REMARK    2  A    between atoms: N_8  and  C_9
REMARK    3  A    between atoms: C_9  and  C_10
REMARK    4  A    between atoms: C_10  and  C_13
REMARK    5  A    between atoms: C_17  and  C_18
REMARK                            x       y       z     vdW  Elec       q    Type
REMARK                         _______ _______ _______ _____ _____    ______ ____
ROOT
ATOM      1  C   UNL     1      44.614   6.286  12.302  0.00  0.00    +0.000 C 
ATOM      2  F   UNL     1      44.091   6.387  13.564  0.00  0.00    +0.000 F 
ATOM      3  F   UNL     1      43.960   7.250  11.575  0.00  0.00    +0.000 F 
ENDROOT
BRANCH   1   4
ATOM      4  C   UNL     1      44.376   4.914  11.710  0.00  0.00    +0.000 A 
ATOM      5  C   UNL     1      43.544   3.943  12.282  0.00  0.00    +0.000 A 
ATOM      6  C   UNL     1      43.349   2.720  11.650  0.00  0.00    +0.000 A 
ATOM      7  C   UNL     1      44.001   2.441  10.448  0.00  0.00    +0.000 A 
ATOM      8  C   UNL     1      44.884   3.361   9.857  0.00  0.00    +0.000 A 
ATOM      9  C   UNL     1      45.044   4.598  10.514  0.00  0.00    +0.000 A 
ATOM     10  F   UNL     1      45.882   5.516  10.008  0.00  0.00    +0.000 F 
BRANCH   8  11
ATOM     11  C   UNL     1      45.619   3.015   8.612  0.00  0.00    +0.000 A 
ATOM     12  C   UNL     1      45.875   3.968   7.608  0.00  0.00    +0.000 A 
ATOM     13  C   UNL     1      46.596   3.639   6.453  0.00  0.00    +0.000 A 
ATOM     14  C   UNL     1      47.059   2.342   6.270  0.00  0.00    +0.000 A 
ATOM     15 CL   UNL     1      47.950   1.936   4.857  0.00  0.00    +0.000 Cl
ATOM     16  C   UNL     1      46.805   1.371   7.230  0.00  0.00    +0.000 A 
ATOM     17  C   UNL     1      46.099   1.709   8.391  0.00  0.00    +0.000 A 
ENDBRANCH   8  11
ENDBRANCH   1   4
BRANCH   1  18
ATOM     18  C   UNL     1      46.093   6.744  12.376  0.00  0.00    +0.000 C 
BRANCH  18  23
ATOM     19  C   UNL     1      50.496   8.031  14.593  0.00  0.00    +0.000 A 
ATOM     20  C   UNL     1      49.813   8.646  13.549  0.00  0.00    +0.000 A 
ATOM     21  C   UNL     1      48.543   8.189  13.208  0.00  0.00    +0.000 A 
ATOM     22  C   UNL     1      47.982   7.127  13.911  0.00  0.00    +0.000 A 
ATOM     23  N   UNL     1      46.680   6.714  13.722  0.00  0.00    +0.000 N 
ATOM     24  N   UNL     1      48.659   6.483  14.880  0.00  0.00    +0.000 NA
ATOM     25  C   UNL     1      49.898   6.939  15.202  0.00  0.00    +0.000 A 
ATOM     26  H   UNL     1      46.515   5.886  14.292  0.00  0.00    +0.000 HD
BRANCH  19  28
ATOM     27  N   UNL     1      52.437   7.734  16.009  0.00  0.00    +0.000 N 
ATOM     28  C   UNL     1      51.802   8.513  15.081  0.00  0.00    +0.000 C 
ATOM     29  O   UNL     1      52.313   9.532  14.641  0.00  0.00    +0.000 OA
ATOM     30  H   UNL     1      53.385   8.000  16.247  0.00  0.00    +0.000 HD
ATOM     31  H   UNL     1      52.172   6.774  16.184  0.00  0.00    +0.000 HD
ENDBRANCH  19  28
ENDBRANCH  18  23
ENDBRANCH   1  18
TORSDOF 5
ENDMDL
