MODEL 1
REMARK VINA RESULT:    -7.752      0.000      0.000
REMARK INTER + INTRA:          -9.521
REMARK INTER:                  -9.111
REMARK INTRA:                  -0.410
REMARK UNBOUND:                -0.410
REMARK  Name = 
REMARK  3 active torsions:
REMARK  status: ('A' for Active; 'I' for Inactive)
REMARK    1  A    between atoms: C_2  and  C_4
REMARK    2  A    between atoms: N_8  and  C_9
REMARK    3  A    between atoms: C_9  and  C_10
REMARK                            x       y       z     vdW  Elec       q    Type
REMARK                         _______ _______ _______ _____ _____    ______ ____
ROOT
ATOM      1  C   UNL     1      46.558   5.002  13.434  0.00  0.00    +0.000 A 
ATOM      2  C   UNL     1      46.794   6.117  12.637  0.00  0.00    +0.000 A 
ATOM      3  C   UNL     1      46.290   6.156  11.337  0.00  0.00    +0.000 A 
ATOM      4  C   UNL     1      45.535   5.077  10.854  0.00  0.00    +0.000 A 
ATOM      5  N   UNL     1      45.103   5.096   9.537  0.00  0.00    +0.000 N 
ATOM      6  N   UNL     1      45.325   3.982  11.609  0.00  0.00    +0.000 NA
ATOM      7  C   UNL     1      45.834   3.952  12.866  0.00  0.00    +0.000 A 
ATOM      8  H   UNL     1      44.957   6.002   9.122  0.00  0.00    +0.000 HD
ENDROOT
BRANCH   1  10
ATOM      9  N   UNL     1      47.852   5.901  15.253  0.00  0.00    +0.000 N 
ATOM     10  C   UNL     1      47.043   4.895  14.807  0.00  0.00    +0.000 C 
ATOM     11  O   UNL     1      46.728   3.959  15.534  0.00  0.00    +0.000 OA
ATOM     12  H   UNL     1      48.137   5.866  16.225  0.00  0.00    +0.000 HD
ATOM     13  H   UNL     1      47.948   6.786  14.772  0.00  0.00    +0.000 HD
ENDBRANCH   1  10
BRANCH   5  14
ATOM     14  C   UNL     1      44.290   3.973   9.060  0.00  0.00    +0.000 C 
BRANCH  14  15
ATOM     15  C   UNL     1      45.063   3.106   8.042  0.00  0.00    +0.000 C 
ATOM     16  C   UNL     1      45.646   1.860   8.738  0.00  0.00    +0.000 C 
ATOM     17  C   UNL     1      46.475   1.004   7.783  0.00  0.00    +0.000 C 
ATOM     18  C   UNL     1      47.583   1.818   7.122  0.00  0.00    +0.000 C 
ATOM     19  C   UNL     1      47.024   3.052   6.425  0.00  0.00    +0.000 C 
ATOM     20  C   UNL     1      46.193   3.908   7.376  0.00  0.00    +0.000 C 
ENDBRANCH  14  15
ENDBRANCH   5  14
TORSDOF 3
ENDMDL
MODEL 2
REMARK VINA RESULT:    -7.472      3.052      6.412
REMARK INTER + INTRA:          -9.193
REMARK INTER:                  -8.858
REMARK INTRA:                  -0.335
REMARK UNBOUND:                -0.410
REMARK  Name = 
REMARK  3 active torsions:
REMARK  status: ('A' for Active; 'I' for Inactive)
REMARK    1  A    between atoms: C_2  and  C_4
REMARK    2  A    between atoms: N_8  and  C_9
REMARK    3  A    between atoms: C_9  and  C_10
REMARK                            x       y       z     vdW  Elec       q    Type
REMARK                         _______ _______ _______ _____ _____    ______ ____
ROOT
ATOM      1  C   UNL     1      46.568   2.580   7.366  0.00  0.00    +0.000 A 
ATOM      2  C   UNL     1      46.041   1.546   8.134  0.00  0.00    +0.000 A 
ATOM      3  C   UNL     1      45.134   1.837   9.152  0.00  0.00    +0.000 A 
ATOM      4  C   UNL     1      44.749   3.166   9.380  0.00  0.00    +0.000 A 
ATOM      5  N   UNL     1      43.904   3.448  10.442  0.00  0.00    +0.000 N 
ATOM      6  N   UNL     1      45.274   4.175   8.660  0.00  0.00    +0.000 NA
ATOM      7  C   UNL     1      46.167   3.879   7.682  0.00  0.00    +0.000 A 
ATOM      8  H   UNL     1      43.274   2.715  10.725  0.00  0.00    +0.000 HD
ENDROOT
BRANCH   1  10
ATOM      9  N   UNL     1      47.437   3.203   5.209  0.00  0.00    +0.000 N 
ATOM     10  C   UNL     1      47.512   2.353   6.275  0.00  0.00    +0.000 C 
ATOM     11  O   UNL     1      48.344   1.453   6.318  0.00  0.00    +0.000 OA
ATOM     12  H   UNL     1      48.133   3.091   4.481  0.00  0.00    +0.000 HD
ATOM     13  H   UNL     1      46.930   4.079   5.237  0.00  0.00    +0.000 HD
ENDBRANCH   1  10
BRANCH   5  14
ATOM     14  C   UNL     1      43.490   4.840  10.645  0.00  0.00    +0.000 C 
BRANCH  14  15
ATOM     15  C   UNL     1      44.230   5.482  11.839  0.00  0.00    +0.000 C 
ATOM     16  C   UNL     1      45.091   6.667  11.355  0.00  0.00    +0.000 C 
ATOM     17  C   UNL     1      45.894   7.295  12.492  0.00  0.00    +0.000 C 
ATOM     18  C   UNL     1      46.756   6.260  13.205  0.00  0.00    +0.000 C 
ATOM     19  C   UNL     1      45.921   5.083  13.695  0.00  0.00    +0.000 C 
ATOM     20  C   UNL     1      45.115   4.454  12.561  0.00  0.00    +0.000 C 
ENDBRANCH  14  15
ENDBRANCH   5  14
TORSDOF 3
ENDMDL
MODEL 3
REMARK VINA RESULT:    -7.325      2.047      2.783
REMARK INTER + INTRA:          -9.019
REMARK INTER:                  -8.810
REMARK INTRA:                  -0.209
REMARK UNBOUND:                -0.410
REMARK  Name = 
REMARK  3 active torsions:
REMARK  status: ('A' for Active; 'I' for Inactive)
REMARK    1  A    between atoms: C_2  and  C_4
REMARK    2  A    between atoms: N_8  and  C_9
REMARK    3  A    between atoms: C_9  and  C_10
REMARK                            x       y       z     vdW  Elec       q    Type
REMARK                         _______ _______ _______ _____ _____    ______ ____
ROOT
ATOM      1  C   UNL     1      45.491   6.752  12.458  0.00  0.00    +0.000 A 
ATOM      2  C   UNL     1      45.728   5.675  13.307  0.00  0.00    +0.000 A 
ATOM      3  C   UNL     1      45.549   4.374  12.839  0.00  0.00    +0.000 A 
ATOM      4  C   UNL     1      45.149   4.165  11.511  0.00  0.00    +0.000 A 
ATOM      5  N   UNL     1      44.903   2.870  11.080  0.00  0.00    +0.000 N 
ATOM      6  N   UNL     1      44.891   5.200  10.690  0.00  0.00    +0.000 NA
ATOM      7  C   UNL     1      45.055   6.461  11.164  0.00  0.00    +0.000 A 
ATOM      8  H   UNL     1      45.411   2.135  11.546  0.00  0.00    +0.000 HD
ENDROOT
BRANCH   1  10
ATOM      9  N   UNL     1      44.693   9.022  12.505  0.00  0.00    +0.000 N 
ATOM     10  C   UNL     1      45.668   8.140  12.873  0.00  0.00    +0.000 C 
ATOM     11  O   UNL     1      46.636   8.498  13.536  0.00  0.00    +0.000 OA
ATOM     12  H   UNL     1      44.778   9.972  12.846  0.00  0.00    +0.000 HD
ATOM     13  H   UNL     1      43.786   8.731  12.163  0.00  0.00    +0.000 HD
ENDBRANCH   1  10
BRANCH   5  14
ATOM     14  C   UNL     1      44.515   2.669   9.680  0.00  0.00    +0.000 C 
BRANCH  14  15
ATOM     15  C   UNL     1      45.749   2.625   8.752  0.00  0.00    +0.000 C 
ATOM     16  C   UNL     1      45.547   3.575   7.554  0.00  0.00    +0.000 C 
ATOM     17  C   UNL     1      46.715   3.517   6.573  0.00  0.00    +0.000 C 
ATOM     18  C   UNL     1      46.971   2.093   6.092  0.00  0.00    +0.000 C 
ATOM     19  C   UNL     1      47.177   1.140   7.263  0.00  0.00    +0.000 C 
ATOM     20  C   UNL     1      46.012   1.197   8.247  0.00  0.00    +0.000 C 
ENDBRANCH  14  15
ENDBRANCH   5  14
TORSDOF 3
ENDMDL
MODEL 4
REMARK VINA RESULT:    -6.185      1.983      2.477
REMARK INTER + INTRA:          -7.680
REMARK INTER:                  -7.330
REMARK INTRA:                  -0.349
REMARK UNBOUND:                -0.410
REMARK  Name = 
REMARK  3 active torsions:
REMARK  status: ('A' for Active; 'I' for Inactive)
REMARK    1  A    between atoms: C_2  and  C_4
REMARK    2  A    between atoms: N_8  and  C_9
REMARK    3  A    between atoms: C_9  and  C_10
REMARK                            x       y       z     vdW  Elec       q    Type
REMARK                         _______ _______ _______ _____ _____    ______ ____
ROOT
ATOM      1  C   UNL     1      47.925   6.707  12.826  0.00  0.00    +0.000 A 
ATOM      2  C   UNL     1      47.475   5.630  13.583  0.00  0.00    +0.000 A 
ATOM      3  C   UNL     1      46.379   4.888  13.145  0.00  0.00    +0.000 A 
ATOM      4  C   UNL     1      45.753   5.225  11.936  0.00  0.00    +0.000 A 
ATOM      5  N   UNL     1      44.620   4.526  11.549  0.00  0.00    +0.000 N 
ATOM      6  N   UNL     1      46.164   6.282  11.210  0.00  0.00    +0.000 NA
ATOM      7  C   UNL     1      47.222   7.003  11.657  0.00  0.00    +0.000 A 
ATOM      8  H   UNL     1      44.540   3.577  11.879  0.00  0.00    +0.000 HD
ENDROOT
BRANCH   1  10
ATOM      9  N   UNL     1      49.379   8.579  12.405  0.00  0.00    +0.000 N 
ATOM     10  C   UNL     1      49.073   7.522  13.214  0.00  0.00    +0.000 C 
ATOM     11  O   UNL     1      49.723   7.283  14.226  0.00  0.00    +0.000 OA
ATOM     12  H   UNL     1      50.132   9.185  12.706  0.00  0.00    +0.000 HD
ATOM     13  H   UNL     1      48.744   8.939  11.704  0.00  0.00    +0.000 HD
ENDBRANCH   1  10
BRANCH   5  14
ATOM     14  C   UNL     1      43.998   4.872  10.268  0.00  0.00    +0.000 C 
BRANCH  14  15
ATOM     15  C   UNL     1      44.402   3.880   9.155  0.00  0.00    +0.000 C 
ATOM     16  C   UNL     1      44.749   2.508   9.767  0.00  0.00    +0.000 C 
ATOM     17  C   UNL     1      45.218   1.510   8.710  0.00  0.00    +0.000 C 
ATOM     18  C   UNL     1      46.396   2.056   7.911  0.00  0.00    +0.000 C 
ATOM     19  C   UNL     1      46.069   3.412   7.295  0.00  0.00    +0.000 C 
ATOM     20  C   UNL     1      45.598   4.410   8.348  0.00  0.00    +0.000 C 
ENDBRANCH  14  15
ENDBRANCH   5  14
TORSDOF 3
ENDMDL
MODEL 5
REMARK VINA RESULT:    -6.102      3.126      7.323
REMARK INTER + INTRA:          -7.583
REMARK INTER:                  -7.278
REMARK INTRA:                  -0.304
REMARK UNBOUND:                -0.410
REMARK  Name = 
REMARK  3 active torsions:
REMARK  status: ('A' for Active; 'I' for Inactive)
REMARK    1  A    between atoms: C_2  and  C_4
REMARK    2  A    between atoms: N_8  and  C_9
REMARK    3  A    between atoms: C_9  and  C_10
REMARK                            x       y       z     vdW  Elec       q    Type
REMARK                         _______ _______ _______ _____ _____    ______ ____
ROOT
ATOM      1  C   UNL     1      45.614   5.088  11.795  0.00  0.00    +0.000 A 
ATOM      2  C   UNL     1      46.549   6.067  12.119  0.00  0.00    +0.000 A 
ATOM      3  C   UNL     1      47.177   6.037  13.363  0.00  0.00    +0.000 A 
ATOM      4  C   UNL     1      46.874   5.009  14.267  0.00  0.00    +0.000 A 
ATOM      5  N   UNL     1      47.451   5.032  15.528  0.00  0.00    +0.000 N 
ATOM      6  N   UNL     1      45.952   4.073  13.973  0.00  0.00    +0.000 NA
ATOM      7  C   UNL     1      45.337   4.124  12.765  0.00  0.00    +0.000 A 
ATOM      8  H   UNL     1      48.346   5.487  15.607  0.00  0.00    +0.000 HD
ENDROOT
BRANCH   1  10
ATOM      9  N   UNL     1      45.634   5.466   9.418  0.00  0.00    +0.000 N 
ATOM     10  C   UNL     1      44.925   5.049  10.508  0.00  0.00    +0.000 C 
ATOM     11  O   UNL     1      43.772   4.645  10.404  0.00  0.00    +0.000 OA
ATOM     12  H   UNL     1      45.184   5.378   8.515  0.00  0.00    +0.000 HD
ATOM     13  H   UNL     1      46.639   5.587   9.426  0.00  0.00    +0.000 HD
ENDBRANCH   1  10
BRANCH   5  14
ATOM     14  C   UNL     1      47.144   3.933  16.449  0.00  0.00    +0.000 C 
BRANCH  14  15
ATOM     15  C   UNL     1      48.386   3.520  17.270  0.00  0.00    +0.000 C 
ATOM     16  C   UNL     1      49.361   4.708  17.393  0.00  0.00    +0.000 C 
ATOM     17  C   UNL     1      50.636   4.329  18.144  0.00  0.00    +0.000 C 
ATOM     18  C   UNL     1      51.326   3.131  17.500  0.00  0.00    +0.000 C 
ATOM     19  C   UNL     1      50.378   1.944  17.374  0.00  0.00    +0.000 C 
ATOM     20  C   UNL     1      49.102   2.321  16.627  0.00  0.00    +0.000 C 
ENDBRANCH  14  15
ENDBRANCH   5  14
TORSDOF 3
ENDMDL
MODEL 6
REMARK VINA RESULT:    -5.986      3.041      7.764
REMARK INTER + INTRA:          -7.446
REMARK INTER:                  -7.242
REMARK INTRA:                  -0.204
REMARK UNBOUND:                -0.410
REMARK  Name = 
REMARK  3 active torsions:
REMARK  status: ('A' for Active; 'I' for Inactive)
REMARK    1  A    between atoms: C_2  and  C_4
REMARK    2  A    between atoms: N_8  and  C_9
REMARK    3  A    between atoms: C_9  and  C_10
REMARK                            x       y       z     vdW  Elec       q    Type
REMARK                         _______ _______ _______ _____ _____    ______ ____
ROOT
ATOM      1  C   UNL     1      45.028   4.210  11.285  0.00  0.00    +0.000 A 
ATOM      2  C   UNL     1      45.434   5.528  11.475  0.00  0.00    +0.000 A 
ATOM      3  C   UNL     1      46.119   5.878  12.638  0.00  0.00    +0.000 A 
ATOM      4  C   UNL     1      46.408   4.895  13.595  0.00  0.00    +0.000 A 
ATOM      5  N   UNL     1      47.024   5.271  14.779  0.00  0.00    +0.000 N 
ATOM      6  N   UNL     1      45.996   3.624  13.433  0.00  0.00    +0.000 NA
ATOM      7  C   UNL     1      45.317   3.300  12.304  0.00  0.00    +0.000 A 
ATOM      8  H   UNL     1      47.613   6.087  14.742  0.00  0.00    +0.000 HD
ENDROOT
BRANCH   1  10
ATOM      9  N   UNL     1      44.228   4.661   9.061  0.00  0.00    +0.000 N 
ATOM     10  C   UNL     1      44.318   3.767  10.089  0.00  0.00    +0.000 C 
ATOM     11  O   UNL     1      43.839   2.642  10.001  0.00  0.00    +0.000 OA
ATOM     12  H   UNL     1      43.795   4.336   8.205  0.00  0.00    +0.000 HD
ATOM     13  H   UNL     1      44.795   5.497   9.006  0.00  0.00    +0.000 HD
ENDBRANCH   1  10
BRANCH   5  14
ATOM     14  C   UNL     1      47.345   4.224  15.754  0.00  0.00    +0.000 C 
BRANCH  14  15
ATOM     15  C   UNL     1      48.108   4.796  16.969  0.00  0.00    +0.000 C 
ATOM     16  C   UNL     1      49.210   3.814  17.415  0.00  0.00    +0.000 C 
ATOM     17  C   UNL     1      49.951   4.309  18.656  0.00  0.00    +0.000 C 
ATOM     18  C   UNL     1      48.988   4.596  19.804  0.00  0.00    +0.000 C 
ATOM     19  C   UNL     1      47.894   5.569  19.381  0.00  0.00    +0.000 C 
ATOM     20  C   UNL     1      47.154   5.078  18.140  0.00  0.00    +0.000 C 
ENDBRANCH  14  15
ENDBRANCH   5  14
TORSDOF 3
ENDMDL
MODEL 7
REMARK VINA RESULT:    -5.595      3.598      5.742
REMARK INTER + INTRA:          -6.986
REMARK INTER:                  -6.737
REMARK INTRA:                  -0.250
REMARK UNBOUND:                -0.410
REMARK  Name = 
REMARK  3 active torsions:
REMARK  status: ('A' for Active; 'I' for Inactive)
REMARK    1  A    between atoms: C_2  and  C_4
REMARK    2  A    between atoms: N_8  and  C_9
REMARK    3  A    between atoms: C_9  and  C_10
REMARK                            x       y       z     vdW  Elec       q    Type
REMARK                         _______ _______ _______ _____ _____    ______ ____
ROOT
ATOM      1  C   UNL     1      48.906   4.475  18.228  0.00  0.00    +0.000 A 
ATOM      2  C   UNL     1      47.959   3.460  18.131  0.00  0.00    +0.000 A 
ATOM      3  C   UNL     1      47.202   3.331  16.968  0.00  0.00    +0.000 A 
ATOM      4  C   UNL     1      47.416   4.215  15.900  0.00  0.00    +0.000 A 
ATOM      5  N   UNL     1      46.606   4.121  14.779  0.00  0.00    +0.000 N 
ATOM      6  N   UNL     1      48.310   5.216  15.995  0.00  0.00    +0.000 NA
ATOM      7  C   UNL     1      49.029   5.339  17.138  0.00  0.00    +0.000 A 
ATOM      8  H   UNL     1      46.219   3.214  14.575  0.00  0.00    +0.000 HD
ENDROOT
BRANCH   1  10
ATOM      9  N   UNL     1      49.233   4.235  20.600  0.00  0.00    +0.000 N 
ATOM     10  C   UNL     1      49.744   4.665  19.409  0.00  0.00    +0.000 C 
ATOM     11  O   UNL     1      50.859   5.170  19.337  0.00  0.00    +0.000 OA
ATOM     12  H   UNL     1      49.836   4.304  21.411  0.00  0.00    +0.000 HD
ATOM     13  H   UNL     1      48.433   3.620  20.667  0.00  0.00    +0.000 HD
ENDBRANCH   1  10
BRANCH   5  14
ATOM     14  C   UNL     1      46.864   5.035  13.661  0.00  0.00    +0.000 C 
BRANCH  14  15
ATOM     15  C   UNL     1      45.798   4.890  12.554  0.00  0.00    +0.000 C 
ATOM     16  C   UNL     1      44.559   5.744  12.893  0.00  0.00    +0.000 C 
ATOM     17  C   UNL     1      43.449   5.582  11.857  0.00  0.00    +0.000 C 
ATOM     18  C   UNL     1      43.061   4.118  11.678  0.00  0.00    +0.000 C 
ATOM     19  C   UNL     1      44.273   3.260  11.337  0.00  0.00    +0.000 C 
ATOM     20  C   UNL     1      45.385   3.421  12.370  0.00  0.00    +0.000 C 
ENDBRANCH  14  15
ENDBRANCH   5  14
TORSDOF 3
ENDMDL
MODEL 8
REMARK VINA RESULT:    -4.948      7.665     10.054
REMARK INTER + INTRA:          -6.226
REMARK INTER:                  -5.912
REMARK INTRA:                  -0.314
REMARK UNBOUND:                -0.410
REMARK  Name = 
REMARK  3 active torsions:
REMARK  status: ('A' for Active; 'I' for Inactive)
REMARK    1  A    between atoms: C_2  and  C_4
REMARK    2  A    between atoms: N_8  and  C_9
REMARK    3  A    between atoms: C_9  and  C_10
REMARK                            x       y       z     vdW  Elec       q    Type
REMARK                         _______ _______ _______ _____ _____    ______ ____
ROOT
ATOM      1  C   UNL     1      49.363   3.096  17.456  0.00  0.00    +0.000 A 
ATOM      2  C   UNL     1      48.031   3.110  17.054  0.00  0.00    +0.000 A 
ATOM      3  C   UNL     1      47.186   4.125  17.502  0.00  0.00    +0.000 A 
ATOM      4  C   UNL     1      47.693   5.130  18.339  0.00  0.00    +0.000 A 
ATOM      5  N   UNL     1      46.825   6.090  18.836  0.00  0.00    +0.000 N 
ATOM      6  N   UNL     1      48.973   5.109  18.754  0.00  0.00    +0.000 NA
ATOM      7  C   UNL     1      49.780   4.108  18.322  0.00  0.00    +0.000 A 
ATOM      8  H   UNL     1      46.015   6.301  18.275  0.00  0.00    +0.000 HD
ENDROOT
BRANCH   1  10
ATOM      9  N   UNL     1      51.311   1.749  17.888  0.00  0.00    +0.000 N 
ATOM     10  C   UNL     1      50.309   2.074  17.018  0.00  0.00    +0.000 C 
ATOM     11  O   UNL     1      50.205   1.519  15.930  0.00  0.00    +0.000 OA
ATOM     12  H   UNL     1      51.930   0.995  17.617  0.00  0.00    +0.000 HD
ATOM     13  H   UNL     1      51.299   2.013  18.865  0.00  0.00    +0.000 HD
ENDBRANCH   1  10
BRANCH   5  14
ATOM     14  C   UNL     1      47.380   7.150  19.684  0.00  0.00    +0.000 C 
BRANCH  14  15
ATOM     15  C   UNL     1      47.098   8.551  19.096  0.00  0.00    +0.000 C 
ATOM     16  C   UNL     1      48.204   8.939  18.094  0.00  0.00    +0.000 C 
ATOM     17  C   UNL     1      48.003  10.346  17.534  0.00  0.00    +0.000 C 
ATOM     18  C   UNL     1      47.899  11.381  18.649  0.00  0.00    +0.000 C 
ATOM     19  C   UNL     1      46.806  11.015  19.647  0.00  0.00    +0.000 C 
ATOM     20  C   UNL     1      47.004   9.609  20.207  0.00  0.00    +0.000 C 
ENDBRANCH  14  15
ENDBRANCH   5  14
TORSDOF 3
ENDMDL
MODEL 9
REMARK VINA RESULT:    -4.800      3.895      7.804
REMARK INTER + INTRA:          -6.052
REMARK INTER:                  -5.656
REMARK INTRA:                  -0.395
REMARK UNBOUND:                -0.410
REMARK  Name = 
REMARK  3 active torsions:
REMARK  status: ('A' for Active; 'I' for Inactive)
REMARK    1  A    between atoms: C_2  and  C_4
REMARK    2  A    between atoms: N_8  and  C_9
REMARK    3  A    between atoms: C_9  and  C_10
REMARK                            x       y       z     vdW  Elec       q    Type
REMARK                         _______ _______ _______ _____ _____    ______ ____
ROOT
ATOM      1  C   UNL     1      45.527   4.856  12.944  0.00  0.00    +0.000 A 
ATOM      2  C   UNL     1      45.557   6.100  12.321  0.00  0.00    +0.000 A 
ATOM      3  C   UNL     1      46.572   7.004  12.633  0.00  0.00    +0.000 A 
ATOM      4  C   UNL     1      47.563   6.641  13.558  0.00  0.00    +0.000 A 
ATOM      5  N   UNL     1      48.523   7.576  13.913  0.00  0.00    +0.000 N 
ATOM      6  N   UNL     1      47.526   5.451  14.185  0.00  0.00    +0.000 NA
ATOM      7  C   UNL     1      46.525   4.588  13.883  0.00  0.00    +0.000 A 
ATOM      8  H   UNL     1      48.748   8.277  13.226  0.00  0.00    +0.000 HD
ENDROOT
BRANCH   1  10
ATOM      9  N   UNL     1      44.940   2.590  12.382  0.00  0.00    +0.000 N 
ATOM     10  C   UNL     1      44.503   3.854  12.660  0.00  0.00    +0.000 C 
ATOM     11  O   UNL     1      43.308   4.126  12.685  0.00  0.00    +0.000 OA
ATOM     12  H   UNL     1      44.232   1.878  12.249  0.00  0.00    +0.000 HD
ATOM     13  H   UNL     1      45.884   2.279  12.571  0.00  0.00    +0.000 HD
ENDBRANCH   1  10
BRANCH   5  14
ATOM     14  C   UNL     1      49.567   7.168  14.858  0.00  0.00    +0.000 C 
BRANCH  14  15
ATOM     15  C   UNL     1      49.383   7.848  16.233  0.00  0.00    +0.000 C 
ATOM     16  C   UNL     1      48.888   6.820  17.271  0.00  0.00    +0.000 C 
ATOM     17  C   UNL     1      48.629   7.461  18.634  0.00  0.00    +0.000 C 
ATOM     18  C   UNL     1      47.654   8.628  18.525  0.00  0.00    +0.000 C 
ATOM     19  C   UNL     1      48.130   9.657  17.506  0.00  0.00    +0.000 C 
ATOM     20  C   UNL     1      48.392   9.019  16.144  0.00  0.00    +0.000 C 
ENDBRANCH  14  15
ENDBRANCH   5  14
TORSDOF 3
ENDMDL
