MODEL 1
REMARK VINA RESULT:    -8.962      0.000      0.000
REMARK INTER + INTRA:         -13.012
REMARK INTER:                 -12.105
REMARK INTRA:                  -0.906
REMARK UNBOUND:                -0.906
REMARK  Name = 
REMARK  6 active torsions:
REMARK  status: ('A' for Active; 'I' for Inactive)
REMARK    1  A    between atoms: C_2  and  C_3
REMARK    2  A    between atoms: C_7  and  C_8
REMARK    3  A    between atoms: C_12  and  C_13
REMARK    4  A    between atoms: C_13  and  N_14
REMARK    5  A    between atoms: N_14  and  C_15
REMARK    6  A    between atoms: C_18  and  C_19
REMARK                            x       y       z     vdW  Elec       q    Type
REMARK                         _______ _______ _______ _____ _____    ______ ____
ROOT
ATOM      1  C   UNL     1      43.873   5.006  11.386  0.00  0.00    +0.000 C 
ATOM      2  C   UNL     1      42.618   5.468  12.111  0.00  0.00    +0.000 C 
ATOM      3  C   UNL     1      43.061   4.048  12.238  0.00  0.00    +0.000 C 
ENDROOT
BRANCH   1   8
ATOM      4  C   UNL     1      46.949   5.555  13.657  0.00  0.00    +0.000 A 
ATOM      5  C   UNL     1      47.647   6.527  12.926  0.00  0.00    +0.000 A 
ATOM      6  C   UNL     1      47.139   7.020  11.721  0.00  0.00    +0.000 A 
ATOM      7  C   UNL     1      45.930   6.537  11.217  0.00  0.00    +0.000 A 
ATOM      8  C   UNL     1      45.191   5.566  11.912  0.00  0.00    +0.000 A 
ATOM      9  C   UNL     1      45.722   5.111  13.130  0.00  0.00    +0.000 A 
BRANCH   4  14
ATOM     10  C   UNL     1      48.806   5.180  16.949  0.00  0.00    +0.000 A 
ATOM     11  C   UNL     1      48.434   3.888  17.269  0.00  0.00    +0.000 A 
ATOM     12  N   UNL     1      47.616   3.135  16.499  0.00  0.00    +0.000 NA
ATOM     13  C   UNL     1      47.157   3.701  15.354  0.00  0.00    +0.000 A 
ATOM     14  C   UNL     1      47.457   4.997  14.926  0.00  0.00    +0.000 A 
ATOM     15  C   UNL     1      48.300   5.738  15.774  0.00  0.00    +0.000 A 
BRANCH  10  17
ATOM     16  N   UNL     1      50.411   6.494  18.496  0.00  0.00    +0.000 NA
ATOM     17  C   UNL     1      49.692   5.912  17.794  0.00  0.00    +0.000 C 
ENDBRANCH  10  17
ENDBRANCH   4  14
ENDBRANCH   1   8
BRANCH   1  18
ATOM     18  N   UNL     1      43.814   4.881   9.914  0.00  0.00    +0.000 N 
ATOM     19  H   UNL     1      43.652   5.757   9.422  0.00  0.00    +0.000 HD
BRANCH  18  20
ATOM     20  C   UNL     1      44.614   3.992   9.162  0.00  0.00    +0.000 A 
ATOM     21  C   UNL     1      45.583   4.390   8.237  0.00  0.00    +0.000 A 
ATOM     22  C   UNL     1      46.396   3.446   7.602  0.00  0.00    +0.000 A 
ATOM     23  C   UNL     1      46.237   2.110   7.939  0.00  0.00    +0.000 A 
ATOM     24  N   UNL     1      45.332   1.667   8.853  0.00  0.00    +0.000 NA
ATOM     25  C   UNL     1      44.566   2.620   9.437  0.00  0.00    +0.000 A 
BRANCH  23  26
ATOM     26  C   UNL     1      47.103   1.064   7.303  0.00  0.00    +0.000 C 
ATOM     27  N   UNL     1      46.828  -0.224   7.684  0.00  0.00    +0.000 N 
ATOM     28  O   UNL     1      47.993   1.329   6.507  0.00  0.00    +0.000 OA
ATOM     29  H   UNL     1      46.089  -0.393   8.356  0.00  0.00    +0.000 HD
ATOM     30  H   UNL     1      47.370  -0.987   7.308  0.00  0.00    +0.000 HD
ENDBRANCH  23  26
ENDBRANCH  18  20
ENDBRANCH   1  18
TORSDOF 6
ENDMDL
MODEL 2
REMARK VINA RESULT:    -8.740      2.649      3.964
REMARK INTER + INTRA:         -12.712
REMARK INTER:                 -11.804
REMARK INTRA:                  -0.908
REMARK UNBOUND:                -0.906
REMARK  Name = 
REMARK  6 active torsions:
REMARK  status: ('A' for Active; 'I' for Inactive)
REMARK    1  A    between atoms: C_2  and  C_3
REMARK    2  A    between atoms: C_7  and  C_8
REMARK    3  A    between atoms: C_12  and  C_13
REMARK    4  A    between atoms: C_13  and  N_14
REMARK    5  A    between atoms: N_14  and  C_15
REMARK    6  A    between atoms: C_18  and  C_19
REMARK                            x       y       z     vdW  Elec       q    Type
REMARK                         _______ _______ _______ _____ _____    ______ ____
ROOT
ATOM      1  C   UNL     1      43.905   4.956  11.302  0.00  0.00    +0.000 C 
ATOM      2  C   UNL     1      42.620   5.521  11.889  0.00  0.00    +0.000 C 
ATOM      3  C   UNL     1      42.835   4.044  11.874  0.00  0.00    +0.000 C 
ENDROOT
BRANCH   1   8
ATOM      4  C   UNL     1      47.162   6.662  12.487  0.00  0.00    +0.000 A 
ATOM      5  C   UNL     1      47.524   5.826  13.553  0.00  0.00    +0.000 A 
ATOM      6  C   UNL     1      46.748   4.715  13.889  0.00  0.00    +0.000 A 
ATOM      7  C   UNL     1      45.583   4.428  13.175  0.00  0.00    +0.000 A 
ATOM      8  C   UNL     1      45.177   5.231  12.097  0.00  0.00    +0.000 A 
ATOM      9  C   UNL     1      45.996   6.326  11.774  0.00  0.00    +0.000 A 
BRANCH   4  14
ATOM     10  C   UNL     1      50.028   8.898  11.388  0.00  0.00    +0.000 A 
ATOM     11  C   UNL     1      49.394  10.125  11.462  0.00  0.00    +0.000 A 
ATOM     12  N   UNL     1      48.103  10.277  11.831  0.00  0.00    +0.000 NA
ATOM     13  C   UNL     1      47.418   9.148  12.148  0.00  0.00    +0.000 A 
ATOM     14  C   UNL     1      47.945   7.855  12.108  0.00  0.00    +0.000 A 
ATOM     15  C   UNL     1      49.289   7.757  11.702  0.00  0.00    +0.000 A 
BRANCH  10  17
ATOM     16  N   UNL     1      52.523   8.725  10.723  0.00  0.00    +0.000 NA
ATOM     17  C   UNL     1      51.402   8.810  11.013  0.00  0.00    +0.000 C 
ENDBRANCH  10  17
ENDBRANCH   4  14
ENDBRANCH   1   8
BRANCH   1  18
ATOM     18  N   UNL     1      44.082   5.020   9.836  0.00  0.00    +0.000 N 
ATOM     19  H   UNL     1      44.168   5.962   9.462  0.00  0.00    +0.000 HD
BRANCH  18  20
ATOM     20  C   UNL     1      44.828   4.082   9.086  0.00  0.00    +0.000 A 
ATOM     21  C   UNL     1      45.765   4.421   8.106  0.00  0.00    +0.000 A 
ATOM     22  C   UNL     1      46.528   3.433   7.475  0.00  0.00    +0.000 A 
ATOM     23  C   UNL     1      46.353   2.115   7.872  0.00  0.00    +0.000 A 
ATOM     24  N   UNL     1      45.478   1.730   8.840  0.00  0.00    +0.000 NA
ATOM     25  C   UNL     1      44.760   2.724   9.418  0.00  0.00    +0.000 A 
BRANCH  23  26
ATOM     26  C   UNL     1      47.165   1.024   7.242  0.00  0.00    +0.000 C 
ATOM     27  N   UNL     1      46.846  -0.245   7.650  0.00  0.00    +0.000 N 
ATOM     28  O   UNL     1      48.052   1.239   6.428  0.00  0.00    +0.000 OA
ATOM     29  H   UNL     1      46.111  -0.372   8.337  0.00  0.00    +0.000 HD
ATOM     30  H   UNL     1      47.351  -1.035   7.280  0.00  0.00    +0.000 HD
ENDBRANCH  23  26
ENDBRANCH  18  20
ENDBRANCH   1  18
TORSDOF 6
ENDMDL
MODEL 3
REMARK VINA RESULT:    -7.456      2.823      7.935
REMARK INTER + INTRA:         -10.978
REMARK INTER:                 -10.409
REMARK INTRA:                  -0.569
REMARK UNBOUND:                -0.906
REMARK  Name = 
REMARK  6 active torsions:
REMARK  status: ('A' for Active; 'I' for Inactive)
REMARK    1  A    between atoms: C_2  and  C_3
REMARK    2  A    between atoms: C_7  and  C_8
REMARK    3  A    between atoms: C_12  and  C_13
REMARK    4  A    between atoms: C_13  and  N_14
REMARK    5  A    between atoms: N_14  and  C_15
REMARK    6  A    between atoms: C_18  and  C_19
REMARK                            x       y       z     vdW  Elec       q    Type
REMARK                         _______ _______ _______ _____ _____    ______ ____
ROOT
ATOM      1  C   UNL     1      48.611   7.940  12.691  0.00  0.00    +0.000 C 
ATOM      2  C   UNL     1      49.487   8.848  11.841  0.00  0.00    +0.000 C 
ATOM      3  C   UNL     1      49.759   7.380  11.872  0.00  0.00    +0.000 C 
ENDROOT
BRANCH   1   8
ATOM      4  C   UNL     1      45.486   6.368  11.050  0.00  0.00    +0.000 A 
ATOM      5  C   UNL     1      44.522   7.347  11.329  0.00  0.00    +0.000 A 
ATOM      6  C   UNL     1      44.861   8.511  12.023  0.00  0.00    +0.000 A 
ATOM      7  C   UNL     1      46.169   8.710  12.467  0.00  0.00    +0.000 A 
ATOM      8  C   UNL     1      47.174   7.762  12.211  0.00  0.00    +0.000 A 
ATOM      9  C   UNL     1      46.800   6.616  11.490  0.00  0.00    +0.000 A 
BRANCH   4  14
ATOM     10  C   UNL     1      45.411   3.643   8.405  0.00  0.00    +0.000 A 
ATOM     11  C   UNL     1      44.497   2.788   8.993  0.00  0.00    +0.000 A 
ATOM     12  N   UNL     1      43.914   3.027  10.189  0.00  0.00    +0.000 NA
ATOM     13  C   UNL     1      44.257   4.178  10.820  0.00  0.00    +0.000 A 
ATOM     14  C   UNL     1      45.168   5.118  10.332  0.00  0.00    +0.000 A 
ATOM     15  C   UNL     1      45.755   4.809   9.091  0.00  0.00    +0.000 A 
BRANCH  10  17
ATOM     16  N   UNL     1      46.411   3.102   6.081  0.00  0.00    +0.000 NA
ATOM     17  C   UNL     1      45.972   3.343   7.128  0.00  0.00    +0.000 C 
ENDBRANCH  10  17
ENDBRANCH   4  14
ENDBRANCH   1   8
BRANCH   1  18
ATOM     18  N   UNL     1      48.752   8.020  14.160  0.00  0.00    +0.000 N 
ATOM     19  H   UNL     1      48.401   8.882  14.572  0.00  0.00    +0.000 HD
BRANCH  18  20
ATOM     20  C   UNL     1      48.602   6.918  15.032  0.00  0.00    +0.000 A 
ATOM     21  C   UNL     1      48.997   6.912  16.372  0.00  0.00    +0.000 A 
ATOM     22  C   UNL     1      48.727   5.811  17.192  0.00  0.00    +0.000 A 
ATOM     23  C   UNL     1      48.030   4.742  16.648  0.00  0.00    +0.000 A 
ATOM     24  N   UNL     1      47.595   4.705  15.359  0.00  0.00    +0.000 NA
ATOM     25  C   UNL     1      47.884   5.794  14.605  0.00  0.00    +0.000 A 
BRANCH  23  26
ATOM     26  C   UNL     1      47.696   3.551  17.494  0.00  0.00    +0.000 C 
ATOM     27  N   UNL     1      48.664   3.190  18.393  0.00  0.00    +0.000 N 
ATOM     28  O   UNL     1      46.643   2.937  17.393  0.00  0.00    +0.000 OA
ATOM     29  H   UNL     1      49.527   3.723  18.431  0.00  0.00    +0.000 HD
ATOM     30  H   UNL     1      48.521   2.394  18.996  0.00  0.00    +0.000 HD
ENDBRANCH  23  26
ENDBRANCH  18  20
ENDBRANCH   1  18
TORSDOF 6
ENDMDL
MODEL 4
REMARK VINA RESULT:    -6.445      2.975      8.105
REMARK INTER + INTRA:          -9.611
REMARK INTER:                  -8.673
REMARK INTRA:                  -0.939
REMARK UNBOUND:                -0.906
REMARK  Name = 
REMARK  6 active torsions:
REMARK  status: ('A' for Active; 'I' for Inactive)
REMARK    1  A    between atoms: C_2  and  C_3
REMARK    2  A    between atoms: C_7  and  C_8
REMARK    3  A    between atoms: C_12  and  C_13
REMARK    4  A    between atoms: C_13  and  N_14
REMARK    5  A    between atoms: N_14  and  C_15
REMARK    6  A    between atoms: C_18  and  C_19
REMARK                            x       y       z     vdW  Elec       q    Type
REMARK                         _______ _______ _______ _____ _____    ______ ____
ROOT
ATOM      1  C   UNL     1      48.661   7.966  15.647  0.00  0.00    +0.000 C 
ATOM      2  C   UNL     1      48.225   9.358  16.081  0.00  0.00    +0.000 C 
ATOM      3  C   UNL     1      49.671   8.990  16.133  0.00  0.00    +0.000 C 
ENDROOT
BRANCH   1   8
ATOM      4  C   UNL     1      47.159   6.835  12.273  0.00  0.00    +0.000 A 
ATOM      5  C   UNL     1      48.222   7.118  11.403  0.00  0.00    +0.000 A 
ATOM      6  C   UNL     1      49.420   7.653  11.884  0.00  0.00    +0.000 A 
ATOM      7  C   UNL     1      49.570   7.931  13.244  0.00  0.00    +0.000 A 
ATOM      8  C   UNL     1      48.537   7.664  14.158  0.00  0.00    +0.000 A 
ATOM      9  C   UNL     1      47.358   7.105  13.640  0.00  0.00    +0.000 A 
BRANCH   4  14
ATOM     10  C   UNL     1      44.573   4.530  10.716  0.00  0.00    +0.000 A 
ATOM     11  C   UNL     1      43.446   5.312  10.888  0.00  0.00    +0.000 A 
ATOM     12  N   UNL     1      43.464   6.526  11.482  0.00  0.00    +0.000 NA
ATOM     13  C   UNL     1      44.667   6.980  11.916  0.00  0.00    +0.000 A 
ATOM     14  C   UNL     1      45.873   6.283  11.805  0.00  0.00    +0.000 A 
ATOM     15  C   UNL     1      45.791   5.019  11.192  0.00  0.00    +0.000 A 
BRANCH  10  17
ATOM     16  N   UNL     1      44.402   2.242   9.519  0.00  0.00    +0.000 NA
ATOM     17  C   UNL     1      44.489   3.266  10.059  0.00  0.00    +0.000 C 
ENDBRANCH  10  17
ENDBRANCH   4  14
ENDBRANCH   1   8
BRANCH   1  18
ATOM     18  N   UNL     1      48.316   6.829  16.526  0.00  0.00    +0.000 N 
ATOM     19  H   UNL     1      47.331   6.572  16.518  0.00  0.00    +0.000 HD
BRANCH  18  20
ATOM     20  C   UNL     1      49.153   5.710  16.739  0.00  0.00    +0.000 A 
ATOM     21  C   UNL     1      50.489   5.788  17.138  0.00  0.00    +0.000 A 
ATOM     22  C   UNL     1      51.221   4.628  17.417  0.00  0.00    +0.000 A 
ATOM     23  C   UNL     1      50.574   3.405  17.318  0.00  0.00    +0.000 A 
ATOM     24  N   UNL     1      49.268   3.270  16.963  0.00  0.00    +0.000 NA
ATOM     25  C   UNL     1      48.604   4.422  16.700  0.00  0.00    +0.000 A 
BRANCH  23  26
ATOM     26  C   UNL     1      51.309   2.137  17.631  0.00  0.00    +0.000 C 
ATOM     27  N   UNL     1      52.346   2.272  18.517  0.00  0.00    +0.000 N 
ATOM     28  O   UNL     1      51.017   1.057  17.135  0.00  0.00    +0.000 OA
ATOM     29  H   UNL     1      52.559   3.190  18.893  0.00  0.00    +0.000 HD
ATOM     30  H   UNL     1      52.897   1.467  18.775  0.00  0.00    +0.000 HD
ENDBRANCH  23  26
ENDBRANCH  18  20
ENDBRANCH   1  18
TORSDOF 6
ENDMDL
MODEL 5
REMARK VINA RESULT:    -6.364      3.251      7.900
REMARK INTER + INTRA:          -9.502
REMARK INTER:                  -8.482
REMARK INTRA:                  -1.020
REMARK UNBOUND:                -0.906
REMARK  Name = 
REMARK  6 active torsions:
REMARK  status: ('A' for Active; 'I' for Inactive)
REMARK    1  A    between atoms: C_2  and  C_3
REMARK    2  A    between atoms: C_7  and  C_8
REMARK    3  A    between atoms: C_12  and  C_13
REMARK    4  A    between atoms: C_13  and  N_14
REMARK    5  A    between atoms: N_14  and  C_15
REMARK    6  A    between atoms: C_18  and  C_19
REMARK                            x       y       z     vdW  Elec       q    Type
REMARK                         _______ _______ _______ _____ _____    ______ ____
ROOT
ATOM      1  C   UNL     1      49.080   8.298  12.657  0.00  0.00    +0.000 C 
ATOM      2  C   UNL     1      49.952   8.971  11.608  0.00  0.00    +0.000 C 
ATOM      3  C   UNL     1      50.055   7.497  11.815  0.00  0.00    +0.000 C 
ENDROOT
BRANCH   1   8
ATOM      4  C   UNL     1      45.540   6.897  12.003  0.00  0.00    +0.000 A 
ATOM      5  C   UNL     1      44.815   8.084  11.825  0.00  0.00    +0.000 A 
ATOM      6  C   UNL     1      45.447   9.328  11.897  0.00  0.00    +0.000 A 
ATOM      7  C   UNL     1      46.815   9.408  12.166  0.00  0.00    +0.000 A 
ATOM      8  C   UNL     1      47.587   8.249  12.350  0.00  0.00    +0.000 A 
ATOM      9  C   UNL     1      46.921   7.017  12.247  0.00  0.00    +0.000 A 
BRANCH   4  14
ATOM     10  C   UNL     1      44.540   3.421  10.844  0.00  0.00    +0.000 A 
ATOM     11  C   UNL     1      43.658   3.094  11.857  0.00  0.00    +0.000 A 
ATOM     12  N   UNL     1      43.374   3.914  12.893  0.00  0.00    +0.000 NA
ATOM     13  C   UNL     1      43.997   5.120  12.910  0.00  0.00    +0.000 A 
ATOM     14  C   UNL     1      44.909   5.563  11.949  0.00  0.00    +0.000 A 
ATOM     15  C   UNL     1      45.177   4.661  10.903  0.00  0.00    +0.000 A 
BRANCH  10  17
ATOM     16  N   UNL     1      44.986   1.793   8.883  0.00  0.00    +0.000 NA
ATOM     17  C   UNL     1      44.777   2.517   9.765  0.00  0.00    +0.000 C 
ENDBRANCH  10  17
ENDBRANCH   4  14
ENDBRANCH   1   8
BRANCH   1  18
ATOM     18  N   UNL     1      49.396   8.543  14.080  0.00  0.00    +0.000 N 
ATOM     19  H   UNL     1      48.988   9.393  14.463  0.00  0.00    +0.000 HD
BRANCH  18  20
ATOM     20  C   UNL     1      49.510   7.526  15.054  0.00  0.00    +0.000 A 
ATOM     21  C   UNL     1      48.445   6.742  15.506  0.00  0.00    +0.000 A 
ATOM     22  C   UNL     1      48.661   5.692  16.405  0.00  0.00    +0.000 A 
ATOM     23  C   UNL     1      49.962   5.431  16.808  0.00  0.00    +0.000 A 
ATOM     24  N   UNL     1      51.040   6.140  16.379  0.00  0.00    +0.000 NA
ATOM     25  C   UNL     1      50.779   7.149  15.512  0.00  0.00    +0.000 A 
BRANCH  23  26
ATOM     26  C   UNL     1      50.246   4.301  17.751  0.00  0.00    +0.000 C 
ATOM     27  N   UNL     1      49.554   3.146  17.495  0.00  0.00    +0.000 N 
ATOM     28  O   UNL     1      51.031   4.393  18.685  0.00  0.00    +0.000 OA
ATOM     29  H   UNL     1      48.905   3.121  16.717  0.00  0.00    +0.000 HD
ATOM     30  H   UNL     1      49.683   2.340  18.088  0.00  0.00    +0.000 HD
ENDBRANCH  23  26
ENDBRANCH  18  20
ENDBRANCH   1  18
TORSDOF 6
ENDMDL
MODEL 6
REMARK VINA RESULT:    -6.220      3.899      5.632
REMARK INTER + INTRA:          -9.307
REMARK INTER:                  -8.319
REMARK INTRA:                  -0.988
REMARK UNBOUND:                -0.906
REMARK  Name = 
REMARK  6 active torsions:
REMARK  status: ('A' for Active; 'I' for Inactive)
REMARK    1  A    between atoms: C_2  and  C_3
REMARK    2  A    between atoms: C_7  and  C_8
REMARK    3  A    between atoms: C_12  and  C_13
REMARK    4  A    between atoms: C_13  and  N_14
REMARK    5  A    between atoms: N_14  and  C_15
REMARK    6  A    between atoms: C_18  and  C_19
REMARK                            x       y       z     vdW  Elec       q    Type
REMARK                         _______ _______ _______ _____ _____    ______ ____
ROOT
ATOM      1  C   UNL     1      49.067   8.091  12.939  0.00  0.00    +0.000 C 
ATOM      2  C   UNL     1      50.369   8.664  12.398  0.00  0.00    +0.000 C 
ATOM      3  C   UNL     1      49.071   9.289  12.007  0.00  0.00    +0.000 C 
ENDROOT
BRANCH   1   8
ATOM      4  C   UNL     1      48.720   7.309  16.706  0.00  0.00    +0.000 A 
ATOM      5  C   UNL     1      48.426   8.582  17.214  0.00  0.00    +0.000 A 
ATOM      6  C   UNL     1      48.323   9.687  16.365  0.00  0.00    +0.000 A 
ATOM      7  C   UNL     1      48.529   9.541  14.992  0.00  0.00    +0.000 A 
ATOM      8  C   UNL     1      48.823   8.286  14.432  0.00  0.00    +0.000 A 
ATOM      9  C   UNL     1      48.896   7.196  15.315  0.00  0.00    +0.000 A 
BRANCH   4  14
ATOM     10  C   UNL     1      49.471   3.784  17.903  0.00  0.00    +0.000 A 
ATOM     11  C   UNL     1      49.028   3.892  19.208  0.00  0.00    +0.000 A 
ATOM     12  N   UNL     1      48.514   5.029  19.729  0.00  0.00    +0.000 NA
ATOM     13  C   UNL     1      48.435   6.103  18.903  0.00  0.00    +0.000 A 
ATOM     14  C   UNL     1      48.853   6.119  17.569  0.00  0.00    +0.000 A 
ATOM     15  C   UNL     1      49.393   4.913  17.086  0.00  0.00    +0.000 A 
BRANCH  10  17
ATOM     16  N   UNL     1      50.381   1.530  17.015  0.00  0.00    +0.000 NA
ATOM     17  C   UNL     1      49.982   2.546  17.408  0.00  0.00    +0.000 C 
ENDBRANCH  10  17
ENDBRANCH   4  14
ENDBRANCH   1   8
BRANCH   1  18
ATOM     18  N   UNL     1      48.619   6.782  12.420  0.00  0.00    +0.000 N 
ATOM     19  H   UNL     1      49.276   6.019  12.572  0.00  0.00    +0.000 HD
BRANCH  18  20
ATOM     20  C   UNL     1      47.278   6.337  12.443  0.00  0.00    +0.000 A 
ATOM     21  C   UNL     1      46.801   5.308  13.259  0.00  0.00    +0.000 A 
ATOM     22  C   UNL     1      45.439   4.992  13.287  0.00  0.00    +0.000 A 
ATOM     23  C   UNL     1      44.573   5.747  12.510  0.00  0.00    +0.000 A 
ATOM     24  N   UNL     1      44.976   6.778  11.720  0.00  0.00    +0.000 NA
ATOM     25  C   UNL     1      46.305   7.043  11.724  0.00  0.00    +0.000 A 
BRANCH  23  26
ATOM     26  C   UNL     1      43.101   5.461  12.527  0.00  0.00    +0.000 C 
ATOM     27  N   UNL     1      42.356   6.214  11.658  0.00  0.00    +0.000 N 
ATOM     28  O   UNL     1      42.593   4.625  13.261  0.00  0.00    +0.000 OA
ATOM     29  H   UNL     1      42.821   6.905  11.078  0.00  0.00    +0.000 HD
ATOM     30  H   UNL     1      41.356   6.089  11.612  0.00  0.00    +0.000 HD
ENDBRANCH  23  26
ENDBRANCH  18  20
ENDBRANCH   1  18
TORSDOF 6
ENDMDL
MODEL 7
REMARK VINA RESULT:    -6.212      4.543      6.754
REMARK INTER + INTRA:          -9.297
REMARK INTER:                  -8.294
REMARK INTRA:                  -1.003
REMARK UNBOUND:                -0.906
REMARK  Name = 
REMARK  6 active torsions:
REMARK  status: ('A' for Active; 'I' for Inactive)
REMARK    1  A    between atoms: C_2  and  C_3
REMARK    2  A    between atoms: C_7  and  C_8
REMARK    3  A    between atoms: C_12  and  C_13
REMARK    4  A    between atoms: C_13  and  N_14
REMARK    5  A    between atoms: N_14  and  C_15
REMARK    6  A    between atoms: C_18  and  C_19
REMARK                            x       y       z     vdW  Elec       q    Type
REMARK                         _______ _______ _______ _____ _____    ______ ____
ROOT
ATOM      1  C   UNL     1      48.020   7.973  13.846  0.00  0.00    +0.000 C 
ATOM      2  C   UNL     1      48.449   8.154  15.295  0.00  0.00    +0.000 C 
ATOM      3  C   UNL     1      48.631   6.828  14.633  0.00  0.00    +0.000 C 
ENDROOT
BRANCH   1   8
ATOM      4  C   UNL     1      50.813   8.745  11.292  0.00  0.00    +0.000 A 
ATOM      5  C   UNL     1      50.422  10.017  10.850  0.00  0.00    +0.000 A 
ATOM      6  C   UNL     1      49.284  10.638  11.369  0.00  0.00    +0.000 A 
ATOM      7  C   UNL     1      48.504   9.990  12.329  0.00  0.00    +0.000 A 
ATOM      8  C   UNL     1      48.854   8.716  12.807  0.00  0.00    +0.000 A 
ATOM      9  C   UNL     1      50.017   8.134  12.279  0.00  0.00    +0.000 A 
BRANCH   4  14
ATOM     10  C   UNL     1      53.091   6.696   9.047  0.00  0.00    +0.000 A 
ATOM     11  C   UNL     1      54.233   6.699   9.826  0.00  0.00    +0.000 A 
ATOM     12  N   UNL     1      54.320   7.328  11.020  0.00  0.00    +0.000 NA
ATOM     13  C   UNL     1      53.209   7.975  11.456  0.00  0.00    +0.000 A 
ATOM     14  C   UNL     1      52.000   8.047  10.759  0.00  0.00    +0.000 A 
ATOM     15  C   UNL     1      51.973   7.388   9.516  0.00  0.00    +0.000 A 
BRANCH  10  17
ATOM     16  N   UNL     1      53.048   5.409   6.803  0.00  0.00    +0.000 NA
ATOM     17  C   UNL     1      53.058   5.992   7.806  0.00  0.00    +0.000 C 
ENDBRANCH  10  17
ENDBRANCH   4  14
ENDBRANCH   1   8
BRANCH   1  18
ATOM     18  N   UNL     1      46.572   7.947  13.552  0.00  0.00    +0.000 N 
ATOM     19  H   UNL     1      46.120   8.859  13.568  0.00  0.00    +0.000 HD
BRANCH  18  20
ATOM     20  C   UNL     1      45.968   7.074  12.619  0.00  0.00    +0.000 A 
ATOM     21  C   UNL     1      46.541   6.704  11.399  0.00  0.00    +0.000 A 
ATOM     22  C   UNL     1      45.918   5.762  10.574  0.00  0.00    +0.000 A 
ATOM     23  C   UNL     1      44.736   5.183  11.014  0.00  0.00    +0.000 A 
ATOM     24  N   UNL     1      44.148   5.483  12.203  0.00  0.00    +0.000 NA
ATOM     25  C   UNL     1      44.789   6.404  12.965  0.00  0.00    +0.000 A 
BRANCH  23  26
ATOM     26  C   UNL     1      44.045   4.150  10.175  0.00  0.00    +0.000 C 
ATOM     27  N   UNL     1      44.045   4.404   8.829  0.00  0.00    +0.000 N 
ATOM     28  O   UNL     1      43.514   3.155  10.648  0.00  0.00    +0.000 OA
ATOM     29  H   UNL     1      44.487   5.249   8.485  0.00  0.00    +0.000 HD
ATOM     30  H   UNL     1      43.594   3.761   8.195  0.00  0.00    +0.000 HD
ENDBRANCH  23  26
ENDBRANCH  18  20
ENDBRANCH   1  18
TORSDOF 6
ENDMDL
MODEL 8
REMARK VINA RESULT:    -6.069      2.756      4.606
REMARK INTER + INTRA:          -9.104
REMARK INTER:                  -8.561
REMARK INTRA:                  -0.543
REMARK UNBOUND:                -0.906
REMARK  Name = 
REMARK  6 active torsions:
REMARK  status: ('A' for Active; 'I' for Inactive)
REMARK    1  A    between atoms: C_2  and  C_3
REMARK    2  A    between atoms: C_7  and  C_8
REMARK    3  A    between atoms: C_12  and  C_13
REMARK    4  A    between atoms: C_13  and  N_14
REMARK    5  A    between atoms: N_14  and  C_15
REMARK    6  A    between atoms: C_18  and  C_19
REMARK                            x       y       z     vdW  Elec       q    Type
REMARK                         _______ _______ _______ _____ _____    ______ ____
ROOT
ATOM      1  C   UNL     1      47.363   8.476  13.166  0.00  0.00    +0.000 C 
ATOM      2  C   UNL     1      48.132   8.275  11.868  0.00  0.00    +0.000 C 
ATOM      3  C   UNL     1      47.616   9.632  12.217  0.00  0.00    +0.000 C 
ENDROOT
BRANCH   1   8
ATOM      4  C   UNL     1      49.154   6.896  16.203  0.00  0.00    +0.000 A 
ATOM      5  C   UNL     1      49.711   8.035  16.801  0.00  0.00    +0.000 A 
ATOM      6  C   UNL     1      49.510   9.305  16.254  0.00  0.00    +0.000 A 
ATOM      7  C   UNL     1      48.760   9.457  15.086  0.00  0.00    +0.000 A 
ATOM      8  C   UNL     1      48.178   8.349  14.449  0.00  0.00    +0.000 A 
ATOM      9  C   UNL     1      48.383   7.092  15.042  0.00  0.00    +0.000 A 
BRANCH   4  14
ATOM     10  C   UNL     1      50.782   3.817  17.716  0.00  0.00    +0.000 A 
ATOM     11  C   UNL     1      49.702   2.955  17.681  0.00  0.00    +0.000 A 
ATOM     12  N   UNL     1      48.483   3.304  17.213  0.00  0.00    +0.000 NA
ATOM     13  C   UNL     1      48.342   4.573  16.753  0.00  0.00    +0.000 A 
ATOM     14  C   UNL     1      49.355   5.536  16.739  0.00  0.00    +0.000 A 
ATOM     15  C   UNL     1      50.597   5.120  17.252  0.00  0.00    +0.000 A 
BRANCH  10  17
ATOM     16  N   UNL     1      53.071   3.005  18.608  0.00  0.00    +0.000 NA
ATOM     17  C   UNL     1      52.050   3.377  18.202  0.00  0.00    +0.000 C 
ENDBRANCH  10  17
ENDBRANCH   4  14
ENDBRANCH   1   8
BRANCH   1  18
ATOM     18  N   UNL     1      46.001   7.910  13.257  0.00  0.00    +0.000 N 
ATOM     19  H   UNL     1      45.252   8.595  13.183  0.00  0.00    +0.000 HD
BRANCH  18  20
ATOM     20  C   UNL     1      45.625   6.658  12.719  0.00  0.00    +0.000 A 
ATOM     21  C   UNL     1      46.058   5.424  13.213  0.00  0.00    +0.000 A 
ATOM     22  C   UNL     1      45.565   4.228  12.680  0.00  0.00    +0.000 A 
ATOM     23  C   UNL     1      44.613   4.301  11.674  0.00  0.00    +0.000 A 
ATOM     24  N   UNL     1      44.133   5.472  11.175  0.00  0.00    +0.000 NA
ATOM     25  C   UNL     1      44.644   6.602  11.721  0.00  0.00    +0.000 A 
BRANCH  23  26
ATOM     26  C   UNL     1      44.036   3.047  11.089  0.00  0.00    +0.000 C 
ATOM     27  N   UNL     1      44.785   2.475  10.095  0.00  0.00    +0.000 N 
ATOM     28  O   UNL     1      42.976   2.564  11.462  0.00  0.00    +0.000 OA
ATOM     29  H   UNL     1      45.652   2.918   9.811  0.00  0.00    +0.000 HD
ATOM     30  H   UNL     1      44.464   1.632   9.643  0.00  0.00    +0.000 HD
ENDBRANCH  23  26
ENDBRANCH  18  20
ENDBRANCH   1  18
TORSDOF 6
ENDMDL
