MODEL 1
REMARK VINA RESULT:    -7.260      0.000      0.000
REMARK INTER + INTRA:          -9.064
REMARK INTER:                  -8.533
REMARK INTRA:                  -0.530
REMARK UNBOUND:                -0.530
REMARK  Name = 
REMARK  5 active torsions:
REMARK  status: ('A' for Active; 'I' for Inactive)
REMARK    1  A    between atoms: C_1  and  C_2
REMARK    2  A    between atoms: C_6  and  C_7
REMARK    3  A    between atoms: C_7  and  C_8
REMARK    4  A    between atoms: C_11  and  C_12
REMARK    5  A    between atoms: C_16  and  C_17
REMARK                            x       y       z     vdW  Elec       q    Type
REMARK                         _______ _______ _______ _____ _____    ______ ____
ROOT
ATOM      1  C   UNL     1      45.273   5.874  12.123  0.00  0.00    +0.000 A 
ATOM      2  C   UNL     1      45.254   7.269  11.896  0.00  0.00    +0.000 A 
ATOM      3  C   UNL     1      46.143   8.143  12.526  0.00  0.00    +0.000 A 
ATOM      4  C   UNL     1      47.091   7.646  13.417  0.00  0.00    +0.000 A 
ATOM      5  C   UNL     1      47.178   6.266  13.617  0.00  0.00    +0.000 A 
ATOM      6  C   UNL     1      46.304   5.373  12.963  0.00  0.00    +0.000 A 
ATOM      7  C   UNL     1      46.470   3.902  13.235  0.00  0.00    +0.000 C 
ENDROOT
BRANCH   4   8
ATOM      8  C   UNL     1      47.988   8.612  14.101  0.00  0.00    +0.000 C 
ATOM      9  N   UNL     1      47.531   9.196  15.251  0.00  0.00    +0.000 N 
ATOM     10  O   UNL     1      49.078   8.920  13.633  0.00  0.00    +0.000 OA
ATOM     11  H   UNL     1      46.558   9.173  15.517  0.00  0.00    +0.000 HD
ATOM     12  H   UNL     1      48.103   9.942  15.626  0.00  0.00    +0.000 HD
ENDBRANCH   4   8
BRANCH   1  13
ATOM     13  C   UNL     1      44.153   4.987  11.520  0.00  0.00    +0.000 C 
ATOM     14  C   UNL     1      43.029   4.692  12.517  0.00  0.00    +0.000 C 
ATOM     15  C   UNL     1      42.723   5.552  11.346  0.00  0.00    +0.000 C 
BRANCH  13  21
ATOM     16  C   UNL     1      46.740   4.182   7.195  0.00  0.00    +0.000 C 
ATOM     17  C   UNL     1      45.791   3.691   8.250  0.00  0.00    +0.000 A 
ATOM     18  C   UNL     1      45.445   2.338   8.310  0.00  0.00    +0.000 A 
ATOM     19  C   UNL     1      44.597   1.880   9.310  0.00  0.00    +0.000 A 
ATOM     20  C   UNL     1      44.120   2.766  10.276  0.00  0.00    +0.000 A 
ATOM     21  C   UNL     1      44.476   4.131  10.281  0.00  0.00    +0.000 A 
ATOM     22  C   UNL     1      45.288   4.578   9.220  0.00  0.00    +0.000 A 
ENDBRANCH  13  21
ENDBRANCH   1  13
TORSDOF 3
ENDMDL
MODEL 2
REMARK VINA RESULT:    -6.877      3.644      6.275
REMARK INTER + INTRA:          -8.613
REMARK INTER:                  -8.592
REMARK INTRA:                  -0.021
REMARK UNBOUND:                -0.530
REMARK  Name = 
REMARK  5 active torsions:
REMARK  status: ('A' for Active; 'I' for Inactive)
REMARK    1  A    between atoms: C_1  and  C_2
REMARK    2  A    between atoms: C_6  and  C_7
REMARK    3  A    between atoms: C_7  and  C_8
REMARK    4  A    between atoms: C_11  and  C_12
REMARK    5  A    between atoms: C_16  and  C_17
REMARK                            x       y       z     vdW  Elec       q    Type
REMARK                         _______ _______ _______ _____ _____    ______ ____
ROOT
ATOM      1  C   UNL     1      44.831   4.315  10.155  0.00  0.00    +0.000 A 
ATOM      2  C   UNL     1      45.541   4.893   9.079  0.00  0.00    +0.000 A 
ATOM      3  C   UNL     1      46.101   4.127   8.053  0.00  0.00    +0.000 A 
ATOM      4  C   UNL     1      45.969   2.740   8.070  0.00  0.00    +0.000 A 
ATOM      5  C   UNL     1      45.220   2.142   9.085  0.00  0.00    +0.000 A 
ATOM      6  C   UNL     1      44.627   2.908  10.110  0.00  0.00    +0.000 A 
ATOM      7  C   UNL     1      43.835   2.181  11.163  0.00  0.00    +0.000 C 
ENDROOT
BRANCH   4   8
ATOM      8  C   UNL     1      46.617   1.959   6.986  0.00  0.00    +0.000 C 
ATOM      9  N   UNL     1      46.778   2.572   5.773  0.00  0.00    +0.000 N 
ATOM     10  O   UNL     1      46.952   0.792   7.145  0.00  0.00    +0.000 OA
ATOM     11  H   UNL     1      46.285   3.418   5.527  0.00  0.00    +0.000 HD
ATOM     12  H   UNL     1      47.102   1.981   5.017  0.00  0.00    +0.000 HD
ENDBRANCH   4   8
BRANCH   1  13
ATOM     13  C   UNL     1      44.383   5.207  11.341  0.00  0.00    +0.000 C 
ATOM     14  C   UNL     1      43.125   6.021  11.027  0.00  0.00    +0.000 C 
ATOM     15  C   UNL     1      43.029   4.943  12.043  0.00  0.00    +0.000 C 
BRANCH  13  21
ATOM     16  C   UNL     1      47.248   3.955  15.374  0.00  0.00    +0.000 C 
ATOM     17  C   UNL     1      46.871   4.941  14.306  0.00  0.00    +0.000 A 
ATOM     18  C   UNL     1      47.673   6.061  14.068  0.00  0.00    +0.000 A 
ATOM     19  C   UNL     1      47.343   6.951  13.054  0.00  0.00    +0.000 A 
ATOM     20  C   UNL     1      46.228   6.706  12.251  0.00  0.00    +0.000 A 
ATOM     21  C   UNL     1      45.415   5.568  12.426  0.00  0.00    +0.000 A 
ATOM     22  C   UNL     1      45.740   4.716  13.499  0.00  0.00    +0.000 A 
ENDBRANCH  13  21
ENDBRANCH   1  13
TORSDOF 3
ENDMDL
MODEL 3
REMARK VINA RESULT:    -5.722      3.656      6.235
REMARK INTER + INTRA:          -7.256
REMARK INTER:                  -7.188
REMARK INTRA:                  -0.068
REMARK UNBOUND:                -0.530
REMARK  Name = 
REMARK  5 active torsions:
REMARK  status: ('A' for Active; 'I' for Inactive)
REMARK    1  A    between atoms: C_1  and  C_2
REMARK    2  A    between atoms: C_6  and  C_7
REMARK    3  A    between atoms: C_7  and  C_8
REMARK    4  A    between atoms: C_11  and  C_12
REMARK    5  A    between atoms: C_16  and  C_17
REMARK                            x       y       z     vdW  Elec       q    Type
REMARK                         _______ _______ _______ _____ _____    ______ ____
ROOT
ATOM      1  C   UNL     1      45.689   5.746  11.129  0.00  0.00    +0.000 A 
ATOM      2  C   UNL     1      45.689   5.621   9.722  0.00  0.00    +0.000 A 
ATOM      3  C   UNL     1      45.432   4.408   9.077  0.00  0.00    +0.000 A 
ATOM      4  C   UNL     1      45.165   3.265   9.827  0.00  0.00    +0.000 A 
ATOM      5  C   UNL     1      45.096   3.367  11.219  0.00  0.00    +0.000 A 
ATOM      6  C   UNL     1      45.325   4.593  11.877  0.00  0.00    +0.000 A 
ATOM      7  C   UNL     1      45.228   4.612  13.380  0.00  0.00    +0.000 C 
ENDROOT
BRANCH   4   8
ATOM      8  C   UNL     1      44.941   1.987   9.106  0.00  0.00    +0.000 C 
ATOM      9  N   UNL     1      45.982   1.482   8.375  0.00  0.00    +0.000 N 
ATOM     10  O   UNL     1      43.854   1.423   9.117  0.00  0.00    +0.000 OA
ATOM     11  H   UNL     1      46.787   2.038   8.128  0.00  0.00    +0.000 HD
ATOM     12  H   UNL     1      45.767   0.682   7.792  0.00  0.00    +0.000 HD
ENDBRANCH   4   8
BRANCH   1  13
ATOM     13  C   UNL     1      46.145   7.078  11.777  0.00  0.00    +0.000 C 
ATOM     14  C   UNL     1      45.235   8.255  11.415  0.00  0.00    +0.000 C 
ATOM     15  C   UNL     1      45.245   7.782  12.822  0.00  0.00    +0.000 C 
BRANCH  13  21
ATOM     16  C   UNL     1      50.828   9.051  11.314  0.00  0.00    +0.000 C 
ATOM     17  C   UNL     1      49.835   8.233  12.089  0.00  0.00    +0.000 A 
ATOM     18  C   UNL     1      50.111   7.856  13.406  0.00  0.00    +0.000 A 
ATOM     19  C   UNL     1      49.174   7.134  14.134  0.00  0.00    +0.000 A 
ATOM     20  C   UNL     1      47.944   6.814  13.558  0.00  0.00    +0.000 A 
ATOM     21  C   UNL     1      47.605   7.209  12.248  0.00  0.00    +0.000 A 
ATOM     22  C   UNL     1      48.597   7.889  11.515  0.00  0.00    +0.000 A 
ENDBRANCH  13  21
ENDBRANCH   1  13
TORSDOF 3
ENDMDL
MODEL 4
REMARK VINA RESULT:    -5.314      1.665      2.411
REMARK INTER + INTRA:          -6.777
REMARK INTER:                  -6.625
REMARK INTRA:                  -0.151
REMARK UNBOUND:                -0.530
REMARK  Name = 
REMARK  5 active torsions:
REMARK  status: ('A' for Active; 'I' for Inactive)
REMARK    1  A    between atoms: C_1  and  C_2
REMARK    2  A    between atoms: C_6  and  C_7
REMARK    3  A    between atoms: C_7  and  C_8
REMARK    4  A    between atoms: C_11  and  C_12
REMARK    5  A    between atoms: C_16  and  C_17
REMARK                            x       y       z     vdW  Elec       q    Type
REMARK                         _______ _______ _______ _____ _____    ______ ____
ROOT
ATOM      1  C   UNL     1      46.856   6.302  12.474  0.00  0.00    +0.000 A 
ATOM      2  C   UNL     1      47.587   7.399  11.966  0.00  0.00    +0.000 A 
ATOM      3  C   UNL     1      48.706   7.921  12.619  0.00  0.00    +0.000 A 
ATOM      4  C   UNL     1      49.137   7.357  13.818  0.00  0.00    +0.000 A 
ATOM      5  C   UNL     1      48.475   6.232  14.316  0.00  0.00    +0.000 A 
ATOM      6  C   UNL     1      47.362   5.681  13.649  0.00  0.00    +0.000 A 
ATOM      7  C   UNL     1      46.710   4.466  14.255  0.00  0.00    +0.000 C 
ENDROOT
BRANCH   4   8
ATOM      8  C   UNL     1      50.303   7.968  14.504  0.00  0.00    +0.000 C 
ATOM      9  N   UNL     1      51.478   8.048  13.806  0.00  0.00    +0.000 N 
ATOM     10  O   UNL     1      50.241   8.344  15.668  0.00  0.00    +0.000 OA
ATOM     11  H   UNL     1      51.640   7.520  12.962  0.00  0.00    +0.000 HD
ATOM     12  H   UNL     1      52.288   8.349  14.335  0.00  0.00    +0.000 HD
ENDBRANCH   4   8
BRANCH   1  13
ATOM     13  C   UNL     1      45.531   5.883  11.787  0.00  0.00    +0.000 C 
ATOM     14  C   UNL     1      44.314   6.038  12.703  0.00  0.00    +0.000 C 
ATOM     15  C   UNL     1      44.425   6.934  11.525  0.00  0.00    +0.000 C 
BRANCH  13  21
ATOM     16  C   UNL     1      44.168   1.616   9.342  0.00  0.00    +0.000 C 
ATOM     17  C   UNL     1      44.864   2.947   9.340  0.00  0.00    +0.000 A 
ATOM     18  C   UNL     1      45.294   3.514   8.137  0.00  0.00    +0.000 A 
ATOM     19  C   UNL     1      45.901   4.763   8.134  0.00  0.00    +0.000 A 
ATOM     20  C   UNL     1      46.052   5.465   9.330  0.00  0.00    +0.000 A 
ATOM     21  C   UNL     1      45.596   4.952  10.562  0.00  0.00    +0.000 A 
ATOM     22  C   UNL     1      45.037   3.659  10.542  0.00  0.00    +0.000 A 
ENDBRANCH  13  21
ENDBRANCH   1  13
TORSDOF 3
ENDMDL
MODEL 5
REMARK VINA RESULT:    -5.314      3.678      7.244
REMARK INTER + INTRA:          -6.776
REMARK INTER:                  -6.481
REMARK INTRA:                  -0.295
REMARK UNBOUND:                -0.530
REMARK  Name = 
REMARK  5 active torsions:
REMARK  status: ('A' for Active; 'I' for Inactive)
REMARK    1  A    between atoms: C_1  and  C_2
REMARK    2  A    between atoms: C_6  and  C_7
REMARK    3  A    between atoms: C_7  and  C_8
REMARK    4  A    between atoms: C_11  and  C_12
REMARK    5  A    between atoms: C_16  and  C_17
REMARK                            x       y       z     vdW  Elec       q    Type
REMARK                         _______ _______ _______ _____ _____    ______ ____
ROOT
ATOM      1  C   UNL     1      47.230   6.917  12.850  0.00  0.00    +0.000 A 
ATOM      2  C   UNL     1      47.308   5.508  12.901  0.00  0.00    +0.000 A 
ATOM      3  C   UNL     1      46.171   4.696  12.946  0.00  0.00    +0.000 A 
ATOM      4  C   UNL     1      44.903   5.274  12.943  0.00  0.00    +0.000 A 
ATOM      5  C   UNL     1      44.791   6.661  12.830  0.00  0.00    +0.000 A 
ATOM      6  C   UNL     1      45.931   7.487  12.755  0.00  0.00    +0.000 A 
ATOM      7  C   UNL     1      45.716   8.973  12.633  0.00  0.00    +0.000 C 
ENDROOT
BRANCH   4   8
ATOM      8  C   UNL     1      43.723   4.379  13.037  0.00  0.00    +0.000 C 
ATOM      9  N   UNL     1      43.917   3.046  12.794  0.00  0.00    +0.000 N 
ATOM     10  O   UNL     1      42.602   4.814  13.272  0.00  0.00    +0.000 OA
ATOM     11  H   UNL     1      44.750   2.696  12.345  0.00  0.00    +0.000 HD
ATOM     12  H   UNL     1      43.080   2.479  12.738  0.00  0.00    +0.000 HD
ENDBRANCH   4   8
BRANCH   1  13
ATOM     13  C   UNL     1      48.527   7.758  12.971  0.00  0.00    +0.000 C 
ATOM     14  C   UNL     1      49.398   7.688  11.713  0.00  0.00    +0.000 C 
ATOM     15  C   UNL     1      48.749   8.981  12.047  0.00  0.00    +0.000 C 
BRANCH  13  21
ATOM     16  C   UNL     1      47.808   9.783  17.600  0.00  0.00    +0.000 C 
ATOM     17  C   UNL     1      48.668   9.012  16.640  0.00  0.00    +0.000 A 
ATOM     18  C   UNL     1      49.798   8.331  17.099  0.00  0.00    +0.000 A 
ATOM     19  C   UNL     1      50.570   7.587  16.216  0.00  0.00    +0.000 A 
ATOM     20  C   UNL     1      50.195   7.493  14.875  0.00  0.00    +0.000 A 
ATOM     21  C   UNL     1      49.040   8.128  14.375  0.00  0.00    +0.000 A 
ATOM     22  C   UNL     1      48.311   8.924  15.281  0.00  0.00    +0.000 A 
ENDBRANCH  13  21
ENDBRANCH   1  13
TORSDOF 3
ENDMDL
MODEL 6
REMARK VINA RESULT:    -5.285      3.560      6.570
REMARK INTER + INTRA:          -6.742
REMARK INTER:                  -6.265
REMARK INTRA:                  -0.477
REMARK UNBOUND:                -0.530
REMARK  Name = 
REMARK  5 active torsions:
REMARK  status: ('A' for Active; 'I' for Inactive)
REMARK    1  A    between atoms: C_1  and  C_2
REMARK    2  A    between atoms: C_6  and  C_7
REMARK    3  A    between atoms: C_7  and  C_8
REMARK    4  A    between atoms: C_11  and  C_12
REMARK    5  A    between atoms: C_16  and  C_17
REMARK                            x       y       z     vdW  Elec       q    Type
REMARK                         _______ _______ _______ _____ _____    ______ ____
ROOT
ATOM      1  C   UNL     1      47.082   7.525  12.640  0.00  0.00    +0.000 A 
ATOM      2  C   UNL     1      46.984   6.121  12.513  0.00  0.00    +0.000 A 
ATOM      3  C   UNL     1      45.855   5.495  11.979  0.00  0.00    +0.000 A 
ATOM      4  C   UNL     1      44.772   6.260  11.550  0.00  0.00    +0.000 A 
ATOM      5  C   UNL     1      44.862   7.652  11.605  0.00  0.00    +0.000 A 
ATOM      6  C   UNL     1      46.009   8.295  12.115  0.00  0.00    +0.000 A 
ATOM      7  C   UNL     1      46.021   9.801  12.135  0.00  0.00    +0.000 C 
ENDROOT
BRANCH   4   8
ATOM      8  C   UNL     1      43.575   5.554  11.030  0.00  0.00    +0.000 C 
ATOM      9  N   UNL     1      43.719   4.821   9.884  0.00  0.00    +0.000 N 
ATOM     10  O   UNL     1      42.481   5.658  11.572  0.00  0.00    +0.000 OA
ATOM     11  H   UNL     1      44.516   4.925   9.275  0.00  0.00    +0.000 HD
ATOM     12  H   UNL     1      42.864   4.456   9.481  0.00  0.00    +0.000 HD
ENDBRANCH   4   8
BRANCH   1  13
ATOM     13  C   UNL     1      48.290   8.140  13.393  0.00  0.00    +0.000 C 
ATOM     14  C   UNL     1      47.914   8.681  14.775  0.00  0.00    +0.000 C 
ATOM     15  C   UNL     1      48.801   7.493  14.703  0.00  0.00    +0.000 C 
BRANCH  13  21
ATOM     16  C   UNL     1      52.034   7.184  10.059  0.00  0.00    +0.000 C 
ATOM     17  C   UNL     1      51.261   8.161  10.898  0.00  0.00    +0.000 A 
ATOM     18  C   UNL     1      51.420   9.536  10.702  0.00  0.00    +0.000 A 
ATOM     19  C   UNL     1      50.675  10.437  11.451  0.00  0.00    +0.000 A 
ATOM     20  C   UNL     1      49.743   9.967  12.377  0.00  0.00    +0.000 A 
ATOM     21  C   UNL     1      49.517   8.590  12.578  0.00  0.00    +0.000 A 
ATOM     22  C   UNL     1      50.329   7.701  11.847  0.00  0.00    +0.000 A 
ENDBRANCH  13  21
ENDBRANCH   1  13
TORSDOF 3
ENDMDL
MODEL 7
REMARK VINA RESULT:    -5.103      4.793      8.620
REMARK INTER + INTRA:          -6.529
REMARK INTER:                  -6.007
REMARK INTRA:                  -0.522
REMARK UNBOUND:                -0.530
REMARK  Name = 
REMARK  5 active torsions:
REMARK  status: ('A' for Active; 'I' for Inactive)
REMARK    1  A    between atoms: C_1  and  C_2
REMARK    2  A    between atoms: C_6  and  C_7
REMARK    3  A    between atoms: C_7  and  C_8
REMARK    4  A    between atoms: C_11  and  C_12
REMARK    5  A    between atoms: C_16  and  C_17
REMARK                            x       y       z     vdW  Elec       q    Type
REMARK                         _______ _______ _______ _____ _____    ______ ____
ROOT
ATOM      1  C   UNL     1      48.394   5.397  16.374  0.00  0.00    +0.000 A 
ATOM      2  C   UNL     1      48.372   6.266  15.260  0.00  0.00    +0.000 A 
ATOM      3  C   UNL     1      47.606   6.004  14.122  0.00  0.00    +0.000 A 
ATOM      4  C   UNL     1      46.829   4.850  14.057  0.00  0.00    +0.000 A 
ATOM      5  C   UNL     1      46.780   4.002  15.165  0.00  0.00    +0.000 A 
ATOM      6  C   UNL     1      47.527   4.272  16.330  0.00  0.00    +0.000 A 
ATOM      7  C   UNL     1      47.412   3.304  17.479  0.00  0.00    +0.000 C 
ENDROOT
BRANCH   4   8
ATOM      8  C   UNL     1      46.065   4.586  12.811  0.00  0.00    +0.000 C 
ATOM      9  N   UNL     1      45.445   3.372  12.694  0.00  0.00    +0.000 N 
ATOM     10  O   UNL     1      46.027   5.399  11.895  0.00  0.00    +0.000 OA
ATOM     11  H   UNL     1      45.669   2.592  13.294  0.00  0.00    +0.000 HD
ATOM     12  H   UNL     1      45.041   3.167  11.788  0.00  0.00    +0.000 HD
ENDBRANCH   4   8
BRANCH   1  13
ATOM     13  C   UNL     1      49.392   5.664  17.531  0.00  0.00    +0.000 C 
ATOM     14  C   UNL     1      50.608   4.734  17.492  0.00  0.00    +0.000 C 
ATOM     15  C   UNL     1      50.819   6.178  17.224  0.00  0.00    +0.000 C 
BRANCH  13  21
ATOM     16  C   UNL     1      46.969   9.565  19.758  0.00  0.00    +0.000 C 
ATOM     17  C   UNL     1      47.634   8.222  19.859  0.00  0.00    +0.000 A 
ATOM     18  C   UNL     1      47.513   7.464  21.027  0.00  0.00    +0.000 A 
ATOM     19  C   UNL     1      48.096   6.206  21.104  0.00  0.00    +0.000 A 
ATOM     20  C   UNL     1      48.775   5.687  20.001  0.00  0.00    +0.000 A 
ATOM     21  C   UNL     1      48.887   6.397  18.788  0.00  0.00    +0.000 A 
ATOM     22  C   UNL     1      48.337   7.693  18.760  0.00  0.00    +0.000 A 
ENDBRANCH  13  21
ENDBRANCH   1  13
TORSDOF 3
ENDMDL
MODEL 8
REMARK VINA RESULT:    -5.091      4.829      7.942
REMARK INTER + INTRA:          -6.515
REMARK INTER:                  -6.012
REMARK INTRA:                  -0.503
REMARK UNBOUND:                -0.530
REMARK  Name = 
REMARK  5 active torsions:
REMARK  status: ('A' for Active; 'I' for Inactive)
REMARK    1  A    between atoms: C_1  and  C_2
REMARK    2  A    between atoms: C_6  and  C_7
REMARK    3  A    between atoms: C_7  and  C_8
REMARK    4  A    between atoms: C_11  and  C_12
REMARK    5  A    between atoms: C_16  and  C_17
REMARK                            x       y       z     vdW  Elec       q    Type
REMARK                         _______ _______ _______ _____ _____    ______ ____
ROOT
ATOM      1  C   UNL     1      48.262   5.419  16.153  0.00  0.00    +0.000 A 
ATOM      2  C   UNL     1      47.317   4.446  15.756  0.00  0.00    +0.000 A 
ATOM      3  C   UNL     1      46.683   4.482  14.512  0.00  0.00    +0.000 A 
ATOM      4  C   UNL     1      46.975   5.505  13.612  0.00  0.00    +0.000 A 
ATOM      5  C   UNL     1      47.950   6.447  13.948  0.00  0.00    +0.000 A 
ATOM      6  C   UNL     1      48.616   6.403  15.190  0.00  0.00    +0.000 A 
ATOM      7  C   UNL     1      49.655   7.457  15.468  0.00  0.00    +0.000 C 
ENDROOT
BRANCH   4   8
ATOM      8  C   UNL     1      46.247   5.532  12.319  0.00  0.00    +0.000 C 
ATOM      9  N   UNL     1      45.309   4.561  12.099  0.00  0.00    +0.000 N 
ATOM     10  O   UNL     1      46.504   6.360  11.453  0.00  0.00    +0.000 OA
ATOM     11  H   UNL     1      45.259   3.723  12.660  0.00  0.00    +0.000 HD
ATOM     12  H   UNL     1      44.920   4.523  11.164  0.00  0.00    +0.000 HD
ENDBRANCH   4   8
BRANCH   1  13
ATOM     13  C   UNL     1      48.800   5.412  17.607  0.00  0.00    +0.000 C 
ATOM     14  C   UNL     1      48.223   6.547  18.458  0.00  0.00    +0.000 C 
ATOM     15  C   UNL     1      47.837   5.153  18.791  0.00  0.00    +0.000 C 
BRANCH  13  21
ATOM     16  C   UNL     1      51.736   1.243  17.399  0.00  0.00    +0.000 C 
ATOM     17  C   UNL     1      51.574   2.702  17.716  0.00  0.00    +0.000 A 
ATOM     18  C   UNL     1      52.697   3.495  17.967  0.00  0.00    +0.000 A 
ATOM     19  C   UNL     1      52.548   4.853  18.222  0.00  0.00    +0.000 A 
ATOM     20  C   UNL     1      51.277   5.429  18.194  0.00  0.00    +0.000 A 
ATOM     21  C   UNL     1      50.120   4.676  17.904  0.00  0.00    +0.000 A 
ATOM     22  C   UNL     1      50.297   3.293  17.708  0.00  0.00    +0.000 A 
ENDBRANCH  13  21
ENDBRANCH   1  13
TORSDOF 3
ENDMDL
MODEL 9
REMARK VINA RESULT:    -4.965      6.850      9.363
REMARK INTER + INTRA:          -6.366
REMARK INTER:                  -5.868
REMARK INTRA:                  -0.498
REMARK UNBOUND:                -0.530
REMARK  Name = 
REMARK  5 active torsions:
REMARK  status: ('A' for Active; 'I' for Inactive)
REMARK    1  A    between atoms: C_1  and  C_2
REMARK    2  A    between atoms: C_6  and  C_7
REMARK    3  A    between atoms: C_7  and  C_8
REMARK    4  A    between atoms: C_11  and  C_12
REMARK    5  A    between atoms: C_16  and  C_17
REMARK                            x       y       z     vdW  Elec       q    Type
REMARK                         _______ _______ _______ _____ _____    ______ ____
ROOT
ATOM      1  C   UNL     1      50.941   3.605  17.926  0.00  0.00    +0.000 A 
ATOM      2  C   UNL     1      52.254   3.680  18.441  0.00  0.00    +0.000 A 
ATOM      3  C   UNL     1      53.127   2.590  18.429  0.00  0.00    +0.000 A 
ATOM      4  C   UNL     1      52.710   1.372  17.896  0.00  0.00    +0.000 A 
ATOM      5  C   UNL     1      51.440   1.281  17.322  0.00  0.00    +0.000 A 
ATOM      6  C   UNL     1      50.562   2.384  17.304  0.00  0.00    +0.000 A 
ATOM      7  C   UNL     1      49.213   2.198  16.663  0.00  0.00    +0.000 C 
ENDROOT
BRANCH   4   8
ATOM      8  C   UNL     1      53.652   0.225  17.943  0.00  0.00    +0.000 C 
ATOM      9  N   UNL     1      53.876  -0.458  16.779  0.00  0.00    +0.000 N 
ATOM     10  O   UNL     1      54.176  -0.136  18.990  0.00  0.00    +0.000 OA
ATOM     11  H   UNL     1      53.275  -0.364  15.974  0.00  0.00    +0.000 HD
ATOM     12  H   UNL     1      54.419  -1.310  16.862  0.00  0.00    +0.000 HD
ENDBRANCH   4   8
BRANCH   1  13
ATOM     13  C   UNL     1      49.974   4.801  18.123  0.00  0.00    +0.000 C 
ATOM     14  C   UNL     1      48.884   4.518  19.160  0.00  0.00    +0.000 C 
ATOM     15  C   UNL     1      49.914   5.536  19.483  0.00  0.00    +0.000 C 
BRANCH  13  21
ATOM     16  C   UNL     1      52.137   8.061  14.845  0.00  0.00    +0.000 C 
ATOM     17  C   UNL     1      50.914   7.358  15.360  0.00  0.00    +0.000 A 
ATOM     18  C   UNL     1      49.722   7.394  14.629  0.00  0.00    +0.000 A 
ATOM     19  C   UNL     1      48.603   6.711  15.087  0.00  0.00    +0.000 A 
ATOM     20  C   UNL     1      48.680   5.961  16.261  0.00  0.00    +0.000 A 
ATOM     21  C   UNL     1      49.872   5.860  17.009  0.00  0.00    +0.000 A 
ATOM     22  C   UNL     1      50.972   6.611  16.551  0.00  0.00    +0.000 A 
ENDBRANCH  13  21
ENDBRANCH   1  13
TORSDOF 3
ENDMDL
