MODEL 1
REMARK VINA RESULT:    -8.408      0.000      0.000
REMARK INTER + INTRA:         -12.817
REMARK INTER:                 -11.849
REMARK INTRA:                  -0.968
REMARK UNBOUND:                -0.968
REMARK  Name = 
REMARK  7 active torsions:
REMARK  status: ('A' for Active; 'I' for Inactive)
REMARK    1  A    between atoms: C_2  and  C_3
REMARK    2  A    between atoms: C_6  and  C_7
REMARK    3  A    between atoms: N_9  and  C_10
REMARK    4  A    between atoms: C_10  and  C_11
REMARK    5  A    between atoms: C_14  and  C_15
REMARK    6  A    between atoms: C_15  and  N_16
REMARK    7  A    between atoms: C_17  and  C_19
REMARK                            x       y       z     vdW  Elec       q    Type
REMARK                         _______ _______ _______ _____ _____    ______ ____
ROOT
ATOM      1  C   UNL     1      46.189   4.728  13.630  0.00  0.00    +0.000 A 
ATOM      2  C   UNL     1      46.763   5.865  13.042  0.00  0.00    +0.000 A 
ATOM      3  C   UNL     1      47.777   6.577  13.697  0.00  0.00    +0.000 A 
ATOM      4  C   UNL     1      48.251   6.159  14.947  0.00  0.00    +0.000 A 
ATOM      5  C   UNL     1      47.667   5.032  15.540  0.00  0.00    +0.000 A 
ATOM      6  C   UNL     1      46.656   4.319  14.886  0.00  0.00    +0.000 A 
ENDROOT
BRANCH   1   7
ATOM      7  C   UNL     1      45.098   3.958  12.929  0.00  0.00    +0.000 C 
BRANCH   7  10
ATOM      8  C   UNL     1      44.360   3.325  10.674  0.00  0.00    +0.000 C 
ATOM      9  O   UNL     1      43.333   2.810  11.103  0.00  0.00    +0.000 OA
ATOM     10  N   UNL     1      45.298   3.910  11.495  0.00  0.00    +0.000 N 
ATOM     11  H   UNL     1      46.138   4.324  11.111  0.00  0.00    +0.000 HD
BRANCH   8  15
ATOM     12  C   UNL     1      46.147   2.803   7.379  0.00  0.00    +0.000 C 
ATOM     13  C   UNL     1      46.395   4.287   7.658  0.00  0.00    +0.000 C 
ATOM     14  C   UNL     1      45.476   4.673   8.821  0.00  0.00    +0.000 C 
ATOM     15  C   UNL     1      44.678   3.420   9.184  0.00  0.00    +0.000 C 
ATOM     16  C   UNL     1      45.556   2.272   8.681  0.00  0.00    +0.000 C 
BRANCH  12  18
ATOM     17  N   UNL     1      48.332   1.528   6.657  0.00  0.00    +0.000 NA
ATOM     18  C   UNL     1      47.373   2.093   6.981  0.00  0.00    +0.000 C 
ENDBRANCH  12  18
ENDBRANCH   8  15
ENDBRANCH   7  10
ENDBRANCH   1   7
BRANCH   4  19
ATOM     19  C   UNL     1      49.345   6.912  15.665  0.00  0.00    +0.000 C 
BRANCH  19  20
ATOM     20  N   UNL     1      50.344   6.018  16.194  0.00  0.00    +0.000 N 
ATOM     21  C   UNL     1      50.440   5.771  17.541  0.00  0.00    +0.000 C 
ATOM     22  O   UNL     1      49.656   6.260  18.352  0.00  0.00    +0.000 OA
ATOM     23  H   UNL     1      51.139   5.815  15.597  0.00  0.00    +0.000 HD
BRANCH  21  24
ATOM     24  C   UNL     1      51.492   4.836  17.960  0.00  0.00    +0.000 A 
ATOM     25  C   UNL     1      52.631   5.313  18.595  0.00  0.00    +0.000 A 
ATOM     26  S   UNL     1      53.717   4.084  19.067  0.00  0.00    +0.000 S 
ATOM     27  C   UNL     1      52.732   2.877  18.385  0.00  0.00    +0.000 A 
ATOM     28  N   UNL     1      53.102   1.568  18.418  0.00  0.00    +0.000 NA
ATOM     29  C   UNL     1      52.279   0.766  17.829  0.00  0.00    +0.000 A 
ATOM     30  N   UNL     1      51.116   1.152  17.217  0.00  0.00    +0.000 N 
ATOM     31  C   UNL     1      50.682   2.457  17.193  0.00  0.00    +0.000 A 
ATOM     32  O   UNL     1      49.608   2.762  16.684  0.00  0.00    +0.000 OA
ATOM     33  C   UNL     1      51.580   3.401  17.825  0.00  0.00    +0.000 A 
ATOM     34  H   UNL     1      50.509   0.473  16.782  0.00  0.00    +0.000 HD
ENDBRANCH  21  24
ENDBRANCH  19  20
ENDBRANCH   4  19
TORSDOF 7
ENDMDL
MODEL 2
REMARK VINA RESULT:    -7.861      3.897      4.600
REMARK INTER + INTRA:         -12.046
REMARK INTER:                 -11.010
REMARK INTRA:                  -1.035
REMARK UNBOUND:                -0.968
REMARK  Name = 
REMARK  7 active torsions:
REMARK  status: ('A' for Active; 'I' for Inactive)
REMARK    1  A    between atoms: C_2  and  C_3
REMARK    2  A    between atoms: C_6  and  C_7
REMARK    3  A    between atoms: N_9  and  C_10
REMARK    4  A    between atoms: C_10  and  C_11
REMARK    5  A    between atoms: C_14  and  C_15
REMARK    6  A    between atoms: C_15  and  N_16
REMARK    7  A    between atoms: C_17  and  C_19
REMARK                            x       y       z     vdW  Elec       q    Type
REMARK                         _______ _______ _______ _____ _____    ______ ____
ROOT
ATOM      1  C   UNL     1      45.841   4.631  12.991  0.00  0.00    +0.000 A 
ATOM      2  C   UNL     1      47.064   4.751  13.668  0.00  0.00    +0.000 A 
ATOM      3  C   UNL     1      47.626   6.011  13.915  0.00  0.00    +0.000 A 
ATOM      4  C   UNL     1      46.971   7.179  13.504  0.00  0.00    +0.000 A 
ATOM      5  C   UNL     1      45.757   7.057  12.815  0.00  0.00    +0.000 A 
ATOM      6  C   UNL     1      45.193   5.800  12.570  0.00  0.00    +0.000 A 
ENDROOT
BRANCH   1   7
ATOM      7  C   UNL     1      45.231   3.278  12.724  0.00  0.00    +0.000 C 
BRANCH   7  10
ATOM      8  C   UNL     1      44.169   3.060  10.520  0.00  0.00    +0.000 C 
ATOM      9  O   UNL     1      43.093   3.468  10.945  0.00  0.00    +0.000 OA
ATOM     10  N   UNL     1      45.281   2.922  11.321  0.00  0.00    +0.000 N 
ATOM     11  H   UNL     1      46.154   2.579  10.941  0.00  0.00    +0.000 HD
BRANCH   8  15
ATOM     12  C   UNL     1      45.974   2.093   7.338  0.00  0.00    +0.000 C 
ATOM     13  C   UNL     1      45.584   3.547   7.067  0.00  0.00    +0.000 C 
ATOM     14  C   UNL     1      44.601   3.950   8.171  0.00  0.00    +0.000 C 
ATOM     15  C   UNL     1      44.402   2.715   9.051  0.00  0.00    +0.000 C 
ATOM     16  C   UNL     1      45.673   1.894   8.820  0.00  0.00    +0.000 C 
BRANCH  12  18
ATOM     17  N   UNL     1      48.487   1.607   6.729  0.00  0.00    +0.000 NA
ATOM     18  C   UNL     1      47.380   1.815   7.002  0.00  0.00    +0.000 C 
ENDBRANCH  12  18
ENDBRANCH   8  15
ENDBRANCH   7  10
ENDBRANCH   1   7
BRANCH   4  19
ATOM     19  C   UNL     1      47.560   8.544  13.765  0.00  0.00    +0.000 C 
BRANCH  19  20
ATOM     20  N   UNL     1      47.384   8.944  15.139  0.00  0.00    +0.000 N 
ATOM     21  C   UNL     1      48.436   8.957  16.020  0.00  0.00    +0.000 C 
ATOM     22  O   UNL     1      49.581   8.674  15.673  0.00  0.00    +0.000 OA
ATOM     23  H   UNL     1      46.436   8.929  15.502  0.00  0.00    +0.000 HD
BRANCH  21  24
ATOM     24  C   UNL     1      48.135   9.392  17.390  0.00  0.00    +0.000 A 
ATOM     25  C   UNL     1      48.032  10.746  17.681  0.00  0.00    +0.000 A 
ATOM     26  S   UNL     1      47.617  11.067  19.305  0.00  0.00    +0.000 S 
ATOM     27  C   UNL     1      47.621   9.411  19.690  0.00  0.00    +0.000 A 
ATOM     28  N   UNL     1      47.364   8.985  20.956  0.00  0.00    +0.000 NA
ATOM     29  C   UNL     1      47.439   7.705  21.114  0.00  0.00    +0.000 A 
ATOM     30  N   UNL     1      47.739   6.812  20.120  0.00  0.00    +0.000 N 
ATOM     31  C   UNL     1      47.966   7.192  18.818  0.00  0.00    +0.000 A 
ATOM     32  O   UNL     1      48.178   6.363  17.939  0.00  0.00    +0.000 OA
ATOM     33  C   UNL     1      47.913   8.622  18.591  0.00  0.00    +0.000 A 
ATOM     34  H   UNL     1      47.771   5.820  20.305  0.00  0.00    +0.000 HD
ENDBRANCH  21  24
ENDBRANCH  19  20
ENDBRANCH   4  19
TORSDOF 7
ENDMDL
MODEL 3
REMARK VINA RESULT:    -7.411      3.886      5.060
REMARK INTER + INTRA:         -11.412
REMARK INTER:                 -10.203
REMARK INTRA:                  -1.209
REMARK UNBOUND:                -0.968
REMARK  Name = 
REMARK  7 active torsions:
REMARK  status: ('A' for Active; 'I' for Inactive)
REMARK    1  A    between atoms: C_2  and  C_3
REMARK    2  A    between atoms: C_6  and  C_7
REMARK    3  A    between atoms: N_9  and  C_10
REMARK    4  A    between atoms: C_10  and  C_11
REMARK    5  A    between atoms: C_14  and  C_15
REMARK    6  A    between atoms: C_15  and  N_16
REMARK    7  A    between atoms: C_17  and  C_19
REMARK                            x       y       z     vdW  Elec       q    Type
REMARK                         _______ _______ _______ _____ _____    ______ ____
ROOT
ATOM      1  C   UNL     1      46.316   4.643  13.440  0.00  0.00    +0.000 A 
ATOM      2  C   UNL     1      46.655   5.789  12.704  0.00  0.00    +0.000 A 
ATOM      3  C   UNL     1      47.577   6.717  13.207  0.00  0.00    +0.000 A 
ATOM      4  C   UNL     1      48.191   6.512  14.449  0.00  0.00    +0.000 A 
ATOM      5  C   UNL     1      47.841   5.376  15.190  0.00  0.00    +0.000 A 
ATOM      6  C   UNL     1      46.922   4.447  14.687  0.00  0.00    +0.000 A 
ENDROOT
BRANCH   1   7
ATOM      7  C   UNL     1      45.326   3.640  12.902  0.00  0.00    +0.000 C 
BRANCH   7  10
ATOM      8  C   UNL     1      44.313   3.130  10.724  0.00  0.00    +0.000 C 
ATOM      9  O   UNL     1      43.225   2.884  11.234  0.00  0.00    +0.000 OA
ATOM     10  N   UNL     1      45.414   3.502  11.463  0.00  0.00    +0.000 N 
ATOM     11  H   UNL     1      46.299   3.695  11.013  0.00  0.00    +0.000 HD
BRANCH   8  15
ATOM     12  C   UNL     1      46.010   2.506   7.399  0.00  0.00    +0.000 C 
ATOM     13  C   UNL     1      46.040   4.032   7.504  0.00  0.00    +0.000 C 
ATOM     14  C   UNL     1      45.126   4.408   8.674  0.00  0.00    +0.000 C 
ATOM     15  C   UNL     1      44.546   3.101   9.215  0.00  0.00    +0.000 C 
ATOM     16  C   UNL     1      45.566   2.044   8.784  0.00  0.00    +0.000 C 
BRANCH  12  18
ATOM     17  N   UNL     1      48.341   1.511   6.696  0.00  0.00    +0.000 NA
ATOM     18  C   UNL     1      47.311   1.943   7.004  0.00  0.00    +0.000 C 
ENDBRANCH  12  18
ENDBRANCH   8  15
ENDBRANCH   7  10
ENDBRANCH   1   7
BRANCH   4  19
ATOM     19  C   UNL     1      49.189   7.500  15.005  0.00  0.00    +0.000 C 
BRANCH  19  20
ATOM     20  N   UNL     1      50.392   7.541  14.212  0.00  0.00    +0.000 N 
ATOM     21  C   UNL     1      50.971   8.733  13.853  0.00  0.00    +0.000 C 
ATOM     22  O   UNL     1      50.521   9.815  14.224  0.00  0.00    +0.000 OA
ATOM     23  H   UNL     1      50.626   6.701  13.692  0.00  0.00    +0.000 HD
BRANCH  21  24
ATOM     24  C   UNL     1      52.199   8.647  13.052  0.00  0.00    +0.000 A 
ATOM     25  C   UNL     1      53.399   9.116  13.571  0.00  0.00    +0.000 A 
ATOM     26  S   UNL     1      54.732   8.881  12.531  0.00  0.00    +0.000 S 
ATOM     27  C   UNL     1      53.743   8.199  11.328  0.00  0.00    +0.000 A 
ATOM     28  N   UNL     1      54.263   7.796  10.137  0.00  0.00    +0.000 NA
ATOM     29  C   UNL     1      53.392   7.334   9.304  0.00  0.00    +0.000 A 
ATOM     30  N   UNL     1      52.050   7.230   9.554  0.00  0.00    +0.000 N 
ATOM     31  C   UNL     1      51.484   7.588  10.756  0.00  0.00    +0.000 A 
ATOM     32  O   UNL     1      50.286   7.431  10.969  0.00  0.00    +0.000 OA
ATOM     33  C   UNL     1      52.418   8.131  11.722  0.00  0.00    +0.000 A 
ATOM     34  H   UNL     1      51.420   6.849   8.863  0.00  0.00    +0.000 HD
ENDBRANCH  21  24
ENDBRANCH  19  20
ENDBRANCH   4  19
TORSDOF 7
ENDMDL
MODEL 4
REMARK VINA RESULT:    -7.388      2.812      3.046
REMARK INTER + INTRA:         -11.380
REMARK INTER:                 -10.168
REMARK INTRA:                  -1.212
REMARK UNBOUND:                -0.968
REMARK  Name = 
REMARK  7 active torsions:
REMARK  status: ('A' for Active; 'I' for Inactive)
REMARK    1  A    between atoms: C_2  and  C_3
REMARK    2  A    between atoms: C_6  and  C_7
REMARK    3  A    between atoms: N_9  and  C_10
REMARK    4  A    between atoms: C_10  and  C_11
REMARK    5  A    between atoms: C_14  and  C_15
REMARK    6  A    between atoms: C_15  and  N_16
REMARK    7  A    between atoms: C_17  and  C_19
REMARK                            x       y       z     vdW  Elec       q    Type
REMARK                         _______ _______ _______ _____ _____    ______ ____
ROOT
ATOM      1  C   UNL     1      45.433   6.119  12.804  0.00  0.00    +0.000 A 
ATOM      2  C   UNL     1      45.647   7.505  12.814  0.00  0.00    +0.000 A 
ATOM      3  C   UNL     1      46.856   8.041  13.278  0.00  0.00    +0.000 A 
ATOM      4  C   UNL     1      47.884   7.202  13.726  0.00  0.00    +0.000 A 
ATOM      5  C   UNL     1      47.664   5.818  13.729  0.00  0.00    +0.000 A 
ATOM      6  C   UNL     1      46.458   5.282  13.264  0.00  0.00    +0.000 A 
ENDROOT
BRANCH   1   7
ATOM      7  C   UNL     1      44.134   5.537  12.305  0.00  0.00    +0.000 C 
BRANCH   7  10
ATOM      8  C   UNL     1      44.320   3.538  10.889  0.00  0.00    +0.000 C 
ATOM      9  O   UNL     1      44.255   2.788  11.858  0.00  0.00    +0.000 OA
ATOM     10  N   UNL     1      44.279   4.910  11.007  0.00  0.00    +0.000 N 
ATOM     11  H   UNL     1      44.339   5.503  10.189  0.00  0.00    +0.000 HD
BRANCH   8  15
ATOM     12  C   UNL     1      45.770   2.114   7.698  0.00  0.00    +0.000 C 
ATOM     13  C   UNL     1      45.465   3.560   7.304  0.00  0.00    +0.000 C 
ATOM     14  C   UNL     1      44.612   4.150   8.432  0.00  0.00    +0.000 C 
ATOM     15  C   UNL     1      44.400   3.030   9.452  0.00  0.00    +0.000 C 
ATOM     16  C   UNL     1      45.584   2.090   9.211  0.00  0.00    +0.000 C 
BRANCH  12  18
ATOM     17  N   UNL     1      48.175   1.350   6.951  0.00  0.00    +0.000 NA
ATOM     18  C   UNL     1      47.118   1.691   7.285  0.00  0.00    +0.000 C 
ENDBRANCH  12  18
ENDBRANCH   8  15
ENDBRANCH   7  10
ENDBRANCH   1   7
BRANCH   4  19
ATOM     19  C   UNL     1      49.195   7.762  14.225  0.00  0.00    +0.000 C 
BRANCH  19  20
ATOM     20  N   UNL     1      49.417   7.435  15.611  0.00  0.00    +0.000 N 
ATOM     21  C   UNL     1      48.878   8.195  16.619  0.00  0.00    +0.000 C 
ATOM     22  O   UNL     1      48.148   9.158  16.392  0.00  0.00    +0.000 OA
ATOM     23  H   UNL     1      50.202   6.826  15.818  0.00  0.00    +0.000 HD
BRANCH  21  24
ATOM     24  C   UNL     1      49.167   7.759  17.991  0.00  0.00    +0.000 A 
ATOM     25  C   UNL     1      49.835   8.609  18.863  0.00  0.00    +0.000 A 
ATOM     26  S   UNL     1      50.031   7.965  20.431  0.00  0.00    +0.000 S 
ATOM     27  C   UNL     1      49.284   6.505  19.983  0.00  0.00    +0.000 A 
ATOM     28  N   UNL     1      49.149   5.484  20.873  0.00  0.00    +0.000 NA
ATOM     29  C   UNL     1      48.599   4.422  20.387  0.00  0.00    +0.000 A 
ATOM     30  N   UNL     1      48.164   4.289  19.095  0.00  0.00    +0.000 N 
ATOM     31  C   UNL     1      48.243   5.306  18.172  0.00  0.00    +0.000 A 
ATOM     32  O   UNL     1      47.794   5.174  17.038  0.00  0.00    +0.000 OA
ATOM     33  C   UNL     1      48.871   6.516  18.663  0.00  0.00    +0.000 A 
ATOM     34  H   UNL     1      47.731   3.434  18.778  0.00  0.00    +0.000 HD
ENDBRANCH  21  24
ENDBRANCH  19  20
ENDBRANCH   4  19
TORSDOF 7
ENDMDL
MODEL 5
REMARK VINA RESULT:    -7.050      3.869      9.756
REMARK INTER + INTRA:         -10.904
REMARK INTER:                  -9.921
REMARK INTRA:                  -0.982
REMARK UNBOUND:                -0.968
REMARK  Name = 
REMARK  7 active torsions:
REMARK  status: ('A' for Active; 'I' for Inactive)
REMARK    1  A    between atoms: C_2  and  C_3
REMARK    2  A    between atoms: C_6  and  C_7
REMARK    3  A    between atoms: N_9  and  C_10
REMARK    4  A    between atoms: C_10  and  C_11
REMARK    5  A    between atoms: C_14  and  C_15
REMARK    6  A    between atoms: C_15  and  N_16
REMARK    7  A    between atoms: C_17  and  C_19
REMARK                            x       y       z     vdW  Elec       q    Type
REMARK                         _______ _______ _______ _____ _____    ______ ____
ROOT
ATOM      1  C   UNL     1      51.438   3.663  17.713  0.00  0.00    +0.000 A 
ATOM      2  C   UNL     1      50.600   4.787  17.765  0.00  0.00    +0.000 A 
ATOM      3  C   UNL     1      49.236   4.680  17.459  0.00  0.00    +0.000 A 
ATOM      4  C   UNL     1      48.678   3.443  17.110  0.00  0.00    +0.000 A 
ATOM      5  C   UNL     1      49.518   2.324  17.044  0.00  0.00    +0.000 A 
ATOM      6  C   UNL     1      50.880   2.430  17.352  0.00  0.00    +0.000 A 
ENDROOT
BRANCH   1   7
ATOM      7  C   UNL     1      52.905   3.773  18.044  0.00  0.00    +0.000 C 
BRANCH   7  10
ATOM      8  C   UNL     1      54.752   2.286  17.402  0.00  0.00    +0.000 C 
ATOM      9  O   UNL     1      55.306   3.172  16.760  0.00  0.00    +0.000 OA
ATOM     10  N   UNL     1      53.559   2.481  18.064  0.00  0.00    +0.000 N 
ATOM     11  H   UNL     1      53.125   1.728  18.583  0.00  0.00    +0.000 HD
BRANCH   8  15
ATOM     12  C   UNL     1      55.478  -1.377  16.791  0.00  0.00    +0.000 C 
ATOM     13  C   UNL     1      54.687  -1.412  18.100  0.00  0.00    +0.000 C 
ATOM     14  C   UNL     1      54.587   0.037  18.589  0.00  0.00    +0.000 C 
ATOM     15  C   UNL     1      55.352   0.894  17.580  0.00  0.00    +0.000 C 
ATOM     16  C   UNL     1      55.324   0.058  16.298  0.00  0.00    +0.000 C 
BRANCH  12  18
ATOM     17  N   UNL     1      54.610  -3.155  15.056  0.00  0.00    +0.000 NA
ATOM     18  C   UNL     1      54.996  -2.368  15.815  0.00  0.00    +0.000 C 
ENDBRANCH  12  18
ENDBRANCH   8  15
ENDBRANCH   7  10
ENDBRANCH   1   7
BRANCH   4  19
ATOM     19  C   UNL     1      47.210   3.309  16.780  0.00  0.00    +0.000 C 
BRANCH  19  20
ATOM     20  N   UNL     1      46.782   4.319  15.845  0.00  0.00    +0.000 N 
ATOM     21  C   UNL     1      46.833   4.105  14.490  0.00  0.00    +0.000 C 
ATOM     22  O   UNL     1      47.200   3.034  14.012  0.00  0.00    +0.000 OA
ATOM     23  H   UNL     1      46.726   5.270  16.193  0.00  0.00    +0.000 HD
BRANCH  21  24
ATOM     24  C   UNL     1      46.362   5.204  13.638  0.00  0.00    +0.000 A 
ATOM     25  C   UNL     1      47.147   6.337  13.470  0.00  0.00    +0.000 A 
ATOM     26  S   UNL     1      46.475   7.484  12.400  0.00  0.00    +0.000 S 
ATOM     27  C   UNL     1      45.083   6.534  12.171  0.00  0.00    +0.000 A 
ATOM     28  N   UNL     1      44.068   6.958  11.370  0.00  0.00    +0.000 NA
ATOM     29  C   UNL     1      43.058   6.155  11.319  0.00  0.00    +0.000 A 
ATOM     30  N   UNL     1      42.973   4.964  11.988  0.00  0.00    +0.000 N 
ATOM     31  C   UNL     1      43.989   4.475  12.776  0.00  0.00    +0.000 A 
ATOM     32  O   UNL     1      43.904   3.378  13.319  0.00  0.00    +0.000 OA
ATOM     33  C   UNL     1      45.140   5.349  12.883  0.00  0.00    +0.000 A 
ATOM     34  H   UNL     1      42.158   4.374  11.898  0.00  0.00    +0.000 HD
ENDBRANCH  21  24
ENDBRANCH  19  20
ENDBRANCH   4  19
TORSDOF 7
ENDMDL
MODEL 6
REMARK VINA RESULT:    -6.831      2.162      2.816
REMARK INTER + INTRA:         -10.595
REMARK INTER:                  -9.530
REMARK INTRA:                  -1.065
REMARK UNBOUND:                -0.968
REMARK  Name = 
REMARK  7 active torsions:
REMARK  status: ('A' for Active; 'I' for Inactive)
REMARK    1  A    between atoms: C_2  and  C_3
REMARK    2  A    between atoms: C_6  and  C_7
REMARK    3  A    between atoms: N_9  and  C_10
REMARK    4  A    between atoms: C_10  and  C_11
REMARK    5  A    between atoms: C_14  and  C_15
REMARK    6  A    between atoms: C_15  and  N_16
REMARK    7  A    between atoms: C_17  and  C_19
REMARK                            x       y       z     vdW  Elec       q    Type
REMARK                         _______ _______ _______ _____ _____    ______ ____
ROOT
ATOM      1  C   UNL     1      46.453   7.353  12.213  0.00  0.00    +0.000 A 
ATOM      2  C   UNL     1      46.755   7.927  13.457  0.00  0.00    +0.000 A 
ATOM      3  C   UNL     1      48.056   8.357  13.752  0.00  0.00    +0.000 A 
ATOM      4  C   UNL     1      49.080   8.237  12.803  0.00  0.00    +0.000 A 
ATOM      5  C   UNL     1      48.781   7.650  11.566  0.00  0.00    +0.000 A 
ATOM      6  C   UNL     1      47.481   7.223  11.271  0.00  0.00    +0.000 A 
ENDROOT
BRANCH   1   7
ATOM      7  C   UNL     1      45.054   6.890  11.891  0.00  0.00    +0.000 C 
BRANCH   7  10
ATOM      8  C   UNL     1      44.957   4.711  10.761  0.00  0.00    +0.000 C 
ATOM      9  O   UNL     1      44.964   4.105  11.827  0.00  0.00    +0.000 OA
ATOM     10  N   UNL     1      45.008   6.086  10.687  0.00  0.00    +0.000 N 
ATOM     11  H   UNL     1      45.005   6.557   9.792  0.00  0.00    +0.000 HD
BRANCH   8  15
ATOM     12  C   UNL     1      45.498   2.160   8.019  0.00  0.00    +0.000 C 
ATOM     13  C   UNL     1      46.195   3.401   7.457  0.00  0.00    +0.000 C 
ATOM     14  C   UNL     1      45.793   4.574   8.357  0.00  0.00    +0.000 C 
ATOM     15  C   UNL     1      44.837   4.010   9.410  0.00  0.00    +0.000 C 
ATOM     16  C   UNL     1      45.197   2.524   9.469  0.00  0.00    +0.000 C 
BRANCH  12  18
ATOM     17  N   UNL     1      46.981  -0.003   7.809  0.00  0.00    +0.000 NA
ATOM     18  C   UNL     1      46.323   0.947   7.897  0.00  0.00    +0.000 C 
ENDBRANCH  12  18
ENDBRANCH   8  15
ENDBRANCH   7  10
ENDBRANCH   1   7
BRANCH   4  19
ATOM     19  C   UNL     1      50.486   8.699  13.102  0.00  0.00    +0.000 C 
BRANCH  19  20
ATOM     20  N   UNL     1      51.197   7.742  13.914  0.00  0.00    +0.000 N 
ATOM     21  C   UNL     1      51.564   8.034  15.204  0.00  0.00    +0.000 C 
ATOM     22  O   UNL     1      51.268   9.099  15.742  0.00  0.00    +0.000 OA
ATOM     23  H   UNL     1      51.666   6.986  13.425  0.00  0.00    +0.000 HD
BRANCH  21  24
ATOM     24  C   UNL     1      52.276   6.977  15.934  0.00  0.00    +0.000 A 
ATOM     25  C   UNL     1      53.663   6.924  15.900  0.00  0.00    +0.000 A 
ATOM     26  S   UNL     1      54.324   5.672  16.853  0.00  0.00    +0.000 S 
ATOM     27  C   UNL     1      52.778   5.120  17.296  0.00  0.00    +0.000 A 
ATOM     28  N   UNL     1      52.625   4.033  18.100  0.00  0.00    +0.000 NA
ATOM     29  C   UNL     1      51.396   3.703  18.323  0.00  0.00    +0.000 A 
ATOM     30  N   UNL     1      50.307   4.365  17.823  0.00  0.00    +0.000 N 
ATOM     31  C   UNL     1      50.411   5.491  17.039  0.00  0.00    +0.000 A 
ATOM     32  O   UNL     1      49.415   6.093  16.652  0.00  0.00    +0.000 OA
ATOM     33  C   UNL     1      51.772   5.893  16.743  0.00  0.00    +0.000 A 
ATOM     34  H   UNL     1      49.369   4.062  18.043  0.00  0.00    +0.000 HD
ENDBRANCH  21  24
ENDBRANCH  19  20
ENDBRANCH   4  19
TORSDOF 7
ENDMDL
MODEL 7
REMARK VINA RESULT:    -6.800      3.095      9.498
REMARK INTER + INTRA:         -10.551
REMARK INTER:                  -9.391
REMARK INTRA:                  -1.160
REMARK UNBOUND:                -0.968
REMARK  Name = 
REMARK  7 active torsions:
REMARK  status: ('A' for Active; 'I' for Inactive)
REMARK    1  A    between atoms: C_2  and  C_3
REMARK    2  A    between atoms: C_6  and  C_7
REMARK    3  A    between atoms: N_9  and  C_10
REMARK    4  A    between atoms: C_10  and  C_11
REMARK    5  A    between atoms: C_14  and  C_15
REMARK    6  A    between atoms: C_15  and  N_16
REMARK    7  A    between atoms: C_17  and  C_19
REMARK                            x       y       z     vdW  Elec       q    Type
REMARK                         _______ _______ _______ _____ _____    ______ ____
ROOT
ATOM      1  C   UNL     1      50.393   7.448  15.068  0.00  0.00    +0.000 A 
ATOM      2  C   UNL     1      49.090   6.951  15.224  0.00  0.00    +0.000 A 
ATOM      3  C   UNL     1      48.156   7.049  14.183  0.00  0.00    +0.000 A 
ATOM      4  C   UNL     1      48.509   7.631  12.959  0.00  0.00    +0.000 A 
ATOM      5  C   UNL     1      49.806   8.140  12.810  0.00  0.00    +0.000 A 
ATOM      6  C   UNL     1      50.740   8.040  13.848  0.00  0.00    +0.000 A 
ENDROOT
BRANCH   1   7
ATOM      7  C   UNL     1      51.402   7.343  16.184  0.00  0.00    +0.000 C 
BRANCH   7  10
ATOM      8  C   UNL     1      51.200   5.689  17.989  0.00  0.00    +0.000 C 
ATOM      9  O   UNL     1      50.812   6.537  18.786  0.00  0.00    +0.000 OA
ATOM     10  N   UNL     1      51.526   5.989  16.684  0.00  0.00    +0.000 N 
ATOM     11  H   UNL     1      51.847   5.268  16.052  0.00  0.00    +0.000 HD
BRANCH   8  15
ATOM     12  C   UNL     1      52.518   2.143  18.073  0.00  0.00    +0.000 C 
ATOM     13  C   UNL     1      51.209   1.990  17.297  0.00  0.00    +0.000 C 
ATOM     14  C   UNL     1      50.452   3.313  17.450  0.00  0.00    +0.000 C 
ATOM     15  C   UNL     1      51.312   4.209  18.343  0.00  0.00    +0.000 C 
ATOM     16  C   UNL     1      52.726   3.651  18.163  0.00  0.00    +0.000 C 
BRANCH  12  18
ATOM     17  N   UNL     1      54.537   0.920  16.910  0.00  0.00    +0.000 NA
ATOM     18  C   UNL     1      53.643   1.453  17.421  0.00  0.00    +0.000 C 
ENDBRANCH  12  18
ENDBRANCH   8  15
ENDBRANCH   7  10
ENDBRANCH   1   7
BRANCH   4  19
ATOM     19  C   UNL     1      47.517   7.742  11.827  0.00  0.00    +0.000 C 
BRANCH  19  20
ATOM     20  N   UNL     1      46.828   6.496  11.601  0.00  0.00    +0.000 N 
ATOM     21  C   UNL     1      45.458   6.419  11.641  0.00  0.00    +0.000 C 
ATOM     22  O   UNL     1      44.754   7.410  11.825  0.00  0.00    +0.000 OA
ATOM     23  H   UNL     1      47.374   5.646  11.705  0.00  0.00    +0.000 HD
BRANCH  21  24
ATOM     24  C   UNL     1      44.871   5.098  11.387  0.00  0.00    +0.000 A 
ATOM     25  C   UNL     1      44.122   4.470  12.375  0.00  0.00    +0.000 A 
ATOM     26  S   UNL     1      43.465   2.972  11.887  0.00  0.00    +0.000 S 
ATOM     27  C   UNL     1      44.207   3.082  10.361  0.00  0.00    +0.000 A 
ATOM     28  N   UNL     1      44.069   2.089   9.441  0.00  0.00    +0.000 NA
ATOM     29  C   UNL     1      44.718   2.286   8.342  0.00  0.00    +0.000 A 
ATOM     30  N   UNL     1      45.485   3.389   8.076  0.00  0.00    +0.000 N 
ATOM     31  C   UNL     1      45.623   4.435   8.958  0.00  0.00    +0.000 A 
ATOM     32  O   UNL     1      46.273   5.434   8.667  0.00  0.00    +0.000 OA
ATOM     33  C   UNL     1      44.928   4.254  10.217  0.00  0.00    +0.000 A 
ATOM     34  H   UNL     1      45.961   3.489   7.190  0.00  0.00    +0.000 HD
ENDBRANCH  21  24
ENDBRANCH  19  20
ENDBRANCH   4  19
TORSDOF 7
ENDMDL
MODEL 8
REMARK VINA RESULT:    -6.762      4.058      9.178
REMARK INTER + INTRA:         -10.497
REMARK INTER:                  -9.505
REMARK INTRA:                  -0.992
REMARK UNBOUND:                -0.968
REMARK  Name = 
REMARK  7 active torsions:
REMARK  status: ('A' for Active; 'I' for Inactive)
REMARK    1  A    between atoms: C_2  and  C_3
REMARK    2  A    between atoms: C_6  and  C_7
REMARK    3  A    between atoms: N_9  and  C_10
REMARK    4  A    between atoms: C_10  and  C_11
REMARK    5  A    between atoms: C_14  and  C_15
REMARK    6  A    between atoms: C_15  and  N_16
REMARK    7  A    between atoms: C_17  and  C_19
REMARK                            x       y       z     vdW  Elec       q    Type
REMARK                         _______ _______ _______ _____ _____    ______ ____
ROOT
ATOM      1  C   UNL     1      51.368   4.529  17.706  0.00  0.00    +0.000 A 
ATOM      2  C   UNL     1      50.434   5.516  17.357  0.00  0.00    +0.000 A 
ATOM      3  C   UNL     1      49.128   5.167  16.986  0.00  0.00    +0.000 A 
ATOM      4  C   UNL     1      48.722   3.826  16.973  0.00  0.00    +0.000 A 
ATOM      5  C   UNL     1      49.661   2.841  17.308  0.00  0.00    +0.000 A 
ATOM      6  C   UNL     1      50.964   3.188  17.681  0.00  0.00    +0.000 A 
ENDROOT
BRANCH   1   7
ATOM      7  C   UNL     1      52.774   4.899  18.107  0.00  0.00    +0.000 C 
BRANCH   7  10
ATOM      8  C   UNL     1      54.667   5.335  16.603  0.00  0.00    +0.000 C 
ATOM      9  O   UNL     1      55.264   4.335  16.988  0.00  0.00    +0.000 OA
ATOM     10  N   UNL     1      53.436   5.704  17.101  0.00  0.00    +0.000 N 
ATOM     11  H   UNL     1      52.970   6.537  16.766  0.00  0.00    +0.000 HD
BRANCH   8  15
ATOM     12  C   UNL     1      54.697   7.623  13.589  0.00  0.00    +0.000 C 
ATOM     13  C   UNL     1      55.369   6.359  13.051  0.00  0.00    +0.000 C 
ATOM     14  C   UNL     1      55.667   5.471  14.263  0.00  0.00    +0.000 C 
ATOM     15  C   UNL     1      55.198   6.243  15.497  0.00  0.00    +0.000 C 
ATOM     16  C   UNL     1      54.141   7.202  14.945  0.00  0.00    +0.000 C 
BRANCH  12  18
ATOM     17  N   UNL     1      52.832   8.531  11.972  0.00  0.00    +0.000 NA
ATOM     18  C   UNL     1      53.657   8.138  12.684  0.00  0.00    +0.000 C 
ENDBRANCH  12  18
ENDBRANCH   8  15
ENDBRANCH   7  10
ENDBRANCH   1   7
BRANCH   4  19
ATOM     19  C   UNL     1      47.319   3.433  16.580  0.00  0.00    +0.000 C 
BRANCH  19  20
ATOM     20  N   UNL     1      46.739   4.382  15.663  0.00  0.00    +0.000 N 
ATOM     21  C   UNL     1      46.737   4.157  14.309  0.00  0.00    +0.000 C 
ATOM     22  O   UNL     1      47.184   3.122  13.819  0.00  0.00    +0.000 OA
ATOM     23  H   UNL     1      46.606   5.328  16.006  0.00  0.00    +0.000 HD
BRANCH  21  24
ATOM     24  C   UNL     1      46.111   5.191  13.476  0.00  0.00    +0.000 A 
ATOM     25  C   UNL     1      46.771   6.392  13.248  0.00  0.00    +0.000 A 
ATOM     26  S   UNL     1      45.926   7.451  12.209  0.00  0.00    +0.000 S 
ATOM     27  C   UNL     1      44.622   6.367  12.077  0.00  0.00    +0.000 A 
ATOM     28  N   UNL     1      43.524   6.679  11.337  0.00  0.00    +0.000 NA
ATOM     29  C   UNL     1      42.595   5.782  11.357  0.00  0.00    +0.000 A 
ATOM     30  N   UNL     1      42.667   4.599  12.042  0.00  0.00    +0.000 N 
ATOM     31  C   UNL     1      43.771   4.223  12.771  0.00  0.00    +0.000 A 
ATOM     32  O   UNL     1      43.827   3.132  13.329  0.00  0.00    +0.000 OA
ATOM     33  C   UNL     1      44.837   5.205  12.797  0.00  0.00    +0.000 A 
ATOM     34  H   UNL     1      41.909   3.933  12.009  0.00  0.00    +0.000 HD
ENDBRANCH  21  24
ENDBRANCH  19  20
ENDBRANCH   4  19
TORSDOF 7
ENDMDL
MODEL 9
REMARK VINA RESULT:    -6.670      3.383      9.584
REMARK INTER + INTRA:         -10.368
REMARK INTER:                  -9.379
REMARK INTRA:                  -0.989
REMARK UNBOUND:                -0.968
REMARK  Name = 
REMARK  7 active torsions:
REMARK  status: ('A' for Active; 'I' for Inactive)
REMARK    1  A    between atoms: C_2  and  C_3
REMARK    2  A    between atoms: C_6  and  C_7
REMARK    3  A    between atoms: N_9  and  C_10
REMARK    4  A    between atoms: C_10  and  C_11
REMARK    5  A    between atoms: C_14  and  C_15
REMARK    6  A    between atoms: C_15  and  N_16
REMARK    7  A    between atoms: C_17  and  C_19
REMARK                            x       y       z     vdW  Elec       q    Type
REMARK                         _______ _______ _______ _____ _____    ______ ____
ROOT
ATOM      1  C   UNL     1      49.125   4.753  17.405  0.00  0.00    +0.000 A 
ATOM      2  C   UNL     1      48.025   4.295  16.665  0.00  0.00    +0.000 A 
ATOM      3  C   UNL     1      47.611   4.967  15.507  0.00  0.00    +0.000 A 
ATOM      4  C   UNL     1      48.297   6.101  15.055  0.00  0.00    +0.000 A 
ATOM      5  C   UNL     1      49.387   6.566  15.803  0.00  0.00    +0.000 A 
ATOM      6  C   UNL     1      49.803   5.894  16.958  0.00  0.00    +0.000 A 
ENDROOT
BRANCH   1   7
ATOM      7  C   UNL     1      49.577   4.032  18.651  0.00  0.00    +0.000 C 
BRANCH   7  10
ATOM      8  C   UNL     1      51.213   2.424  17.775  0.00  0.00    +0.000 C 
ATOM      9  O   UNL     1      50.346   1.795  17.177  0.00  0.00    +0.000 OA
ATOM     10  N   UNL     1      50.933   3.537  18.536  0.00  0.00    +0.000 N 
ATOM     11  H   UNL     1      51.670   4.033  19.020  0.00  0.00    +0.000 HD
BRANCH   8  15
ATOM     12  C   UNL     1      54.435   0.483  18.187  0.00  0.00    +0.000 C 
ATOM     13  C   UNL     1      54.637   1.663  19.139  0.00  0.00    +0.000 C 
ATOM     14  C   UNL     1      53.516   2.664  18.839  0.00  0.00    +0.000 C 
ATOM     15  C   UNL     1      52.696   2.073  17.692  0.00  0.00    +0.000 C 
ATOM     16  C   UNL     1      52.965   0.569  17.791  0.00  0.00    +0.000 C 
BRANCH  12  18
ATOM     17  N   UNL     1      55.063  -1.815  19.303  0.00  0.00    +0.000 NA
ATOM     18  C   UNL     1      54.781  -0.806  18.807  0.00  0.00    +0.000 C 
ENDBRANCH  12  18
ENDBRANCH   8  15
ENDBRANCH   7  10
ENDBRANCH   1   7
BRANCH   4  19
ATOM     19  C   UNL     1      47.867   6.835  13.807  0.00  0.00    +0.000 C 
BRANCH  19  20
ATOM     20  N   UNL     1      47.181   5.962  12.889  0.00  0.00    +0.000 N 
ATOM     21  C   UNL     1      46.339   6.458  11.925  0.00  0.00    +0.000 C 
ATOM     22  O   UNL     1      46.165   7.665  11.769  0.00  0.00    +0.000 OA
ATOM     23  H   UNL     1      47.104   4.985  13.155  0.00  0.00    +0.000 HD
BRANCH  21  24
ATOM     24  C   UNL     1      45.703   5.472  11.042  0.00  0.00    +0.000 A 
ATOM     25  C   UNL     1      45.809   5.605   9.663  0.00  0.00    +0.000 A 
ATOM     26  S   UNL     1      45.065   4.339   8.794  0.00  0.00    +0.000 S 
ATOM     27  C   UNL     1      44.524   3.601  10.228  0.00  0.00    +0.000 A 
ATOM     28  N   UNL     1      43.782   2.460  10.192  0.00  0.00    +0.000 NA
ATOM     29  C   UNL     1      43.407   2.033  11.352  0.00  0.00    +0.000 A 
ATOM     30  N   UNL     1      43.713   2.635  12.543  0.00  0.00    +0.000 N 
ATOM     31  C   UNL     1      44.492   3.765  12.630  0.00  0.00    +0.000 A 
ATOM     32  O   UNL     1      44.794   4.249  13.717  0.00  0.00    +0.000 OA
ATOM     33  C   UNL     1      44.924   4.298  11.354  0.00  0.00    +0.000 A 
ATOM     34  H   UNL     1      43.398   2.243  13.418  0.00  0.00    +0.000 HD
ENDBRANCH  21  24
ENDBRANCH  19  20
ENDBRANCH   4  19
TORSDOF 7
ENDMDL
