MODEL 1
REMARK VINA RESULT:    -8.726      0.000      0.000
REMARK INTER + INTRA:         -12.523
REMARK INTER:                 -11.786
REMARK INTRA:                  -0.736
REMARK UNBOUND:                -0.736
REMARK  Name = 
REMARK  6 active torsions:
REMARK  status: ('A' for Active; 'I' for Inactive)
REMARK    1  A    between atoms: C_2  and  C_25
REMARK    2  A    between atoms: N_3  and  C_4
REMARK    3  A    between atoms: C_4  and  C_5
REMARK    4  A    between atoms: C_8  and  C_9
REMARK    5  A    between atoms: C_9  and  N_10
REMARK    6  A    between atoms: C_11  and  C_13
REMARK                            x       y       z     vdW  Elec       q    Type
REMARK                         _______ _______ _______ _____ _____    ______ ____
ROOT
ATOM      1  C   UNL     1      44.651   5.325  11.336  0.00  0.00    +0.000 A 
ATOM      2  C   UNL     1      45.761   4.839  12.042  0.00  0.00    +0.000 A 
ATOM      3  C   UNL     1      46.598   5.710  12.757  0.00  0.00    +0.000 A 
ATOM      4  C   UNL     1      46.334   7.088  12.796  0.00  0.00    +0.000 A 
ATOM      5  C   UNL     1      45.226   7.569  12.082  0.00  0.00    +0.000 A 
ATOM      6  C   UNL     1      44.387   6.699  11.374  0.00  0.00    +0.000 A 
ENDROOT
BRANCH   1   7
ATOM      7  C   UNL     1      43.777   4.382  10.549  0.00  0.00    +0.000 C 
BRANCH   7  10
ATOM      8  O   UNL     1      45.373   5.079   8.381  0.00  0.00    +0.000 OA
ATOM      9  C   UNL     1      45.312   3.900   8.710  0.00  0.00    +0.000 C 
ATOM     10  N   UNL     1      44.544   3.443   9.761  0.00  0.00    +0.000 N 
ATOM     11  H   UNL     1      44.676   2.508  10.123  0.00  0.00    +0.000 HD
BRANCH   9  12
ATOM     12  C   UNL     1      46.120   2.888   7.984  0.00  0.00    +0.000 A 
ATOM     13  C   UNL     1      46.895   3.306   6.902  0.00  0.00    +0.000 A 
ATOM     14  C   UNL     1      47.633   2.352   6.227  0.00  0.00    +0.000 A 
ATOM     15  N   UNL     1      47.632   1.041   6.550  0.00  0.00    +0.000 NA
ATOM     16  C   UNL     1      46.851   0.661   7.585  0.00  0.00    +0.000 A 
ATOM     17  C   UNL     1      46.082   1.538   8.330  0.00  0.00    +0.000 A 
ENDBRANCH   9  12
ENDBRANCH   7  10
ENDBRANCH   1   7
BRANCH   4  18
ATOM     18  C   UNL     1      47.206   8.053  13.571  0.00  0.00    +0.000 C 
BRANCH  18  19
ATOM     19  N   UNL     1      47.695   7.478  14.799  0.00  0.00    +0.000 N 
ATOM     20  C   UNL     1      48.977   6.986  14.919  0.00  0.00    +0.000 C 
ATOM     21  O   UNL     1      49.790   7.028  14.005  0.00  0.00    +0.000 OA
ATOM     22  H   UNL     1      46.990   7.102  15.423  0.00  0.00    +0.000 HD
BRANCH  20  23
ATOM     23  C   UNL     1      49.330   6.453  16.247  0.00  0.00    +0.000 A 
ATOM     24  C   UNL     1      50.272   7.101  17.037  0.00  0.00    +0.000 A 
ATOM     25  S   UNL     1      50.518   6.350  18.552  0.00  0.00    +0.000 S 
ATOM     26  C   UNL     1      49.412   5.113  18.188  0.00  0.00    +0.000 A 
ATOM     27  N   UNL     1      49.170   4.097  19.064  0.00  0.00    +0.000 NA
ATOM     28  C   UNL     1      48.320   3.220  18.643  0.00  0.00    +0.000 A 
ATOM     29  N   UNL     1      47.682   3.269  17.432  0.00  0.00    +0.000 N 
ATOM     30  C   UNL     1      47.867   4.291  16.535  0.00  0.00    +0.000 A 
ATOM     31  O   UNL     1      47.232   4.334  15.486  0.00  0.00    +0.000 OA
ATOM     32  C   UNL     1      48.835   5.287  16.941  0.00  0.00    +0.000 A 
ATOM     33  H   UNL     1      47.010   2.563  17.167  0.00  0.00    +0.000 HD
ENDBRANCH  20  23
ENDBRANCH  18  19
ENDBRANCH   4  18
TORSDOF 6
ENDMDL
MODEL 2
REMARK VINA RESULT:    -8.365      1.872      2.532
REMARK INTER + INTRA:         -12.035
REMARK INTER:                 -11.160
REMARK INTRA:                  -0.875
REMARK UNBOUND:                -0.736
REMARK  Name = 
REMARK  6 active torsions:
REMARK  status: ('A' for Active; 'I' for Inactive)
REMARK    1  A    between atoms: C_2  and  C_25
REMARK    2  A    between atoms: N_3  and  C_4
REMARK    3  A    between atoms: C_4  and  C_5
REMARK    4  A    between atoms: C_8  and  C_9
REMARK    5  A    between atoms: C_9  and  N_10
REMARK    6  A    between atoms: C_11  and  C_13
REMARK                            x       y       z     vdW  Elec       q    Type
REMARK                         _______ _______ _______ _____ _____    ______ ____
ROOT
ATOM      1  C   UNL     1      45.094   5.344  11.454  0.00  0.00    +0.000 A 
ATOM      2  C   UNL     1      45.367   6.705  11.259  0.00  0.00    +0.000 A 
ATOM      3  C   UNL     1      46.289   7.380  12.075  0.00  0.00    +0.000 A 
ATOM      4  C   UNL     1      46.974   6.704  13.095  0.00  0.00    +0.000 A 
ATOM      5  C   UNL     1      46.692   5.343  13.291  0.00  0.00    +0.000 A 
ATOM      6  C   UNL     1      45.776   4.668  12.473  0.00  0.00    +0.000 A 
ENDROOT
BRANCH   1   7
ATOM      7  C   UNL     1      44.080   4.638  10.590  0.00  0.00    +0.000 C 
BRANCH   7  10
ATOM      8  O   UNL     1      45.645   5.161   8.351  0.00  0.00    +0.000 OA
ATOM      9  C   UNL     1      45.446   3.994   8.670  0.00  0.00    +0.000 C 
ATOM     10  N   UNL     1      44.677   3.622   9.753  0.00  0.00    +0.000 N 
ATOM     11  H   UNL     1      44.703   2.671  10.096  0.00  0.00    +0.000 HD
BRANCH   9  12
ATOM     12  C   UNL     1      46.077   2.899   7.891  0.00  0.00    +0.000 A 
ATOM     13  C   UNL     1      46.018   1.600   8.399  0.00  0.00    +0.000 A 
ATOM     14  C   UNL     1      46.620   0.592   7.671  0.00  0.00    +0.000 A 
ATOM     15  N   UNL     1      47.271   0.799   6.506  0.00  0.00    +0.000 NA
ATOM     16  C   UNL     1      47.336   2.069   6.053  0.00  0.00    +0.000 A 
ATOM     17  C   UNL     1      46.759   3.147   6.701  0.00  0.00    +0.000 A 
ENDBRANCH   9  12
ENDBRANCH   7  10
ENDBRANCH   1   7
BRANCH   4  18
ATOM     18  C   UNL     1      47.987   7.396  13.981  0.00  0.00    +0.000 C 
BRANCH  18  19
ATOM     19  N   UNL     1      47.955   6.900  15.335  0.00  0.00    +0.000 N 
ATOM     20  C   UNL     1      49.095   6.499  15.997  0.00  0.00    +0.000 C 
ATOM     21  O   UNL     1      50.208   6.561  15.492  0.00  0.00    +0.000 OA
ATOM     22  H   UNL     1      47.073   6.501  15.638  0.00  0.00    +0.000 HD
BRANCH  20  23
ATOM     23  C   UNL     1      48.895   6.040  17.382  0.00  0.00    +0.000 A 
ATOM     24  C   UNL     1      49.206   4.735  17.743  0.00  0.00    +0.000 A 
ATOM     25  S   UNL     1      48.938   4.404  19.398  0.00  0.00    +0.000 S 
ATOM     26  C   UNL     1      48.356   5.976  19.679  0.00  0.00    +0.000 A 
ATOM     27  N   UNL     1      47.915   6.359  20.911  0.00  0.00    +0.000 NA
ATOM     28  C   UNL     1      47.485   7.575  20.970  0.00  0.00    +0.000 A 
ATOM     29  N   UNL     1      47.464   8.448  19.914  0.00  0.00    +0.000 N 
ATOM     30  C   UNL     1      47.933   8.119  18.668  0.00  0.00    +0.000 A 
ATOM     31  O   UNL     1      47.957   8.946  17.762  0.00  0.00    +0.000 OA
ATOM     32  C   UNL     1      48.398   6.754  18.535  0.00  0.00    +0.000 A 
ATOM     33  H   UNL     1      47.135   9.397  20.027  0.00  0.00    +0.000 HD
ENDBRANCH  20  23
ENDBRANCH  18  19
ENDBRANCH   4  18
TORSDOF 6
ENDMDL
MODEL 3
REMARK VINA RESULT:    -7.637      4.946      9.443
REMARK INTER + INTRA:         -11.052
REMARK INTER:                 -10.164
REMARK INTRA:                  -0.888
REMARK UNBOUND:                -0.736
REMARK  Name = 
REMARK  6 active torsions:
REMARK  status: ('A' for Active; 'I' for Inactive)
REMARK    1  A    between atoms: C_2  and  C_25
REMARK    2  A    between atoms: N_3  and  C_4
REMARK    3  A    between atoms: C_4  and  C_5
REMARK    4  A    between atoms: C_8  and  C_9
REMARK    5  A    between atoms: C_9  and  N_10
REMARK    6  A    between atoms: C_11  and  C_13
REMARK                            x       y       z     vdW  Elec       q    Type
REMARK                         _______ _______ _______ _____ _____    ______ ____
ROOT
ATOM      1  C   UNL     1      51.419   3.110  17.748  0.00  0.00    +0.000 A 
ATOM      2  C   UNL     1      50.762   4.319  18.015  0.00  0.00    +0.000 A 
ATOM      3  C   UNL     1      49.390   4.466  17.758  0.00  0.00    +0.000 A 
ATOM      4  C   UNL     1      48.638   3.399  17.243  0.00  0.00    +0.000 A 
ATOM      5  C   UNL     1      49.303   2.194  16.970  0.00  0.00    +0.000 A 
ATOM      6  C   UNL     1      50.671   2.045  17.232  0.00  0.00    +0.000 A 
ENDROOT
BRANCH   1   7
ATOM      7  C   UNL     1      52.899   2.975  18.002  0.00  0.00    +0.000 C 
BRANCH   7  10
ATOM      8  O   UNL     1      54.268   1.132  19.573  0.00  0.00    +0.000 OA
ATOM      9  C   UNL     1      54.088   0.875  18.387  0.00  0.00    +0.000 C 
ATOM     10  N   UNL     1      53.433   1.722  17.517  0.00  0.00    +0.000 N 
ATOM     11  H   UNL     1      53.131   1.390  16.610  0.00  0.00    +0.000 HD
BRANCH   9  12
ATOM     12  C   UNL     1      54.555  -0.420  17.834  0.00  0.00    +0.000 A 
ATOM     13  C   UNL     1      54.814  -0.506  16.465  0.00  0.00    +0.000 A 
ATOM     14  C   UNL     1      55.237  -1.721  15.961  0.00  0.00    +0.000 A 
ATOM     15  N   UNL     1      55.398  -2.828  16.717  0.00  0.00    +0.000 NA
ATOM     16  C   UNL     1      55.114  -2.723  18.033  0.00  0.00    +0.000 A 
ATOM     17  C   UNL     1      54.693  -1.551  18.637  0.00  0.00    +0.000 A 
ENDBRANCH   9  12
ENDBRANCH   7  10
ENDBRANCH   1   7
BRANCH   4  18
ATOM     18  C   UNL     1      47.154   3.518  16.970  0.00  0.00    +0.000 C 
BRANCH  18  19
ATOM     19  N   UNL     1      46.868   4.459  15.915  0.00  0.00    +0.000 N 
ATOM     20  C   UNL     1      46.963   4.118  14.582  0.00  0.00    +0.000 C 
ATOM     21  O   UNL     1      47.268   2.994  14.208  0.00  0.00    +0.000 OA
ATOM     22  H   UNL     1      46.974   5.438  16.156  0.00  0.00    +0.000 HD
BRANCH  20  23
ATOM     23  C   UNL     1      46.615   5.186  13.629  0.00  0.00    +0.000 A 
ATOM     24  C   UNL     1      47.538   6.175  13.313  0.00  0.00    +0.000 A 
ATOM     25  S   UNL     1      46.961   7.302  12.166  0.00  0.00    +0.000 S 
ATOM     26  C   UNL     1      45.446   6.537  12.086  0.00  0.00    +0.000 A 
ATOM     27  N   UNL     1      44.446   7.023  11.298  0.00  0.00    +0.000 NA
ATOM     28  C   UNL     1      43.346   6.348  11.353  0.00  0.00    +0.000 A 
ATOM     29  N   UNL     1      43.155   5.227  12.117  0.00  0.00    +0.000 N 
ATOM     30  C   UNL     1      44.144   4.681  12.895  0.00  0.00    +0.000 A 
ATOM     31  O   UNL     1      43.957   3.640  13.518  0.00  0.00    +0.000 OA
ATOM     32  C   UNL     1      45.391   5.416  12.897  0.00  0.00    +0.000 A 
ATOM     33  H   UNL     1      42.277   4.728  12.102  0.00  0.00    +0.000 HD
ENDBRANCH  20  23
ENDBRANCH  18  19
ENDBRANCH   4  18
TORSDOF 6
ENDMDL
MODEL 4
REMARK VINA RESULT:    -7.236      4.929      9.313
REMARK INTER + INTRA:         -10.511
REMARK INTER:                  -9.340
REMARK INTRA:                  -1.170
REMARK UNBOUND:                -0.736
REMARK  Name = 
REMARK  6 active torsions:
REMARK  status: ('A' for Active; 'I' for Inactive)
REMARK    1  A    between atoms: C_2  and  C_25
REMARK    2  A    between atoms: N_3  and  C_4
REMARK    3  A    between atoms: C_4  and  C_5
REMARK    4  A    between atoms: C_8  and  C_9
REMARK    5  A    between atoms: C_9  and  N_10
REMARK    6  A    between atoms: C_11  and  C_13
REMARK                            x       y       z     vdW  Elec       q    Type
REMARK                         _______ _______ _______ _____ _____    ______ ____
ROOT
ATOM      1  C   UNL     1      51.431   3.089  17.738  0.00  0.00    +0.000 A 
ATOM      2  C   UNL     1      50.632   2.058  17.225  0.00  0.00    +0.000 A 
ATOM      3  C   UNL     1      49.269   2.265  16.960  0.00  0.00    +0.000 A 
ATOM      4  C   UNL     1      48.677   3.517  17.186  0.00  0.00    +0.000 A 
ATOM      5  C   UNL     1      49.479   4.543  17.707  0.00  0.00    +0.000 A 
ATOM      6  C   UNL     1      50.841   4.337  17.966  0.00  0.00    +0.000 A 
ENDROOT
BRANCH   1   7
ATOM      7  C   UNL     1      52.887   2.844  18.045  0.00  0.00    +0.000 C 
BRANCH   7  10
ATOM      8  O   UNL     1      54.343   1.004  19.538  0.00  0.00    +0.000 OA
ATOM      9  C   UNL     1      54.059   0.727  18.378  0.00  0.00    +0.000 C 
ATOM     10  N   UNL     1      53.352   1.569  17.546  0.00  0.00    +0.000 N 
ATOM     11  H   UNL     1      52.969   1.226  16.676  0.00  0.00    +0.000 HD
BRANCH   9  12
ATOM     12  C   UNL     1      54.452  -0.590  17.817  0.00  0.00    +0.000 A 
ATOM     13  C   UNL     1      54.722  -0.680  16.451  0.00  0.00    +0.000 A 
ATOM     14  C   UNL     1      55.075  -1.914  15.940  0.00  0.00    +0.000 A 
ATOM     15  N   UNL     1      55.158  -3.036  16.687  0.00  0.00    +0.000 NA
ATOM     16  C   UNL     1      54.865  -2.925  18.001  0.00  0.00    +0.000 A 
ATOM     17  C   UNL     1      54.510  -1.735  18.611  0.00  0.00    +0.000 A 
ENDBRANCH   9  12
ENDBRANCH   7  10
ENDBRANCH   1   7
BRANCH   4  18
ATOM     18  C   UNL     1      47.215   3.780  16.896  0.00  0.00    +0.000 C 
BRANCH  18  19
ATOM     19  N   UNL     1      47.035   4.734  15.830  0.00  0.00    +0.000 N 
ATOM     20  C   UNL     1      47.075   4.367  14.502  0.00  0.00    +0.000 C 
ATOM     21  O   UNL     1      47.237   3.209  14.141  0.00  0.00    +0.000 OA
ATOM     22  H   UNL     1      47.262   5.697  16.055  0.00  0.00    +0.000 HD
BRANCH  20  23
ATOM     23  C   UNL     1      46.850   5.456  13.536  0.00  0.00    +0.000 A 
ATOM     24  C   UNL     1      45.743   5.436  12.697  0.00  0.00    +0.000 A 
ATOM     25  S   UNL     1      45.640   6.801  11.674  0.00  0.00    +0.000 S 
ATOM     26  C   UNL     1      47.090   7.443  12.284  0.00  0.00    +0.000 A 
ATOM     27  N   UNL     1      47.607   8.609  11.804  0.00  0.00    +0.000 NA
ATOM     28  C   UNL     1      48.723   8.964  12.349  0.00  0.00    +0.000 A 
ATOM     29  N   UNL     1      49.366   8.266  13.336  0.00  0.00    +0.000 N 
ATOM     30  C   UNL     1      48.865   7.108  13.875  0.00  0.00    +0.000 A 
ATOM     31  O   UNL     1      49.436   6.542  14.802  0.00  0.00    +0.000 OA
ATOM     32  C   UNL     1      47.630   6.645  13.279  0.00  0.00    +0.000 A 
ATOM     33  H   UNL     1      50.228   8.605  13.740  0.00  0.00    +0.000 HD
ENDBRANCH  20  23
ENDBRANCH  18  19
ENDBRANCH   4  18
TORSDOF 6
ENDMDL
MODEL 5
REMARK VINA RESULT:    -6.770      5.447      8.173
REMARK INTER + INTRA:          -9.881
REMARK INTER:                  -9.020
REMARK INTRA:                  -0.860
REMARK UNBOUND:                -0.736
REMARK  Name = 
REMARK  6 active torsions:
REMARK  status: ('A' for Active; 'I' for Inactive)
REMARK    1  A    between atoms: C_2  and  C_25
REMARK    2  A    between atoms: N_3  and  C_4
REMARK    3  A    between atoms: C_4  and  C_5
REMARK    4  A    between atoms: C_8  and  C_9
REMARK    5  A    between atoms: C_9  and  N_10
REMARK    6  A    between atoms: C_11  and  C_13
REMARK                            x       y       z     vdW  Elec       q    Type
REMARK                         _______ _______ _______ _____ _____    ______ ____
ROOT
ATOM      1  C   UNL     1      48.959   7.088  13.682  0.00  0.00    +0.000 A 
ATOM      2  C   UNL     1      48.831   7.238  12.294  0.00  0.00    +0.000 A 
ATOM      3  C   UNL     1      49.739   8.024  11.567  0.00  0.00    +0.000 A 
ATOM      4  C   UNL     1      50.807   8.667  12.210  0.00  0.00    +0.000 A 
ATOM      5  C   UNL     1      50.925   8.520  13.601  0.00  0.00    +0.000 A 
ATOM      6  C   UNL     1      50.023   7.730  14.326  0.00  0.00    +0.000 A 
ENDROOT
BRANCH   1   7
ATOM      7  C   UNL     1      47.960   6.264  14.455  0.00  0.00    +0.000 C 
BRANCH   7  10
ATOM      8  O   UNL     1      46.824   3.733  14.264  0.00  0.00    +0.000 OA
ATOM      9  C   UNL     1      46.295   4.661  13.664  0.00  0.00    +0.000 C 
ATOM     10  N   UNL     1      46.780   5.953  13.680  0.00  0.00    +0.000 N 
ATOM     11  H   UNL     1      46.211   6.717  13.343  0.00  0.00    +0.000 HD
BRANCH   9  12
ATOM     12  C   UNL     1      45.046   4.427  12.897  0.00  0.00    +0.000 A 
ATOM     13  C   UNL     1      44.939   3.263  12.136  0.00  0.00    +0.000 A 
ATOM     14  C   UNL     1      43.776   3.063  11.417  0.00  0.00    +0.000 A 
ATOM     15  N   UNL     1      42.748   3.938  11.401  0.00  0.00    +0.000 NA
ATOM     16  C   UNL     1      42.890   5.069  12.126  0.00  0.00    +0.000 A 
ATOM     17  C   UNL     1      44.009   5.359  12.886  0.00  0.00    +0.000 A 
ENDBRANCH   9  12
ENDBRANCH   7  10
ENDBRANCH   1   7
BRANCH   4  18
ATOM     18  C   UNL     1      51.814   9.508  11.455  0.00  0.00    +0.000 C 
BRANCH  18  19
ATOM     19  N   UNL     1      52.078   8.987  10.137  0.00  0.00    +0.000 N 
ATOM     20  C   UNL     1      53.341   8.610   9.736  0.00  0.00    +0.000 C 
ATOM     21  O   UNL     1      54.314   8.667  10.477  0.00  0.00    +0.000 OA
ATOM     22  H   UNL     1      51.420   9.260   9.414  0.00  0.00    +0.000 HD
BRANCH  20  23
ATOM     23  C   UNL     1      53.439   8.076   8.367  0.00  0.00    +0.000 A 
ATOM     24  C   UNL     1      53.365   8.929   7.272  0.00  0.00    +0.000 A 
ATOM     25  S   UNL     1      53.533   8.126   5.773  0.00  0.00    +0.000 S 
ATOM     26  C   UNL     1      53.664   6.610   6.530  0.00  0.00    +0.000 A 
ATOM     27  N   UNL     1      53.798   5.464   5.805  0.00  0.00    +0.000 NA
ATOM     28  C   UNL     1      53.867   4.388   6.515  0.00  0.00    +0.000 A 
ATOM     29  N   UNL     1      53.825   4.350   7.884  0.00  0.00    +0.000 N 
ATOM     30  C   UNL     1      53.730   5.481   8.655  0.00  0.00    +0.000 A 
ATOM     31  O   UNL     1      53.758   5.416   9.880  0.00  0.00    +0.000 OA
ATOM     32  C   UNL     1      53.616   6.717   7.910  0.00  0.00    +0.000 A 
ATOM     33  H   UNL     1      53.906   3.478   8.385  0.00  0.00    +0.000 HD
ENDBRANCH  20  23
ENDBRANCH  18  19
ENDBRANCH   4  18
TORSDOF 6
ENDMDL
MODEL 6
REMARK VINA RESULT:    -6.671      5.190      9.945
REMARK INTER + INTRA:          -9.747
REMARK INTER:                  -8.996
REMARK INTRA:                  -0.751
REMARK UNBOUND:                -0.736
REMARK  Name = 
REMARK  6 active torsions:
REMARK  status: ('A' for Active; 'I' for Inactive)
REMARK    1  A    between atoms: C_2  and  C_25
REMARK    2  A    between atoms: N_3  and  C_4
REMARK    3  A    between atoms: C_4  and  C_5
REMARK    4  A    between atoms: C_8  and  C_9
REMARK    5  A    between atoms: C_9  and  N_10
REMARK    6  A    between atoms: C_11  and  C_13
REMARK                            x       y       z     vdW  Elec       q    Type
REMARK                         _______ _______ _______ _____ _____    ______ ____
ROOT
ATOM      1  C   UNL     1      52.035   2.057  17.554  0.00  0.00    +0.000 A 
ATOM      2  C   UNL     1      52.277   3.327  18.095  0.00  0.00    +0.000 A 
ATOM      3  C   UNL     1      51.235   4.254  18.253  0.00  0.00    +0.000 A 
ATOM      4  C   UNL     1      49.921   3.926  17.887  0.00  0.00    +0.000 A 
ATOM      5  C   UNL     1      49.686   2.656  17.339  0.00  0.00    +0.000 A 
ATOM      6  C   UNL     1      50.725   1.728  17.187  0.00  0.00    +0.000 A 
ENDROOT
BRANCH   1   7
ATOM      7  C   UNL     1      53.168   1.081  17.363  0.00  0.00    +0.000 C 
BRANCH   7  10
ATOM      8  O   UNL     1      55.170  -0.821  17.698  0.00  0.00    +0.000 OA
ATOM      9  C   UNL     1      54.136  -0.934  18.349  0.00  0.00    +0.000 C 
ATOM     10  N   UNL     1      53.077  -0.056  18.252  0.00  0.00    +0.000 N 
ATOM     11  H   UNL     1      52.338  -0.068  18.942  0.00  0.00    +0.000 HD
BRANCH   9  12
ATOM     12  C   UNL     1      53.997  -2.043  19.326  0.00  0.00    +0.000 A 
ATOM     13  C   UNL     1      55.151  -2.566  19.909  0.00  0.00    +0.000 A 
ATOM     14  C   UNL     1      55.008  -3.606  20.808  0.00  0.00    +0.000 A 
ATOM     15  N   UNL     1      53.817  -4.150  21.139  0.00  0.00    +0.000 NA
ATOM     16  C   UNL     1      52.720  -3.641  20.538  0.00  0.00    +0.000 A 
ATOM     17  C   UNL     1      52.754  -2.595  19.632  0.00  0.00    +0.000 A 
ENDBRANCH   9  12
ENDBRANCH   7  10
ENDBRANCH   1   7
BRANCH   4  18
ATOM     18  C   UNL     1      48.771   4.895  18.060  0.00  0.00    +0.000 C 
BRANCH  18  19
ATOM     19  N   UNL     1      48.109   5.181  16.811  0.00  0.00    +0.000 N 
ATOM     20  C   UNL     1      48.721   5.895  15.803  0.00  0.00    +0.000 C 
ATOM     21  O   UNL     1      49.870   6.309  15.889  0.00  0.00    +0.000 OA
ATOM     22  H   UNL     1      47.096   5.188  16.839  0.00  0.00    +0.000 HD
BRANCH  20  23
ATOM     23  C   UNL     1      47.919   6.082  14.582  0.00  0.00    +0.000 A 
ATOM     24  C   UNL     1      47.811   7.337  13.996  0.00  0.00    +0.000 A 
ATOM     25  S   UNL     1      46.868   7.343  12.571  0.00  0.00    +0.000 S 
ATOM     26  C   UNL     1      46.534   5.683  12.712  0.00  0.00    +0.000 A 
ATOM     27  N   UNL     1      45.733   5.041  11.815  0.00  0.00    +0.000 NA
ATOM     28  C   UNL     1      45.555   3.786  12.060  0.00  0.00    +0.000 A 
ATOM     29  N   UNL     1      46.110   3.109  13.114  0.00  0.00    +0.000 N 
ATOM     30  C   UNL     1      46.951   3.705  14.019  0.00  0.00    +0.000 A 
ATOM     31  O   UNL     1      47.480   3.054  14.915  0.00  0.00    +0.000 OA
ATOM     32  C   UNL     1      47.162   5.122  13.812  0.00  0.00    +0.000 A 
ATOM     33  H   UNL     1      45.951   2.120  13.242  0.00  0.00    +0.000 HD
ENDBRANCH  20  23
ENDBRANCH  18  19
ENDBRANCH   4  18
TORSDOF 6
ENDMDL
MODEL 7
REMARK VINA RESULT:    -6.651      4.048      9.734
REMARK INTER + INTRA:          -9.721
REMARK INTER:                  -8.780
REMARK INTRA:                  -0.941
REMARK UNBOUND:                -0.736
REMARK  Name = 
REMARK  6 active torsions:
REMARK  status: ('A' for Active; 'I' for Inactive)
REMARK    1  A    between atoms: C_2  and  C_25
REMARK    2  A    between atoms: N_3  and  C_4
REMARK    3  A    between atoms: C_4  and  C_5
REMARK    4  A    between atoms: C_8  and  C_9
REMARK    5  A    between atoms: C_9  and  N_10
REMARK    6  A    between atoms: C_11  and  C_13
REMARK                            x       y       z     vdW  Elec       q    Type
REMARK                         _______ _______ _______ _____ _____    ______ ____
ROOT
ATOM      1  C   UNL     1      51.402   3.875  17.774  0.00  0.00    +0.000 A 
ATOM      2  C   UNL     1      50.882   2.627  17.404  0.00  0.00    +0.000 A 
ATOM      3  C   UNL     1      49.520   2.473  17.103  0.00  0.00    +0.000 A 
ATOM      4  C   UNL     1      48.647   3.571  17.149  0.00  0.00    +0.000 A 
ATOM      5  C   UNL     1      49.171   4.816  17.527  0.00  0.00    +0.000 A 
ATOM      6  C   UNL     1      50.532   4.971  17.822  0.00  0.00    +0.000 A 
ENDROOT
BRANCH   1   7
ATOM      7  C   UNL     1      52.861   4.020  18.123  0.00  0.00    +0.000 C 
BRANCH   7  10
ATOM      8  O   UNL     1      54.010   5.730  16.254  0.00  0.00    +0.000 OA
ATOM      9  C   UNL     1      53.789   6.156  17.382  0.00  0.00    +0.000 C 
ATOM     10  N   UNL     1      53.234   5.392  18.388  0.00  0.00    +0.000 N 
ATOM     11  H   UNL     1      52.887   5.830  19.231  0.00  0.00    +0.000 HD
BRANCH   9  12
ATOM     12  C   UNL     1      54.091   7.572  17.708  0.00  0.00    +0.000 A 
ATOM     13  C   UNL     1      53.034   8.417  18.049  0.00  0.00    +0.000 A 
ATOM     14  C   UNL     1      53.327   9.736  18.338  0.00  0.00    +0.000 A 
ATOM     15  N   UNL     1      54.575  10.251  18.295  0.00  0.00    +0.000 NA
ATOM     16  C   UNL     1      55.574   9.416  17.937  0.00  0.00    +0.000 A 
ATOM     17  C   UNL     1      55.388   8.078  17.636  0.00  0.00    +0.000 A 
ENDBRANCH   9  12
ENDBRANCH   7  10
ENDBRANCH   1   7
BRANCH   4  18
ATOM     18  C   UNL     1      47.176   3.444  16.813  0.00  0.00    +0.000 C 
BRANCH  18  19
ATOM     19  N   UNL     1      46.759   4.405  15.823  0.00  0.00    +0.000 N 
ATOM     20  C   UNL     1      46.804   4.134  14.472  0.00  0.00    +0.000 C 
ATOM     21  O   UNL     1      47.174   3.056  14.027  0.00  0.00    +0.000 OA
ATOM     22  H   UNL     1      46.803   5.379  16.106  0.00  0.00    +0.000 HD
BRANCH  20  23
ATOM     23  C   UNL     1      46.321   5.213  13.593  0.00  0.00    +0.000 A 
ATOM     24  C   UNL     1      47.107   6.334  13.358  0.00  0.00    +0.000 A 
ATOM     25  S   UNL     1      46.390   7.455  12.286  0.00  0.00    +0.000 S 
ATOM     26  C   UNL     1      44.989   6.505  12.135  0.00  0.00    +0.000 A 
ATOM     27  N   UNL     1      43.936   6.911  11.370  0.00  0.00    +0.000 NA
ATOM     28  C   UNL     1      42.934   6.096  11.365  0.00  0.00    +0.000 A 
ATOM     29  N   UNL     1      42.890   4.907  12.045  0.00  0.00    +0.000 N 
ATOM     30  C   UNL     1      43.940   4.441  12.795  0.00  0.00    +0.000 A 
ATOM     31  O   UNL     1      43.890   3.343  13.341  0.00  0.00    +0.000 OA
ATOM     32  C   UNL     1      45.080   5.331  12.864  0.00  0.00    +0.000 A 
ATOM     33  H   UNL     1      42.085   4.300  11.985  0.00  0.00    +0.000 HD
ENDBRANCH  20  23
ENDBRANCH  18  19
ENDBRANCH   4  18
TORSDOF 6
ENDMDL
MODEL 8
REMARK VINA RESULT:    -6.635      5.984      8.481
REMARK INTER + INTRA:          -9.699
REMARK INTER:                  -8.674
REMARK INTRA:                  -1.025
REMARK UNBOUND:                -0.736
REMARK  Name = 
REMARK  6 active torsions:
REMARK  status: ('A' for Active; 'I' for Inactive)
REMARK    1  A    between atoms: C_2  and  C_25
REMARK    2  A    between atoms: N_3  and  C_4
REMARK    3  A    between atoms: C_4  and  C_5
REMARK    4  A    between atoms: C_8  and  C_9
REMARK    5  A    between atoms: C_9  and  N_10
REMARK    6  A    between atoms: C_11  and  C_13
REMARK                            x       y       z     vdW  Elec       q    Type
REMARK                         _______ _______ _______ _____ _____    ______ ____
ROOT
ATOM      1  C   UNL     1      48.779   3.404  17.108  0.00  0.00    +0.000 A 
ATOM      2  C   UNL     1      49.581   4.422  17.642  0.00  0.00    +0.000 A 
ATOM      3  C   UNL     1      50.930   4.190  17.952  0.00  0.00    +0.000 A 
ATOM      4  C   UNL     1      51.514   2.936  17.718  0.00  0.00    +0.000 A 
ATOM      5  C   UNL     1      50.705   1.918  17.191  0.00  0.00    +0.000 A 
ATOM      6  C   UNL     1      49.359   2.152  16.877  0.00  0.00    +0.000 A 
ENDROOT
BRANCH   1   7
ATOM      7  C   UNL     1      47.323   3.658  16.808  0.00  0.00    +0.000 C 
BRANCH   7  10
ATOM      8  O   UNL     1      47.162   3.217  14.066  0.00  0.00    +0.000 OA
ATOM      9  C   UNL     1      47.058   4.365  14.484  0.00  0.00    +0.000 C 
ATOM     10  N   UNL     1      47.135   4.698  15.821  0.00  0.00    +0.000 N 
ATOM     11  H   UNL     1      46.847   5.614  16.137  0.00  0.00    +0.000 HD
BRANCH   9  12
ATOM     12  C   UNL     1      46.803   5.476  13.533  0.00  0.00    +0.000 A 
ATOM     13  C   UNL     1      47.878   6.269  13.130  0.00  0.00    +0.000 A 
ATOM     14  C   UNL     1      47.624   7.308  12.254  0.00  0.00    +0.000 A 
ATOM     15  N   UNL     1      46.394   7.602  11.781  0.00  0.00    +0.000 NA
ATOM     16  C   UNL     1      45.369   6.834  12.210  0.00  0.00    +0.000 A 
ATOM     17  C   UNL     1      45.518   5.767  13.078  0.00  0.00    +0.000 A 
ENDBRANCH   9  12
ENDBRANCH   7  10
ENDBRANCH   1   7
BRANCH   4  18
ATOM     18  C   UNL     1      52.970   2.656  18.025  0.00  0.00    +0.000 C 
BRANCH  18  19
ATOM     19  N   UNL     1      53.297   1.259  17.880  0.00  0.00    +0.000 N 
ATOM     20  C   UNL     1      54.310   0.664  18.602  0.00  0.00    +0.000 C 
ATOM     21  O   UNL     1      54.978   1.272  19.427  0.00  0.00    +0.000 OA
ATOM     22  H   UNL     1      53.042   0.835  16.995  0.00  0.00    +0.000 HD
BRANCH  20  23
ATOM     23  C   UNL     1      54.502  -0.775  18.356  0.00  0.00    +0.000 A 
ATOM     24  C   UNL     1      54.243  -1.701  19.358  0.00  0.00    +0.000 A 
ATOM     25  S   UNL     1      54.492  -3.320  18.870  0.00  0.00    +0.000 S 
ATOM     26  C   UNL     1      54.998  -2.838  17.321  0.00  0.00    +0.000 A 
ATOM     27  N   UNL     1      55.398  -3.749  16.390  0.00  0.00    +0.000 NA
ATOM     28  C   UNL     1      55.772  -3.236  15.266  0.00  0.00    +0.000 A 
ATOM     29  N   UNL     1      55.775  -1.896  14.981  0.00  0.00    +0.000 N 
ATOM     30  C   UNL     1      55.346  -0.946  15.874  0.00  0.00    +0.000 A 
ATOM     31  O   UNL     1      55.304   0.240  15.564  0.00  0.00    +0.000 OA
ATOM     32  C   UNL     1      54.944  -1.463  17.165  0.00  0.00    +0.000 A 
ATOM     33  H   UNL     1      56.059  -1.555  14.074  0.00  0.00    +0.000 HD
ENDBRANCH  20  23
ENDBRANCH  18  19
ENDBRANCH   4  18
TORSDOF 6
ENDMDL
MODEL 9
REMARK VINA RESULT:    -6.383      2.102      3.087
REMARK INTER + INTRA:          -9.359
REMARK INTER:                  -8.239
REMARK INTRA:                  -1.120
REMARK UNBOUND:                -0.736
REMARK  Name = 
REMARK  6 active torsions:
REMARK  status: ('A' for Active; 'I' for Inactive)
REMARK    1  A    between atoms: C_2  and  C_25
REMARK    2  A    between atoms: N_3  and  C_4
REMARK    3  A    between atoms: C_4  and  C_5
REMARK    4  A    between atoms: C_8  and  C_9
REMARK    5  A    between atoms: C_9  and  N_10
REMARK    6  A    between atoms: C_11  and  C_13
REMARK                            x       y       z     vdW  Elec       q    Type
REMARK                         _______ _______ _______ _____ _____    ______ ____
ROOT
ATOM      1  C   UNL     1      46.549   7.830  12.255  0.00  0.00    +0.000 A 
ATOM      2  C   UNL     1      46.638   8.529  13.467  0.00  0.00    +0.000 A 
ATOM      3  C   UNL     1      47.883   8.792  14.059  0.00  0.00    +0.000 A 
ATOM      4  C   UNL     1      49.073   8.374  13.442  0.00  0.00    +0.000 A 
ATOM      5  C   UNL     1      48.977   7.669  12.233  0.00  0.00    +0.000 A 
ATOM      6  C   UNL     1      47.734   7.412  11.640  0.00  0.00    +0.000 A 
ENDROOT
BRANCH   1   7
ATOM      7  C   UNL     1      45.203   7.530  11.646  0.00  0.00    +0.000 C 
BRANCH   7  10
ATOM      8  O   UNL     1      44.686   4.844  12.151  0.00  0.00    +0.000 OA
ATOM      9  C   UNL     1      44.980   5.182  11.009  0.00  0.00    +0.000 C 
ATOM     10  N   UNL     1      45.266   6.483  10.651  0.00  0.00    +0.000 N 
ATOM     11  H   UNL     1      45.305   6.749   9.676  0.00  0.00    +0.000 HD
BRANCH   9  12
ATOM     12  C   UNL     1      45.005   4.170   9.924  0.00  0.00    +0.000 A 
ATOM     13  C   UNL     1      44.511   2.893  10.192  0.00  0.00    +0.000 A 
ATOM     14  C   UNL     1      44.551   1.956   9.177  0.00  0.00    +0.000 A 
ATOM     15  N   UNL     1      45.053   2.207   7.948  0.00  0.00    +0.000 NA
ATOM     16  C   UNL     1      45.549   3.443   7.726  0.00  0.00    +0.000 A 
ATOM     17  C   UNL     1      45.548   4.454   8.672  0.00  0.00    +0.000 A 
ENDBRANCH   9  12
ENDBRANCH   7  10
ENDBRANCH   1   7
BRANCH   4  18
ATOM     18  C   UNL     1      50.433   8.655  14.044  0.00  0.00    +0.000 C 
BRANCH  18  19
ATOM     19  N   UNL     1      50.923   7.545  14.822  0.00  0.00    +0.000 N 
ATOM     20  C   UNL     1      51.126   7.636  16.183  0.00  0.00    +0.000 C 
ATOM     21  O   UNL     1      50.880   8.650  16.822  0.00  0.00    +0.000 OA
ATOM     22  H   UNL     1      51.464   6.853  14.315  0.00  0.00    +0.000 HD
BRANCH  20  23
ATOM     23  C   UNL     1      51.608   6.406  16.835  0.00  0.00    +0.000 A 
ATOM     24  C   UNL     1      52.917   6.318  17.290  0.00  0.00    +0.000 A 
ATOM     25  S   UNL     1      53.275   4.828  18.047  0.00  0.00    +0.000 S 
ATOM     26  C   UNL     1      51.710   4.234  17.753  0.00  0.00    +0.000 A 
ATOM     27  N   UNL     1      51.349   2.973  18.125  0.00  0.00    +0.000 NA
ATOM     28  C   UNL     1      50.135   2.654  17.820  0.00  0.00    +0.000 A 
ATOM     29  N   UNL     1      49.245   3.481  17.187  0.00  0.00    +0.000 N 
ATOM     30  C   UNL     1      49.553   4.769  16.829  0.00  0.00    +0.000 A 
ATOM     31  O   UNL     1      48.711   5.503  16.320  0.00  0.00    +0.000 OA
ATOM     32  C   UNL     1      50.913   5.171  17.118  0.00  0.00    +0.000 A 
ATOM     33  H   UNL     1      48.300   3.182  16.995  0.00  0.00    +0.000 HD
ENDBRANCH  20  23
ENDBRANCH  18  19
ENDBRANCH   4  18
TORSDOF 6
ENDMDL
