MODEL 1
REMARK VINA RESULT:    -8.814      0.000      0.000
REMARK INTER + INTRA:         -12.364
REMARK INTER:                 -11.390
REMARK INTRA:                  -0.974
REMARK UNBOUND:                -0.974
REMARK  Name = 
REMARK  6 active torsions:
REMARK  status: ('A' for Active; 'I' for Inactive)
REMARK    1  A    between atoms: C_1  and  C_2
REMARK    2  A    between atoms: C_2  and  N_3
REMARK    3  A    between atoms: C_2  and  C_16
REMARK    4  A    between atoms: C_4  and  C_6
REMARK    5  A    between atoms: C_19  and  O_20
REMARK    6  A    between atoms: O_20  and  C_21
REMARK                            x       y       z     vdW  Elec       q    Type
REMARK                         _______ _______ _______ _____ _____    ______ ____
ROOT
ATOM      1  C   UNL     1      45.292   8.292  12.876  0.00  0.00    +0.000 C 
ATOM      2  C   UNL     1      46.446   7.301  12.703  0.00  0.00    +0.000 C 
ENDROOT
BRANCH   2   3
ATOM      3  C   UNL     1      46.019   6.183  11.764  0.00  0.00    +0.000 A 
ATOM      4  C   UNL     1      46.215   6.364  10.386  0.00  0.00    +0.000 A 
ATOM      5  C   UNL     1      45.771   5.416   9.464  0.00  0.00    +0.000 A 
ATOM      6  C   UNL     1      45.188   4.228   9.903  0.00  0.00    +0.000 A 
ATOM      7  C   UNL     1      44.961   4.043  11.265  0.00  0.00    +0.000 A 
ATOM      8  C   UNL     1      45.360   5.016  12.189  0.00  0.00    +0.000 A 
BRANCH   6   9
ATOM      9  O   UNL     1      44.743   3.223   9.071  0.00  0.00    +0.000 OA
BRANCH   9  10
ATOM     10  C   UNL     1      45.604   2.642   8.169  0.00  0.00    +0.000 A 
ATOM     11  C   UNL     1      46.106   1.343   8.288  0.00  0.00    +0.000 A 
ATOM     12  C   UNL     1      47.003   0.848   7.340  0.00  0.00    +0.000 A 
ATOM     13  C   UNL     1      47.348   1.625   6.236  0.00  0.00    +0.000 A 
ATOM     14  C   UNL     1      46.794   2.894   6.076  0.00  0.00    +0.000 A 
ATOM     15  C   UNL     1      45.925   3.404   7.042  0.00  0.00    +0.000 A 
ENDBRANCH   9  10
ENDBRANCH   6   9
ENDBRANCH   2   3
BRANCH   2  16
ATOM     16  N   UNL     1      46.925   6.829  13.988  0.00  0.00    +0.000 N 
ATOM     17  C   UNL     1      48.251   6.569  14.224  0.00  0.00    +0.000 C 
ATOM     18  O   UNL     1      49.102   6.664  13.343  0.00  0.00    +0.000 OA
ATOM     19  H   UNL     1      46.250   6.675  14.727  0.00  0.00    +0.000 HD
BRANCH  17  20
ATOM     20  C   UNL     1      48.621   6.220  15.603  0.00  0.00    +0.000 A 
ATOM     21  C   UNL     1      49.474   7.054  16.313  0.00  0.00    +0.000 A 
ATOM     22  S   UNL     1      49.791   6.519  17.901  0.00  0.00    +0.000 S 
ATOM     23  C   UNL     1      48.837   5.129  17.681  0.00  0.00    +0.000 A 
ATOM     24  N   UNL     1      48.711   4.205  18.672  0.00  0.00    +0.000 NA
ATOM     25  C   UNL     1      47.994   3.178  18.354  0.00  0.00    +0.000 A 
ATOM     26  N   UNL     1      47.381   2.999  17.144  0.00  0.00    +0.000 N 
ATOM     27  C   UNL     1      47.415   3.941  16.145  0.00  0.00    +0.000 A 
ATOM     28  O   UNL     1      46.737   3.812  15.133  0.00  0.00    +0.000 OA
ATOM     29  C   UNL     1      48.256   5.089  16.425  0.00  0.00    +0.000 A 
ATOM     30  H   UNL     1      46.806   2.186  16.970  0.00  0.00    +0.000 HD
ENDBRANCH  17  20
ENDBRANCH   2  16
TORSDOF 5
ENDMDL
MODEL 2
REMARK VINA RESULT:    -8.021      1.469      2.234
REMARK INTER + INTRA:         -11.340
REMARK INTER:                 -10.406
REMARK INTRA:                  -0.934
REMARK UNBOUND:                -0.974
REMARK  Name = 
REMARK  6 active torsions:
REMARK  status: ('A' for Active; 'I' for Inactive)
REMARK    1  A    between atoms: C_1  and  C_2
REMARK    2  A    between atoms: C_2  and  N_3
REMARK    3  A    between atoms: C_2  and  C_16
REMARK    4  A    between atoms: C_4  and  C_6
REMARK    5  A    between atoms: C_19  and  O_20
REMARK    6  A    between atoms: O_20  and  C_21
REMARK                            x       y       z     vdW  Elec       q    Type
REMARK                         _______ _______ _______ _____ _____    ______ ____
ROOT
ATOM      1  C   UNL     1      45.794   8.013  13.214  0.00  0.00    +0.000 C 
ATOM      2  C   UNL     1      46.659   6.766  13.013  0.00  0.00    +0.000 C 
ENDROOT
BRANCH   2   3
ATOM      3  C   UNL     1      46.095   5.935  11.870  0.00  0.00    +0.000 A 
ATOM      4  C   UNL     1      45.524   4.690  12.175  0.00  0.00    +0.000 A 
ATOM      5  C   UNL     1      45.064   3.840  11.168  0.00  0.00    +0.000 A 
ATOM      6  C   UNL     1      45.096   4.250   9.836  0.00  0.00    +0.000 A 
ATOM      7  C   UNL     1      45.684   5.470   9.511  0.00  0.00    +0.000 A 
ATOM      8  C   UNL     1      46.193   6.301  10.516  0.00  0.00    +0.000 A 
BRANCH   6   9
ATOM      9  O   UNL     1      44.643   3.493   8.777  0.00  0.00    +0.000 OA
BRANCH   9  10
ATOM     10  C   UNL     1      45.530   2.766   8.017  0.00  0.00    +0.000 A 
ATOM     11  C   UNL     1      45.954   1.472   8.331  0.00  0.00    +0.000 A 
ATOM     12  C   UNL     1      46.885   0.823   7.519  0.00  0.00    +0.000 A 
ATOM     13  C   UNL     1      47.343   1.438   6.356  0.00  0.00    +0.000 A 
ATOM     14  C   UNL     1      46.869   2.700   6.002  0.00  0.00    +0.000 A 
ATOM     15  C   UNL     1      45.964   3.365   6.832  0.00  0.00    +0.000 A 
ENDBRANCH   9  10
ENDBRANCH   6   9
ENDBRANCH   2   3
BRANCH   2  16
ATOM     16  N   UNL     1      46.802   6.026  14.252  0.00  0.00    +0.000 N 
ATOM     17  C   UNL     1      48.019   5.849  14.861  0.00  0.00    +0.000 C 
ATOM     18  O   UNL     1      49.064   6.257  14.363  0.00  0.00    +0.000 OA
ATOM     19  H   UNL     1      45.975   5.617  14.668  0.00  0.00    +0.000 HD
BRANCH  17  20
ATOM     20  C   UNL     1      48.010   5.193  16.176  0.00  0.00    +0.000 A 
ATOM     21  C   UNL     1      47.687   3.846  16.266  0.00  0.00    +0.000 A 
ATOM     22  S   UNL     1      47.738   3.232  17.856  0.00  0.00    +0.000 S 
ATOM     23  C   UNL     1      48.147   4.757  18.488  0.00  0.00    +0.000 A 
ATOM     24  N   UNL     1      48.307   4.936  19.828  0.00  0.00    +0.000 NA
ATOM     25  C   UNL     1      48.573   6.152  20.174  0.00  0.00    +0.000 A 
ATOM     26  N   UNL     1      48.707   7.200  19.303  0.00  0.00    +0.000 N 
ATOM     27  C   UNL     1      48.633   7.049  17.940  0.00  0.00    +0.000 A 
ATOM     28  O   UNL     1      48.901   7.977  17.187  0.00  0.00    +0.000 OA
ATOM     29  C   UNL     1      48.277   5.714  17.497  0.00  0.00    +0.000 A 
ATOM     30  H   UNL     1      48.948   8.123  19.637  0.00  0.00    +0.000 HD
ENDBRANCH  17  20
ENDBRANCH   2  16
TORSDOF 5
ENDMDL
MODEL 3
REMARK VINA RESULT:    -7.804      2.632      3.915
REMARK INTER + INTRA:         -11.059
REMARK INTER:                  -9.902
REMARK INTRA:                  -1.157
REMARK UNBOUND:                -0.974
REMARK  Name = 
REMARK  6 active torsions:
REMARK  status: ('A' for Active; 'I' for Inactive)
REMARK    1  A    between atoms: C_1  and  C_2
REMARK    2  A    between atoms: C_2  and  N_3
REMARK    3  A    between atoms: C_2  and  C_16
REMARK    4  A    between atoms: C_4  and  C_6
REMARK    5  A    between atoms: C_19  and  O_20
REMARK    6  A    between atoms: O_20  and  C_21
REMARK                            x       y       z     vdW  Elec       q    Type
REMARK                         _______ _______ _______ _____ _____    ______ ____
ROOT
ATOM      1  C   UNL     1      46.682   4.756  14.662  0.00  0.00    +0.000 C 
ATOM      2  C   UNL     1      46.413   5.868  13.645  0.00  0.00    +0.000 C 
ENDROOT
BRANCH   2   3
ATOM      3  C   UNL     1      45.903   5.258  12.347  0.00  0.00    +0.000 A 
ATOM      4  C   UNL     1      45.347   3.970  12.394  0.00  0.00    +0.000 A 
ATOM      5  C   UNL     1      44.938   3.318  11.231  0.00  0.00    +0.000 A 
ATOM      6  C   UNL     1      45.005   3.970  10.000  0.00  0.00    +0.000 A 
ATOM      7  C   UNL     1      45.579   5.238   9.930  0.00  0.00    +0.000 A 
ATOM      8  C   UNL     1      46.038   5.873  11.091  0.00  0.00    +0.000 A 
BRANCH   6   9
ATOM      9  O   UNL     1      44.602   3.420   8.802  0.00  0.00    +0.000 OA
BRANCH   9  10
ATOM     10  C   UNL     1      45.526   2.842   7.962  0.00  0.00    +0.000 A 
ATOM     11  C   UNL     1      46.058   3.468   6.832  0.00  0.00    +0.000 A 
ATOM     12  C   UNL     1      46.966   2.791   6.017  0.00  0.00    +0.000 A 
ATOM     13  C   UNL     1      47.395   1.512   6.365  0.00  0.00    +0.000 A 
ATOM     14  C   UNL     1      46.921   0.911   7.530  0.00  0.00    +0.000 A 
ATOM     15  C   UNL     1      45.985   1.574   8.327  0.00  0.00    +0.000 A 
ENDBRANCH   9  10
ENDBRANCH   6   9
ENDBRANCH   2   3
BRANCH   2  16
ATOM     16  N   UNL     1      47.581   6.709  13.471  0.00  0.00    +0.000 N 
ATOM     17  C   UNL     1      47.514   8.077  13.541  0.00  0.00    +0.000 C 
ATOM     18  O   UNL     1      46.451   8.672  13.698  0.00  0.00    +0.000 OA
ATOM     19  H   UNL     1      48.470   6.265  13.277  0.00  0.00    +0.000 HD
BRANCH  17  20
ATOM     20  C   UNL     1      48.789   8.805  13.476  0.00  0.00    +0.000 A 
ATOM     21  C   UNL     1      48.870   9.979  12.740  0.00  0.00    +0.000 A 
ATOM     22  S   UNL     1      50.410  10.710  12.779  0.00  0.00    +0.000 S 
ATOM     23  C   UNL     1      51.038   9.458  13.743  0.00  0.00    +0.000 A 
ATOM     24  N   UNL     1      52.347   9.455  14.116  0.00  0.00    +0.000 NA
ATOM     25  C   UNL     1      52.701   8.422  14.809  0.00  0.00    +0.000 A 
ATOM     26  N   UNL     1      51.862   7.404  15.174  0.00  0.00    +0.000 N 
ATOM     27  C   UNL     1      50.519   7.406  14.889  0.00  0.00    +0.000 A 
ATOM     28  O   UNL     1      49.774   6.553  15.355  0.00  0.00    +0.000 OA
ATOM     29  C   UNL     1      50.078   8.513  14.060  0.00  0.00    +0.000 A 
ATOM     30  H   UNL     1      52.195   6.640  15.746  0.00  0.00    +0.000 HD
ENDBRANCH  17  20
ENDBRANCH   2  16
TORSDOF 5
ENDMDL
MODEL 4
REMARK VINA RESULT:    -7.425      1.660      2.387
REMARK INTER + INTRA:         -10.569
REMARK INTER:                  -9.507
REMARK INTRA:                  -1.062
REMARK UNBOUND:                -0.974
REMARK  Name = 
REMARK  6 active torsions:
REMARK  status: ('A' for Active; 'I' for Inactive)
REMARK    1  A    between atoms: C_1  and  C_2
REMARK    2  A    between atoms: C_2  and  N_3
REMARK    3  A    between atoms: C_2  and  C_16
REMARK    4  A    between atoms: C_4  and  C_6
REMARK    5  A    between atoms: C_19  and  O_20
REMARK    6  A    between atoms: O_20  and  C_21
REMARK                            x       y       z     vdW  Elec       q    Type
REMARK                         _______ _______ _______ _____ _____    ______ ____
ROOT
ATOM      1  C   UNL     1      47.887   9.447  13.550  0.00  0.00    +0.000 C 
ATOM      2  C   UNL     1      48.064   7.955  13.842  0.00  0.00    +0.000 C 
ENDROOT
BRANCH   2   3
ATOM      3  C   UNL     1      47.062   7.155  13.023  0.00  0.00    +0.000 A 
ATOM      4  C   UNL     1      47.006   5.766  13.219  0.00  0.00    +0.000 A 
ATOM      5  C   UNL     1      46.171   4.961  12.443  0.00  0.00    +0.000 A 
ATOM      6  C   UNL     1      45.317   5.536  11.503  0.00  0.00    +0.000 A 
ATOM      7  C   UNL     1      45.379   6.909  11.275  0.00  0.00    +0.000 A 
ATOM      8  C   UNL     1      46.253   7.712  12.018  0.00  0.00    +0.000 A 
BRANCH   6   9
ATOM      9  O   UNL     1      44.440   4.828  10.709  0.00  0.00    +0.000 OA
BRANCH   9  10
ATOM     10  C   UNL     1      44.919   3.955   9.760  0.00  0.00    +0.000 A 
ATOM     11  C   UNL     1      44.719   2.572   9.795  0.00  0.00    +0.000 A 
ATOM     12  C   UNL     1      45.272   1.758   8.805  0.00  0.00    +0.000 A 
ATOM     13  C   UNL     1      45.970   2.330   7.743  0.00  0.00    +0.000 A 
ATOM     14  C   UNL     1      46.112   3.715   7.667  0.00  0.00    +0.000 A 
ATOM     15  C   UNL     1      45.589   4.527   8.676  0.00  0.00    +0.000 A 
ENDBRANCH   9  10
ENDBRANCH   6   9
ENDBRANCH   2   3
BRANCH   2  16
ATOM     16  N   UNL     1      47.991   7.692  15.267  0.00  0.00    +0.000 N 
ATOM     17  C   UNL     1      49.024   7.108  15.956  0.00  0.00    +0.000 C 
ATOM     18  O   UNL     1      50.047   6.723  15.396  0.00  0.00    +0.000 OA
ATOM     19  H   UNL     1      47.141   7.935  15.759  0.00  0.00    +0.000 HD
BRANCH  17  20
ATOM     20  C   UNL     1      48.874   7.014  17.415  0.00  0.00    +0.000 A 
ATOM     21  C   UNL     1      48.763   8.176  18.167  0.00  0.00    +0.000 A 
ATOM     22  S   UNL     1      48.579   7.896  19.839  0.00  0.00    +0.000 S 
ATOM     23  C   UNL     1      48.690   6.213  19.623  0.00  0.00    +0.000 A 
ATOM     24  N   UNL     1      48.642   5.369  20.690  0.00  0.00    +0.000 NA
ATOM     25  C   UNL     1      48.783   4.120  20.387  0.00  0.00    +0.000 A 
ATOM     26  N   UNL     1      48.952   3.640  19.117  0.00  0.00    +0.000 N 
ATOM     27  C   UNL     1      48.926   4.447  18.006  0.00  0.00    +0.000 A 
ATOM     28  O   UNL     1      48.935   3.968  16.878  0.00  0.00    +0.000 OA
ATOM     29  C   UNL     1      48.831   5.866  18.291  0.00  0.00    +0.000 A 
ATOM     30  H   UNL     1      49.024   2.647  18.944  0.00  0.00    +0.000 HD
ENDBRANCH  17  20
ENDBRANCH   2  16
TORSDOF 5
ENDMDL
MODEL 5
REMARK VINA RESULT:    -7.393      2.593      3.568
REMARK INTER + INTRA:         -10.528
REMARK INTER:                  -9.414
REMARK INTRA:                  -1.114
REMARK UNBOUND:                -0.974
REMARK  Name = 
REMARK  6 active torsions:
REMARK  status: ('A' for Active; 'I' for Inactive)
REMARK    1  A    between atoms: C_1  and  C_2
REMARK    2  A    between atoms: C_2  and  N_3
REMARK    3  A    between atoms: C_2  and  C_16
REMARK    4  A    between atoms: C_4  and  C_6
REMARK    5  A    between atoms: C_19  and  O_20
REMARK    6  A    between atoms: O_20  and  C_21
REMARK                            x       y       z     vdW  Elec       q    Type
REMARK                         _______ _______ _______ _____ _____    ______ ____
ROOT
ATOM      1  C   UNL     1      48.930   8.470  13.925  0.00  0.00    +0.000 C 
ATOM      2  C   UNL     1      48.601   7.027  14.313  0.00  0.00    +0.000 C 
ENDROOT
BRANCH   2   3
ATOM      3  C   UNL     1      47.529   6.481  13.382  0.00  0.00    +0.000 A 
ATOM      4  C   UNL     1      46.976   5.224  13.672  0.00  0.00    +0.000 A 
ATOM      5  C   UNL     1      46.051   4.627  12.816  0.00  0.00    +0.000 A 
ATOM      6  C   UNL     1      45.599   5.308  11.686  0.00  0.00    +0.000 A 
ATOM      7  C   UNL     1      46.156   6.545  11.367  0.00  0.00    +0.000 A 
ATOM      8  C   UNL     1      47.123   7.122  12.199  0.00  0.00    +0.000 A 
BRANCH   6   9
ATOM      9  O   UNL     1      44.670   4.814  10.796  0.00  0.00    +0.000 OA
BRANCH   9  10
ATOM     10  C   UNL     1      45.062   3.960   9.791  0.00  0.00    +0.000 A 
ATOM     11  C   UNL     1      44.856   2.578   9.810  0.00  0.00    +0.000 A 
ATOM     12  C   UNL     1      45.319   1.785   8.760  0.00  0.00    +0.000 A 
ATOM     13  C   UNL     1      45.931   2.378   7.657  0.00  0.00    +0.000 A 
ATOM     14  C   UNL     1      46.075   3.763   7.601  0.00  0.00    +0.000 A 
ATOM     15  C   UNL     1      45.644   4.554   8.668  0.00  0.00    +0.000 A 
ENDBRANCH   9  10
ENDBRANCH   6   9
ENDBRANCH   2   3
BRANCH   2  16
ATOM     16  N   UNL     1      48.253   6.931  15.718  0.00  0.00    +0.000 N 
ATOM     17  C   UNL     1      49.058   6.297  16.630  0.00  0.00    +0.000 C 
ATOM     18  O   UNL     1      50.092   5.723  16.300  0.00  0.00    +0.000 OA
ATOM     19  H   UNL     1      47.377   7.336  16.026  0.00  0.00    +0.000 HD
BRANCH  17  20
ATOM     20  C   UNL     1      48.654   6.383  18.040  0.00  0.00    +0.000 A 
ATOM     21  C   UNL     1      48.708   5.248  18.837  0.00  0.00    +0.000 A 
ATOM     22  S   UNL     1      48.223   5.518  20.450  0.00  0.00    +0.000 S 
ATOM     23  C   UNL     1      47.878   7.151  20.129  0.00  0.00    +0.000 A 
ATOM     24  N   UNL     1      47.380   7.963  21.101  0.00  0.00    +0.000 NA
ATOM     25  C   UNL     1      47.121   9.167  20.709  0.00  0.00    +0.000 A 
ATOM     26  N   UNL     1      47.330   9.635  19.440  0.00  0.00    +0.000 N 
ATOM     27  C   UNL     1      47.906   8.876  18.451  0.00  0.00    +0.000 A 
ATOM     28  O   UNL     1      48.210   9.371  17.372  0.00  0.00    +0.000 OA
ATOM     29  C   UNL     1      48.161   7.496  18.819  0.00  0.00    +0.000 A 
ATOM     30  H   UNL     1      47.138  10.600  19.206  0.00  0.00    +0.000 HD
ENDBRANCH  17  20
ENDBRANCH   2  16
TORSDOF 5
ENDMDL
MODEL 6
REMARK VINA RESULT:    -7.086      3.558      8.224
REMARK INTER + INTRA:         -10.131
REMARK INTER:                  -9.018
REMARK INTRA:                  -1.113
REMARK UNBOUND:                -0.974
REMARK  Name = 
REMARK  6 active torsions:
REMARK  status: ('A' for Active; 'I' for Inactive)
REMARK    1  A    between atoms: C_1  and  C_2
REMARK    2  A    between atoms: C_2  and  N_3
REMARK    3  A    between atoms: C_2  and  C_16
REMARK    4  A    between atoms: C_4  and  C_6
REMARK    5  A    between atoms: C_19  and  O_20
REMARK    6  A    between atoms: O_20  and  C_21
REMARK                            x       y       z     vdW  Elec       q    Type
REMARK                         _______ _______ _______ _____ _____    ______ ____
ROOT
ATOM      1  C   UNL     1      49.052   7.924  12.606  0.00  0.00    +0.000 C 
ATOM      2  C   UNL     1      48.004   7.228  13.479  0.00  0.00    +0.000 C 
ENDROOT
BRANCH   2   3
ATOM      3  C   UNL     1      48.677   6.638  14.709  0.00  0.00    +0.000 A 
ATOM      4  C   UNL     1      47.971   5.684  15.457  0.00  0.00    +0.000 A 
ATOM      5  C   UNL     1      48.493   5.164  16.642  0.00  0.00    +0.000 A 
ATOM      6  C   UNL     1      49.770   5.531  17.066  0.00  0.00    +0.000 A 
ATOM      7  C   UNL     1      50.474   6.497  16.351  0.00  0.00    +0.000 A 
ATOM      8  C   UNL     1      49.929   7.058  15.190  0.00  0.00    +0.000 A 
BRANCH   6   9
ATOM      9  O   UNL     1      50.380   5.053  18.206  0.00  0.00    +0.000 OA
BRANCH   9  10
ATOM     10  C   UNL     1      51.182   3.937  18.143  0.00  0.00    +0.000 A 
ATOM     11  C   UNL     1      50.835   2.758  17.477  0.00  0.00    +0.000 A 
ATOM     12  C   UNL     1      51.698   1.662  17.496  0.00  0.00    +0.000 A 
ATOM     13  C   UNL     1      52.939   1.763  18.122  0.00  0.00    +0.000 A 
ATOM     14  C   UNL     1      53.318   2.960  18.727  0.00  0.00    +0.000 A 
ATOM     15  C   UNL     1      52.441   4.046  18.740  0.00  0.00    +0.000 A 
ENDBRANCH   9  10
ENDBRANCH   6   9
ENDBRANCH   2   3
BRANCH   2  16
ATOM     16  N   UNL     1      47.247   6.259  12.710  0.00  0.00    +0.000 N 
ATOM     17  C   UNL     1      46.250   6.630  11.844  0.00  0.00    +0.000 C 
ATOM     18  O   UNL     1      45.901   7.800  11.712  0.00  0.00    +0.000 OA
ATOM     19  H   UNL     1      47.457   5.276  12.833  0.00  0.00    +0.000 HD
BRANCH  17  20
ATOM     20  C   UNL     1      45.649   5.562  11.032  0.00  0.00    +0.000 A 
ATOM     21  C   UNL     1      45.740   5.623   9.648  0.00  0.00    +0.000 A 
ATOM     22  S   UNL     1      45.009   4.302   8.853  0.00  0.00    +0.000 S 
ATOM     23  C   UNL     1      44.503   3.627  10.330  0.00  0.00    +0.000 A 
ATOM     24  N   UNL     1      43.775   2.477  10.357  0.00  0.00    +0.000 NA
ATOM     25  C   UNL     1      43.419   2.100  11.541  0.00  0.00    +0.000 A 
ATOM     26  N   UNL     1      43.737   2.759  12.697  0.00  0.00    +0.000 N 
ATOM     27  C   UNL     1      44.536   3.876  12.723  0.00  0.00    +0.000 A 
ATOM     28  O   UNL     1      44.918   4.354  13.784  0.00  0.00    +0.000 OA
ATOM     29  C   UNL     1      44.915   4.379  11.416  0.00  0.00    +0.000 A 
ATOM     30  H   UNL     1      43.455   2.393  13.596  0.00  0.00    +0.000 HD
ENDBRANCH  17  20
ENDBRANCH   2  16
TORSDOF 5
ENDMDL
MODEL 7
REMARK VINA RESULT:    -6.881      3.360      8.953
REMARK INTER + INTRA:          -9.867
REMARK INTER:                  -8.782
REMARK INTRA:                  -1.084
REMARK UNBOUND:                -0.974
REMARK  Name = 
REMARK  6 active torsions:
REMARK  status: ('A' for Active; 'I' for Inactive)
REMARK    1  A    between atoms: C_1  and  C_2
REMARK    2  A    between atoms: C_2  and  N_3
REMARK    3  A    between atoms: C_2  and  C_16
REMARK    4  A    between atoms: C_4  and  C_6
REMARK    5  A    between atoms: C_19  and  O_20
REMARK    6  A    between atoms: O_20  and  C_21
REMARK                            x       y       z     vdW  Elec       q    Type
REMARK                         _______ _______ _______ _____ _____    ______ ____
ROOT
ATOM      1  C   UNL     1      48.645   7.775  11.546  0.00  0.00    +0.000 C 
ATOM      2  C   UNL     1      47.497   7.652  12.551  0.00  0.00    +0.000 C 
ENDROOT
BRANCH   2   3
ATOM      3  C   UNL     1      48.043   7.784  13.965  0.00  0.00    +0.000 A 
ATOM      4  C   UNL     1      48.596   6.645  14.570  0.00  0.00    +0.000 A 
ATOM      5  C   UNL     1      49.039   6.673  15.893  0.00  0.00    +0.000 A 
ATOM      6  C   UNL     1      49.007   7.863  16.618  0.00  0.00    +0.000 A 
ATOM      7  C   UNL     1      48.437   8.997  16.044  0.00  0.00    +0.000 A 
ATOM      8  C   UNL     1      47.946   8.957  14.733  0.00  0.00    +0.000 A 
BRANCH   6   9
ATOM      9  O   UNL     1      49.445   7.996  17.919  0.00  0.00    +0.000 OA
BRANCH   9  10
ATOM     10  C   UNL     1      49.006   7.122  18.887  0.00  0.00    +0.000 A 
ATOM     11  C   UNL     1      47.665   6.952  19.241  0.00  0.00    +0.000 A 
ATOM     12  C   UNL     1      47.316   6.066  20.261  0.00  0.00    +0.000 A 
ATOM     13  C   UNL     1      48.299   5.299  20.884  0.00  0.00    +0.000 A 
ATOM     14  C   UNL     1      49.629   5.415  20.486  0.00  0.00    +0.000 A 
ATOM     15  C   UNL     1      49.984   6.327  19.490  0.00  0.00    +0.000 A 
ENDBRANCH   9  10
ENDBRANCH   6   9
ENDBRANCH   2   3
BRANCH   2  16
ATOM     16  N   UNL     1      46.740   6.435  12.332  0.00  0.00    +0.000 N 
ATOM     17  C   UNL     1      45.458   6.448  11.843  0.00  0.00    +0.000 C 
ATOM     18  O   UNL     1      44.857   7.494  11.618  0.00  0.00    +0.000 OA
ATOM     19  H   UNL     1      47.174   5.550  12.564  0.00  0.00    +0.000 HD
BRANCH  17  20
ATOM     20  C   UNL     1      44.851   5.143  11.547  0.00  0.00    +0.000 A 
ATOM     21  C   UNL     1      44.092   4.505  12.518  0.00  0.00    +0.000 A 
ATOM     22  S   UNL     1      43.445   3.011  12.012  0.00  0.00    +0.000 S 
ATOM     23  C   UNL     1      44.195   3.141  10.491  0.00  0.00    +0.000 A 
ATOM     24  N   UNL     1      44.071   2.150   9.566  0.00  0.00    +0.000 NA
ATOM     25  C   UNL     1      44.728   2.358   8.473  0.00  0.00    +0.000 A 
ATOM     26  N   UNL     1      45.484   3.470   8.217  0.00  0.00    +0.000 N 
ATOM     27  C   UNL     1      45.572   4.528   9.087  0.00  0.00    +0.000 A 
ATOM     28  O   UNL     1      46.138   5.565   8.765  0.00  0.00    +0.000 OA
ATOM     29  C   UNL     1      44.902   4.323  10.358  0.00  0.00    +0.000 A 
ATOM     30  H   UNL     1      45.948   3.587   7.326  0.00  0.00    +0.000 HD
ENDBRANCH  17  20
ENDBRANCH   2  16
TORSDOF 5
ENDMDL
MODEL 8
REMARK VINA RESULT:    -6.830      3.324      5.500
REMARK INTER + INTRA:          -9.801
REMARK INTER:                  -8.669
REMARK INTRA:                  -1.132
REMARK UNBOUND:                -0.974
REMARK  Name = 
REMARK  6 active torsions:
REMARK  status: ('A' for Active; 'I' for Inactive)
REMARK    1  A    between atoms: C_1  and  C_2
REMARK    2  A    between atoms: C_2  and  N_3
REMARK    3  A    between atoms: C_2  and  C_16
REMARK    4  A    between atoms: C_4  and  C_6
REMARK    5  A    between atoms: C_19  and  O_20
REMARK    6  A    between atoms: O_20  and  C_21
REMARK                            x       y       z     vdW  Elec       q    Type
REMARK                         _______ _______ _______ _____ _____    ______ ____
ROOT
ATOM      1  C   UNL     1      47.655   5.718  18.770  0.00  0.00    +0.000 C 
ATOM      2  C   UNL     1      48.775   5.824  17.732  0.00  0.00    +0.000 C 
ENDROOT
BRANCH   2   3
ATOM      3  C   UNL     1      48.198   5.626  16.338  0.00  0.00    +0.000 A 
ATOM      4  C   UNL     1      47.507   4.434  16.071  0.00  0.00    +0.000 A 
ATOM      5  C   UNL     1      47.025   4.150  14.793  0.00  0.00    +0.000 A 
ATOM      6  C   UNL     1      47.157   5.088  13.769  0.00  0.00    +0.000 A 
ATOM      7  C   UNL     1      47.864   6.264  14.008  0.00  0.00    +0.000 A 
ATOM      8  C   UNL     1      48.393   6.527  15.278  0.00  0.00    +0.000 A 
BRANCH   6   9
ATOM      9  O   UNL     1      46.692   4.909  12.484  0.00  0.00    +0.000 OA
BRANCH   9  10
ATOM     10  C   UNL     1      45.341   4.949  12.227  0.00  0.00    +0.000 A 
ATOM     11  C   UNL     1      44.366   5.215  13.192  0.00  0.00    +0.000 A 
ATOM     12  C   UNL     1      43.014   5.201  12.846  0.00  0.00    +0.000 A 
ATOM     13  C   UNL     1      42.636   4.986  11.523  0.00  0.00    +0.000 A 
ATOM     14  C   UNL     1      43.609   4.790  10.543  0.00  0.00    +0.000 A 
ATOM     15  C   UNL     1      44.960   4.769  10.894  0.00  0.00    +0.000 A 
ENDBRANCH   9  10
ENDBRANCH   6   9
ENDBRANCH   2   3
BRANCH   2  16
ATOM     16  N   UNL     1      49.862   4.916  18.044  0.00  0.00    +0.000 N 
ATOM     17  C   UNL     1      51.176   5.249  17.832  0.00  0.00    +0.000 C 
ATOM     18  O   UNL     1      51.505   6.311  17.311  0.00  0.00    +0.000 OA
ATOM     19  H   UNL     1      49.636   4.003  18.417  0.00  0.00    +0.000 HD
BRANCH  17  20
ATOM     20  C   UNL     1      52.185   4.293  18.310  0.00  0.00    +0.000 A 
ATOM     21  C   UNL     1      53.239   4.745  19.092  0.00  0.00    +0.000 A 
ATOM     22  S   UNL     1      54.311   3.511  19.578  0.00  0.00    +0.000 S 
ATOM     23  C   UNL     1      53.431   2.335  18.721  0.00  0.00    +0.000 A 
ATOM     24  N   UNL     1      53.844   1.039  18.694  0.00  0.00    +0.000 NA
ATOM     25  C   UNL     1      53.108   0.261  17.969  0.00  0.00    +0.000 A 
ATOM     26  N   UNL     1      51.992   0.660  17.284  0.00  0.00    +0.000 N 
ATOM     27  C   UNL     1      51.494   1.938  17.349  0.00  0.00    +0.000 A 
ATOM     28  O   UNL     1      50.416   2.222  16.842  0.00  0.00    +0.000 OA
ATOM     29  C   UNL     1      52.315   2.869  18.100  0.00  0.00    +0.000 A 
ATOM     30  H   UNL     1      51.440  -0.007  16.761  0.00  0.00    +0.000 HD
ENDBRANCH  17  20
ENDBRANCH   2  16
TORSDOF 5
ENDMDL
MODEL 9
REMARK VINA RESULT:    -6.667      2.971      4.576
REMARK INTER + INTRA:          -9.589
REMARK INTER:                  -8.317
REMARK INTRA:                  -1.272
REMARK UNBOUND:                -0.974
REMARK  Name = 
REMARK  6 active torsions:
REMARK  status: ('A' for Active; 'I' for Inactive)
REMARK    1  A    between atoms: C_1  and  C_2
REMARK    2  A    between atoms: C_2  and  N_3
REMARK    3  A    between atoms: C_2  and  C_16
REMARK    4  A    between atoms: C_4  and  C_6
REMARK    5  A    between atoms: C_19  and  O_20
REMARK    6  A    between atoms: O_20  and  C_21
REMARK                            x       y       z     vdW  Elec       q    Type
REMARK                         _______ _______ _______ _____ _____    ______ ____
ROOT
ATOM      1  C   UNL     1      47.651   4.949  15.691  0.00  0.00    +0.000 C 
ATOM      2  C   UNL     1      47.492   6.038  14.627  0.00  0.00    +0.000 C 
ENDROOT
BRANCH   2   3
ATOM      3  C   UNL     1      46.769   5.464  13.417  0.00  0.00    +0.000 A 
ATOM      4  C   UNL     1      46.680   6.256  12.262  0.00  0.00    +0.000 A 
ATOM      5  C   UNL     1      45.960   5.827  11.146  0.00  0.00    +0.000 A 
ATOM      6  C   UNL     1      45.374   4.562  11.133  0.00  0.00    +0.000 A 
ATOM      7  C   UNL     1      45.429   3.773  12.280  0.00  0.00    +0.000 A 
ATOM      8  C   UNL     1      46.107   4.224  13.419  0.00  0.00    +0.000 A 
BRANCH   6   9
ATOM      9  O   UNL     1      44.667   4.041  10.071  0.00  0.00    +0.000 OA
BRANCH   9  10
ATOM     10  C   UNL     1      45.333   3.455   9.019  0.00  0.00    +0.000 A 
ATOM     11  C   UNL     1      45.932   4.167   7.975  0.00  0.00    +0.000 A 
ATOM     12  C   UNL     1      46.558   3.486   6.930  0.00  0.00    +0.000 A 
ATOM     13  C   UNL     1      46.645   2.095   6.959  0.00  0.00    +0.000 A 
ATOM     14  C   UNL     1      46.112   1.386   8.034  0.00  0.00    +0.000 A 
ATOM     15  C   UNL     1      45.454   2.064   9.062  0.00  0.00    +0.000 A 
ENDBRANCH   9  10
ENDBRANCH   6   9
ENDBRANCH   2   3
BRANCH   2  16
ATOM     16  N   UNL     1      48.770   6.643  14.306  0.00  0.00    +0.000 N 
ATOM     17  C   UNL     1      49.174   7.833  14.856  0.00  0.00    +0.000 C 
ATOM     18  O   UNL     1      48.453   8.483  15.608  0.00  0.00    +0.000 OA
ATOM     19  H   UNL     1      49.372   6.174  13.641  0.00  0.00    +0.000 HD
BRANCH  17  20
ATOM     20  C   UNL     1      50.542   8.272  14.548  0.00  0.00    +0.000 A 
ATOM     21  C   UNL     1      51.432   8.517  15.586  0.00  0.00    +0.000 A 
ATOM     22  S   UNL     1      52.981   9.002  15.062  0.00  0.00    +0.000 S 
ATOM     23  C   UNL     1      52.504   8.949  13.430  0.00  0.00    +0.000 A 
ATOM     24  N   UNL     1      53.370   9.294  12.439  0.00  0.00    +0.000 NA
ATOM     25  C   UNL     1      52.864   9.251  11.251  0.00  0.00    +0.000 A 
ATOM     26  N   UNL     1      51.578   8.881  10.964  0.00  0.00    +0.000 N 
ATOM     27  C   UNL     1      50.695   8.449  11.923  0.00  0.00    +0.000 A 
ATOM     28  O   UNL     1      49.603   7.990  11.615  0.00  0.00    +0.000 OA
ATOM     29  C   UNL     1      51.192   8.534  13.284  0.00  0.00    +0.000 A 
ATOM     30  H   UNL     1      51.253   8.837  10.008  0.00  0.00    +0.000 HD
ENDBRANCH  17  20
ENDBRANCH   2  16
TORSDOF 5
ENDMDL
