MODEL 1
REMARK VINA RESULT:    -7.450      0.000      0.000
REMARK INTER + INTRA:         -10.595
REMARK INTER:                 -10.064
REMARK INTRA:                  -0.532
REMARK UNBOUND:                -0.532
REMARK  Name = 
REMARK  7 active torsions:
REMARK  status: ('A' for Active; 'I' for Inactive)
REMARK    1  A    between atoms: C_1  and  O_2
REMARK    2  A    between atoms: O_2  and  C_3
REMARK    3  A    between atoms: C_5  and  C_6
REMARK    4  A    between atoms: C_11  and  N_12
REMARK    5  A    between atoms: N_12  and  C_13
REMARK    6  A    between atoms: C_13  and  C_14
REMARK    7  A    between atoms: C_18  and  C_19
REMARK                            x       y       z     vdW  Elec       q    Type
REMARK                         _______ _______ _______ _____ _____    ______ ____
ROOT
ATOM      1  C   UNL     1      44.332   3.097   9.861  0.00  0.00    +0.000 A 
ATOM      2  C   UNL     1      45.029   2.086   9.202  0.00  0.00    +0.000 A 
ATOM      3  C   UNL     1      46.039   2.413   8.295  0.00  0.00    +0.000 A 
ATOM      4  C   UNL     1      46.294   3.758   8.082  0.00  0.00    +0.000 A 
ATOM      5  N   UNL     1      45.647   4.767   8.716  0.00  0.00    +0.000 NA
ATOM      6  C   UNL     1      44.674   4.438   9.594  0.00  0.00    +0.000 A 
ENDROOT
BRANCH   3   7
ATOM      7  C   UNL     1      46.782   1.313   7.633  0.00  0.00    +0.000 C 
ATOM      8  N   UNL     1      47.779   1.618   6.749  0.00  0.00    +0.000 N 
ATOM      9  O   UNL     1      46.518   0.140   7.875  0.00  0.00    +0.000 OA
ATOM     10  H   UNL     1      48.072   2.542   6.472  0.00  0.00    +0.000 HD
ATOM     11  H   UNL     1      48.260   0.830   6.331  0.00  0.00    +0.000 HD
ENDBRANCH   3   7
BRANCH   1  13
ATOM     12  C   UNL     1      43.714   2.432  12.055  0.00  0.00    +0.000 C 
ATOM     13  O   UNL     1      43.318   2.879  10.763  0.00  0.00    +0.000 OA
ENDBRANCH   1  13
BRANCH   6  14
ATOM     14  N   UNL     1      44.086   5.435  10.360  0.00  0.00    +0.000 N 
ATOM     15  H   UNL     1      43.087   5.518  10.214  0.00  0.00    +0.000 HD
BRANCH  14  16
ATOM     16  C   UNL     1      44.810   6.644  10.680  0.00  0.00    +0.000 C 
BRANCH  16  17
ATOM     17  C   UNL     1      45.796   6.289  11.772  0.00  0.00    +0.000 A 
ATOM     18  C   UNL     1      45.516   5.310  12.723  0.00  0.00    +0.000 A 
ATOM     19  C   UNL     1      46.481   5.027  13.678  0.00  0.00    +0.000 A 
ATOM     20  N   UNL     1      47.680   5.646  13.751  0.00  0.00    +0.000 NA
ATOM     21  C   UNL     1      47.954   6.611  12.826  0.00  0.00    +0.000 A 
ATOM     22  C   UNL     1      47.027   6.959  11.844  0.00  0.00    +0.000 A 
BRANCH  21  23
ATOM     23  C   UNL     1      49.298   7.324  12.839  0.00  0.00    +0.000 C 
ATOM     24  F   UNL     1      50.053   7.088  13.951  0.00  0.00    +0.000 F 
ATOM     25  F   UNL     1      50.087   6.978  11.779  0.00  0.00    +0.000 F 
ATOM     26  F   UNL     1      49.168   8.683  12.764  0.00  0.00    +0.000 F 
ENDBRANCH  21  23
ENDBRANCH  16  17
ENDBRANCH  14  16
ENDBRANCH   6  14
TORSDOF 6
ENDMDL
MODEL 2
REMARK VINA RESULT:    -7.330      3.719      6.413
REMARK INTER + INTRA:         -10.433
REMARK INTER:                 -10.124
REMARK INTRA:                  -0.310
REMARK UNBOUND:                -0.532
REMARK  Name = 
REMARK  7 active torsions:
REMARK  status: ('A' for Active; 'I' for Inactive)
REMARK    1  A    between atoms: C_1  and  O_2
REMARK    2  A    between atoms: O_2  and  C_3
REMARK    3  A    between atoms: C_5  and  C_6
REMARK    4  A    between atoms: C_11  and  N_12
REMARK    5  A    between atoms: N_12  and  C_13
REMARK    6  A    between atoms: C_13  and  C_14
REMARK    7  A    between atoms: C_18  and  C_19
REMARK                            x       y       z     vdW  Elec       q    Type
REMARK                         _______ _______ _______ _____ _____    ______ ____
ROOT
ATOM      1  C   UNL     1      44.376   5.061  12.727  0.00  0.00    +0.000 A 
ATOM      2  C   UNL     1      45.462   5.746  13.270  0.00  0.00    +0.000 A 
ATOM      3  C   UNL     1      46.636   5.057  13.578  0.00  0.00    +0.000 A 
ATOM      4  C   UNL     1      46.659   3.693  13.333  0.00  0.00    +0.000 A 
ATOM      5  N   UNL     1      45.627   2.998  12.792  0.00  0.00    +0.000 NA
ATOM      6  C   UNL     1      44.498   3.676  12.494  0.00  0.00    +0.000 A 
ENDROOT
BRANCH   3   7
ATOM      7  C   UNL     1      47.784   5.819  14.127  0.00  0.00    +0.000 C 
ATOM      8  N   UNL     1      47.858   6.038  15.473  0.00  0.00    +0.000 N 
ATOM      9  O   UNL     1      48.665   6.247  13.389  0.00  0.00    +0.000 OA
ATOM     10  H   UNL     1      47.189   5.740  16.166  0.00  0.00    +0.000 HD
ATOM     11  H   UNL     1      48.666   6.557  15.797  0.00  0.00    +0.000 HD
ENDBRANCH   3   7
BRANCH   1  13
ATOM     12  C   UNL     1      43.221   6.636  11.376  0.00  0.00    +0.000 C 
ATOM     13  O   UNL     1      43.176   5.647  12.398  0.00  0.00    +0.000 OA
ENDBRANCH   1  13
BRANCH   6  14
ATOM     14  N   UNL     1      43.475   3.028  11.817  0.00  0.00    +0.000 N 
ATOM     15  H   UNL     1      42.624   2.941  12.359  0.00  0.00    +0.000 HD
BRANCH  14  16
ATOM     16  C   UNL     1      43.769   1.974  10.873  0.00  0.00    +0.000 C 
BRANCH  16  17
ATOM     17  C   UNL     1      44.507   2.612   9.717  0.00  0.00    +0.000 A 
ATOM     18  C   UNL     1      44.333   3.955   9.387  0.00  0.00    +0.000 A 
ATOM     19  C   UNL     1      45.064   4.470   8.327  0.00  0.00    +0.000 A 
ATOM     20  N   UNL     1      45.935   3.751   7.585  0.00  0.00    +0.000 NA
ATOM     21  C   UNL     1      46.101   2.435   7.900  0.00  0.00    +0.000 A 
ATOM     22  C   UNL     1      45.390   1.843   8.944  0.00  0.00    +0.000 A 
BRANCH  21  23
ATOM     23  C   UNL     1      47.088   1.579   7.119  0.00  0.00    +0.000 C 
ATOM     24  F   UNL     1      46.816   1.477   5.786  0.00  0.00    +0.000 F 
ATOM     25  F   UNL     1      48.368   2.051   7.197  0.00  0.00    +0.000 F 
ATOM     26  F   UNL     1      47.147   0.295   7.583  0.00  0.00    +0.000 F 
ENDBRANCH  21  23
ENDBRANCH  16  17
ENDBRANCH  14  16
ENDBRANCH   6  14
TORSDOF 6
ENDMDL
MODEL 3
REMARK VINA RESULT:    -7.114      1.767      2.374
REMARK INTER + INTRA:         -10.140
REMARK INTER:                  -9.686
REMARK INTRA:                  -0.455
REMARK UNBOUND:                -0.532
REMARK  Name = 
REMARK  7 active torsions:
REMARK  status: ('A' for Active; 'I' for Inactive)
REMARK    1  A    between atoms: C_1  and  O_2
REMARK    2  A    between atoms: O_2  and  C_3
REMARK    3  A    between atoms: C_5  and  C_6
REMARK    4  A    between atoms: C_11  and  N_12
REMARK    5  A    between atoms: N_12  and  C_13
REMARK    6  A    between atoms: C_13  and  C_14
REMARK    7  A    between atoms: C_18  and  C_19
REMARK                            x       y       z     vdW  Elec       q    Type
REMARK                         _______ _______ _______ _____ _____    ______ ____
ROOT
ATOM      1  C   UNL     1      44.348   3.199   9.958  0.00  0.00    +0.000 A 
ATOM      2  C   UNL     1      44.975   2.208   9.202  0.00  0.00    +0.000 A 
ATOM      3  C   UNL     1      45.946   2.559   8.262  0.00  0.00    +0.000 A 
ATOM      4  C   UNL     1      46.235   3.907   8.116  0.00  0.00    +0.000 A 
ATOM      5  N   UNL     1      45.657   4.894   8.844  0.00  0.00    +0.000 NA
ATOM      6  C   UNL     1      44.722   4.542   9.754  0.00  0.00    +0.000 A 
ENDROOT
BRANCH   3   7
ATOM      7  C   UNL     1      46.615   1.480   7.496  0.00  0.00    +0.000 C 
ATOM      8  N   UNL     1      47.251   1.787   6.326  0.00  0.00    +0.000 N 
ATOM      9  O   UNL     1      46.609   0.323   7.903  0.00  0.00    +0.000 OA
ATOM     10  H   UNL     1      47.310   2.698   5.898  0.00  0.00    +0.000 HD
ATOM     11  H   UNL     1      47.698   1.014   5.846  0.00  0.00    +0.000 HD
ENDBRANCH   3   7
BRANCH   1  13
ATOM     12  C   UNL     1      43.839   2.669  12.216  0.00  0.00    +0.000 C 
ATOM     13  O   UNL     1      43.377   2.956  10.900  0.00  0.00    +0.000 OA
ENDBRANCH   1  13
BRANCH   6  14
ATOM     14  N   UNL     1      44.210   5.508  10.608  0.00  0.00    +0.000 N 
ATOM     15  H   UNL     1      43.198   5.509  10.654  0.00  0.00    +0.000 HD
BRANCH  14  16
ATOM     16  C   UNL     1      44.880   6.777  10.774  0.00  0.00    +0.000 C 
BRANCH  16  17
ATOM     17  C   UNL     1      46.107   6.518  11.622  0.00  0.00    +0.000 A 
ATOM     18  C   UNL     1      47.319   7.159  11.372  0.00  0.00    +0.000 A 
ATOM     19  C   UNL     1      48.391   6.885  12.208  0.00  0.00    +0.000 A 
ATOM     20  N   UNL     1      48.339   6.028  13.252  0.00  0.00    +0.000 NA
ATOM     21  C   UNL     1      47.156   5.393  13.493  0.00  0.00    +0.000 A 
ATOM     22  C   UNL     1      46.039   5.608  12.687  0.00  0.00    +0.000 A 
BRANCH  21  23
ATOM     23  C   UNL     1      47.028   4.437  14.671  0.00  0.00    +0.000 C 
ATOM     24  F   UNL     1      47.730   4.808  15.780  0.00  0.00    +0.000 F 
ATOM     25  F   UNL     1      45.735   4.288  15.087  0.00  0.00    +0.000 F 
ATOM     26  F   UNL     1      47.457   3.175  14.367  0.00  0.00    +0.000 F 
ENDBRANCH  21  23
ENDBRANCH  16  17
ENDBRANCH  14  16
ENDBRANCH   6  14
TORSDOF 6
ENDMDL
MODEL 4
REMARK VINA RESULT:    -6.977      3.634      6.130
REMARK INTER + INTRA:          -9.956
REMARK INTER:                  -8.962
REMARK INTRA:                  -0.995
REMARK UNBOUND:                -0.532
REMARK  Name = 
REMARK  7 active torsions:
REMARK  status: ('A' for Active; 'I' for Inactive)
REMARK    1  A    between atoms: C_1  and  O_2
REMARK    2  A    between atoms: O_2  and  C_3
REMARK    3  A    between atoms: C_5  and  C_6
REMARK    4  A    between atoms: C_11  and  N_12
REMARK    5  A    between atoms: N_12  and  C_13
REMARK    6  A    between atoms: C_13  and  C_14
REMARK    7  A    between atoms: C_18  and  C_19
REMARK                            x       y       z     vdW  Elec       q    Type
REMARK                         _______ _______ _______ _____ _____    ______ ____
ROOT
ATOM      1  C   UNL     1      46.216   5.859  13.267  0.00  0.00    +0.000 A 
ATOM      2  C   UNL     1      47.535   6.278  13.435  0.00  0.00    +0.000 A 
ATOM      3  C   UNL     1      47.931   7.533  12.970  0.00  0.00    +0.000 A 
ATOM      4  C   UNL     1      46.974   8.312  12.339  0.00  0.00    +0.000 A 
ATOM      5  N   UNL     1      45.680   7.943  12.172  0.00  0.00    +0.000 NA
ATOM      6  C   UNL     1      45.307   6.728  12.630  0.00  0.00    +0.000 A 
ENDROOT
BRANCH   3   7
ATOM      7  C   UNL     1      49.334   7.962  13.191  0.00  0.00    +0.000 C 
ATOM      8  N   UNL     1      50.339   7.334  12.511  0.00  0.00    +0.000 N 
ATOM      9  O   UNL     1      49.598   8.874  13.968  0.00  0.00    +0.000 OA
ATOM     10  H   UNL     1      50.236   6.572  11.859  0.00  0.00    +0.000 HD
ATOM     11  H   UNL     1      51.278   7.670  12.693  0.00  0.00    +0.000 HD
ENDBRANCH   3   7
BRANCH   1  13
ATOM     12  C   UNL     1      46.468   3.498  13.264  0.00  0.00    +0.000 C 
ATOM     13  O   UNL     1      45.731   4.642  13.682  0.00  0.00    +0.000 OA
ENDBRANCH   1  13
BRANCH   6  14
ATOM     14  N   UNL     1      43.966   6.373  12.599  0.00  0.00    +0.000 N 
ATOM     15  H   UNL     1      43.685   5.789  13.377  0.00  0.00    +0.000 HD
BRANCH  14  16
ATOM     16  C   UNL     1      43.286   6.170  11.341  0.00  0.00    +0.000 C 
BRANCH  16  17
ATOM     17  C   UNL     1      43.708   4.811  10.827  0.00  0.00    +0.000 A 
ATOM     18  C   UNL     1      43.267   3.632  11.425  0.00  0.00    +0.000 A 
ATOM     19  C   UNL     1      43.681   2.425  10.881  0.00  0.00    +0.000 A 
ATOM     20  N   UNL     1      44.493   2.317   9.807  0.00  0.00    +0.000 NA
ATOM     21  C   UNL     1      44.933   3.469   9.225  0.00  0.00    +0.000 A 
ATOM     22  C   UNL     1      44.570   4.719   9.724  0.00  0.00    +0.000 A 
BRANCH  21  23
ATOM     23  C   UNL     1      45.828   3.412   7.995  0.00  0.00    +0.000 C 
ATOM     24  F   UNL     1      46.647   4.492   7.839  0.00  0.00    +0.000 F 
ATOM     25  F   UNL     1      46.654   2.323   7.996  0.00  0.00    +0.000 F 
ATOM     26  F   UNL     1      45.113   3.320   6.833  0.00  0.00    +0.000 F 
ENDBRANCH  21  23
ENDBRANCH  16  17
ENDBRANCH  14  16
ENDBRANCH   6  14
TORSDOF 6
ENDMDL
MODEL 5
REMARK VINA RESULT:    -6.868      4.439      7.436
REMARK INTER + INTRA:          -9.809
REMARK INTER:                  -9.183
REMARK INTRA:                  -0.626
REMARK UNBOUND:                -0.532
REMARK  Name = 
REMARK  7 active torsions:
REMARK  status: ('A' for Active; 'I' for Inactive)
REMARK    1  A    between atoms: C_1  and  O_2
REMARK    2  A    between atoms: O_2  and  C_3
REMARK    3  A    between atoms: C_5  and  C_6
REMARK    4  A    between atoms: C_11  and  N_12
REMARK    5  A    between atoms: N_12  and  C_13
REMARK    6  A    between atoms: C_13  and  C_14
REMARK    7  A    between atoms: C_18  and  C_19
REMARK                            x       y       z     vdW  Elec       q    Type
REMARK                         _______ _______ _______ _____ _____    ______ ____
ROOT
ATOM      1  C   UNL     1      48.166   5.938  15.325  0.00  0.00    +0.000 A 
ATOM      2  C   UNL     1      48.746   5.551  16.533  0.00  0.00    +0.000 A 
ATOM      3  C   UNL     1      48.395   4.332  17.115  0.00  0.00    +0.000 A 
ATOM      4  C   UNL     1      47.456   3.556  16.454  0.00  0.00    +0.000 A 
ATOM      5  N   UNL     1      46.884   3.894  15.271  0.00  0.00    +0.000 NA
ATOM      6  C   UNL     1      47.234   5.074  14.716  0.00  0.00    +0.000 A 
ENDROOT
BRANCH   3   7
ATOM      7  C   UNL     1      49.052   3.935  18.384  0.00  0.00    +0.000 C 
ATOM      8  N   UNL     1      48.385   3.124  19.257  0.00  0.00    +0.000 N 
ATOM      9  O   UNL     1      50.185   4.321  18.652  0.00  0.00    +0.000 OA
ATOM     10  H   UNL     1      47.452   2.758  19.141  0.00  0.00    +0.000 HD
ATOM     11  H   UNL     1      48.882   2.877  20.105  0.00  0.00    +0.000 HD
ENDBRANCH   3   7
BRANCH   1  13
ATOM     12  C   UNL     1      49.816   7.422  14.480  0.00  0.00    +0.000 C 
ATOM     13  O   UNL     1      48.439   7.120  14.678  0.00  0.00    +0.000 OA
ENDBRANCH   1  13
BRANCH   6  14
ATOM     14  N   UNL     1      46.774   5.389  13.445  0.00  0.00    +0.000 N 
ATOM     15  H   UNL     1      47.463   5.861  12.872  0.00  0.00    +0.000 HD
BRANCH  14  16
ATOM     16  C   UNL     1      45.387   5.731  13.227  0.00  0.00    +0.000 C 
BRANCH  16  17
ATOM     17  C   UNL     1      44.822   4.695  12.281  0.00  0.00    +0.000 A 
ATOM     18  C   UNL     1      43.818   3.812  12.675  0.00  0.00    +0.000 A 
ATOM     19  C   UNL     1      43.337   2.906  11.741  0.00  0.00    +0.000 A 
ATOM     20  N   UNL     1      43.785   2.818  10.469  0.00  0.00    +0.000 NA
ATOM     21  C   UNL     1      44.773   3.675  10.083  0.00  0.00    +0.000 A 
ATOM     22  C   UNL     1      45.316   4.604  10.971  0.00  0.00    +0.000 A 
BRANCH  21  23
ATOM     23  C   UNL     1      45.300   3.643   8.655  0.00  0.00    +0.000 C 
ATOM     24  F   UNL     1      46.019   2.527   8.342  0.00  0.00    +0.000 F 
ATOM     25  F   UNL     1      44.301   3.709   7.726  0.00  0.00    +0.000 F 
ATOM     26  F   UNL     1      46.120   4.701   8.378  0.00  0.00    +0.000 F 
ENDBRANCH  21  23
ENDBRANCH  16  17
ENDBRANCH  14  16
ENDBRANCH   6  14
TORSDOF 6
ENDMDL
MODEL 6
REMARK VINA RESULT:    -6.416      4.427      7.516
REMARK INTER + INTRA:          -9.199
REMARK INTER:                  -8.690
REMARK INTRA:                  -0.508
REMARK UNBOUND:                -0.532
REMARK  Name = 
REMARK  7 active torsions:
REMARK  status: ('A' for Active; 'I' for Inactive)
REMARK    1  A    between atoms: C_1  and  O_2
REMARK    2  A    between atoms: O_2  and  C_3
REMARK    3  A    between atoms: C_5  and  C_6
REMARK    4  A    between atoms: C_11  and  N_12
REMARK    5  A    between atoms: N_12  and  C_13
REMARK    6  A    between atoms: C_13  and  C_14
REMARK    7  A    between atoms: C_18  and  C_19
REMARK                            x       y       z     vdW  Elec       q    Type
REMARK                         _______ _______ _______ _____ _____    ______ ____
ROOT
ATOM      1  C   UNL     1      47.645   4.540  16.186  0.00  0.00    +0.000 A 
ATOM      2  C   UNL     1      48.593   5.214  16.955  0.00  0.00    +0.000 A 
ATOM      3  C   UNL     1      49.229   6.346  16.443  0.00  0.00    +0.000 A 
ATOM      4  C   UNL     1      48.886   6.746  15.161  0.00  0.00    +0.000 A 
ATOM      5  N   UNL     1      47.959   6.125  14.391  0.00  0.00    +0.000 NA
ATOM      6  C   UNL     1      47.347   5.032  14.899  0.00  0.00    +0.000 A 
ENDROOT
BRANCH   3   7
ATOM      7  C   UNL     1      50.210   7.057  17.299  0.00  0.00    +0.000 C 
ATOM      8  N   UNL     1      49.838   8.215  17.921  0.00  0.00    +0.000 N 
ATOM      9  O   UNL     1      51.343   6.614  17.458  0.00  0.00    +0.000 OA
ATOM     10  H   UNL     1      48.941   8.670  17.853  0.00  0.00    +0.000 HD
ATOM     11  H   UNL     1      50.544   8.657  18.499  0.00  0.00    +0.000 HD
ENDBRANCH   3   7
BRANCH   1  13
ATOM     12  C   UNL     1      47.468   2.780  17.769  0.00  0.00    +0.000 C 
ATOM     13  O   UNL     1      46.972   3.414  16.596  0.00  0.00    +0.000 OA
ENDBRANCH   1  13
BRANCH   6  14
ATOM     14  N   UNL     1      46.300   4.453  14.196  0.00  0.00    +0.000 N 
ATOM     15  H   UNL     1      46.491   3.506  13.895  0.00  0.00    +0.000 HD
BRANCH  14  16
ATOM     16  C   UNL     1      45.446   5.256  13.351  0.00  0.00    +0.000 C 
BRANCH  16  17
ATOM     17  C   UNL     1      44.847   4.324  12.321  0.00  0.00    +0.000 A 
ATOM     18  C   UNL     1      43.805   3.453  12.638  0.00  0.00    +0.000 A 
ATOM     19  C   UNL     1      43.295   2.646  11.631  0.00  0.00    +0.000 A 
ATOM     20  N   UNL     1      43.747   2.645  10.358  0.00  0.00    +0.000 NA
ATOM     21  C   UNL     1      44.771   3.490  10.047  0.00  0.00    +0.000 A 
ATOM     22  C   UNL     1      45.345   4.321  11.009  0.00  0.00    +0.000 A 
BRANCH  21  23
ATOM     23  C   UNL     1      45.305   3.554   8.623  0.00  0.00    +0.000 C 
ATOM     24  F   UNL     1      44.343   3.538   7.656  0.00  0.00    +0.000 F 
ATOM     25  F   UNL     1      46.043   4.679   8.389  0.00  0.00    +0.000 F 
ATOM     26  F   UNL     1      46.138   2.509   8.332  0.00  0.00    +0.000 F 
ENDBRANCH  21  23
ENDBRANCH  16  17
ENDBRANCH  14  16
ENDBRANCH   6  14
TORSDOF 6
ENDMDL
MODEL 7
REMARK VINA RESULT:    -6.191      3.760      5.540
REMARK INTER + INTRA:          -8.894
REMARK INTER:                  -8.275
REMARK INTRA:                  -0.619
REMARK UNBOUND:                -0.532
REMARK  Name = 
REMARK  7 active torsions:
REMARK  status: ('A' for Active; 'I' for Inactive)
REMARK    1  A    between atoms: C_1  and  O_2
REMARK    2  A    between atoms: O_2  and  C_3
REMARK    3  A    between atoms: C_5  and  C_6
REMARK    4  A    between atoms: C_11  and  N_12
REMARK    5  A    between atoms: N_12  and  C_13
REMARK    6  A    between atoms: C_13  and  C_14
REMARK    7  A    between atoms: C_18  and  C_19
REMARK                            x       y       z     vdW  Elec       q    Type
REMARK                         _______ _______ _______ _____ _____    ______ ____
ROOT
ATOM      1  C   UNL     1      46.275   5.859  12.965  0.00  0.00    +0.000 A 
ATOM      2  C   UNL     1      45.534   5.561  11.822  0.00  0.00    +0.000 A 
ATOM      3  C   UNL     1      45.144   4.244  11.569  0.00  0.00    +0.000 A 
ATOM      4  C   UNL     1      45.533   3.277  12.481  0.00  0.00    +0.000 A 
ATOM      5  N   UNL     1      46.240   3.532  13.609  0.00  0.00    +0.000 NA
ATOM      6  C   UNL     1      46.608   4.810  13.847  0.00  0.00    +0.000 A 
ENDROOT
BRANCH   3   7
ATOM      7  C   UNL     1      44.331   3.965  10.360  0.00  0.00    +0.000 C 
ATOM      8  N   UNL     1      44.368   4.842   9.312  0.00  0.00    +0.000 N 
ATOM      9  O   UNL     1      43.635   2.958  10.289  0.00  0.00    +0.000 OA
ATOM     10  H   UNL     1      44.896   5.700   9.268  0.00  0.00    +0.000 HD
ATOM     11  H   UNL     1      43.801   4.600   8.509  0.00  0.00    +0.000 HD
ENDBRANCH   3   7
BRANCH   1  13
ATOM     12  C   UNL     1      45.841   8.193  12.964  0.00  0.00    +0.000 C 
ATOM     13  O   UNL     1      46.712   7.119  13.299  0.00  0.00    +0.000 OA
ENDBRANCH   1  13
BRANCH   6  14
ATOM     14  N   UNL     1      47.212   5.129  15.054  0.00  0.00    +0.000 N 
ATOM     15  H   UNL     1      48.117   5.570  14.948  0.00  0.00    +0.000 HD
BRANCH  14  16
ATOM     16  C   UNL     1      47.013   4.300  16.220  0.00  0.00    +0.000 C 
BRANCH  16  17
ATOM     17  C   UNL     1      48.378   3.802  16.644  0.00  0.00    +0.000 A 
ATOM     18  C   UNL     1      48.712   2.449  16.597  0.00  0.00    +0.000 A 
ATOM     19  C   UNL     1      49.991   2.075  16.981  0.00  0.00    +0.000 A 
ATOM     20  N   UNL     1      50.939   2.940  17.404  0.00  0.00    +0.000 NA
ATOM     21  C   UNL     1      50.612   4.263  17.459  0.00  0.00    +0.000 A 
ATOM     22  C   UNL     1      49.341   4.713  17.102  0.00  0.00    +0.000 A 
BRANCH  21  23
ATOM     23  C   UNL     1      51.646   5.289  17.902  0.00  0.00    +0.000 C 
ATOM     24  F   UNL     1      52.652   5.502  17.006  0.00  0.00    +0.000 F 
ATOM     25  F   UNL     1      51.098   6.518  18.138  0.00  0.00    +0.000 F 
ATOM     26  F   UNL     1      52.260   4.938  19.071  0.00  0.00    +0.000 F 
ENDBRANCH  21  23
ENDBRANCH  16  17
ENDBRANCH  14  16
ENDBRANCH   6  14
TORSDOF 6
ENDMDL
MODEL 8
REMARK VINA RESULT:    -6.134      4.064      7.148
REMARK INTER + INTRA:          -8.818
REMARK INTER:                  -8.036
REMARK INTRA:                  -0.782
REMARK UNBOUND:                -0.532
REMARK  Name = 
REMARK  7 active torsions:
REMARK  status: ('A' for Active; 'I' for Inactive)
REMARK    1  A    between atoms: C_1  and  O_2
REMARK    2  A    between atoms: O_2  and  C_3
REMARK    3  A    between atoms: C_5  and  C_6
REMARK    4  A    between atoms: C_11  and  N_12
REMARK    5  A    between atoms: N_12  and  C_13
REMARK    6  A    between atoms: C_13  and  C_14
REMARK    7  A    between atoms: C_18  and  C_19
REMARK                            x       y       z     vdW  Elec       q    Type
REMARK                         _______ _______ _______ _____ _____    ______ ____
ROOT
ATOM      1  C   UNL     1      47.848   6.315  13.777  0.00  0.00    +0.000 A 
ATOM      2  C   UNL     1      48.483   6.639  14.975  0.00  0.00    +0.000 A 
ATOM      3  C   UNL     1      48.589   7.974  15.369  0.00  0.00    +0.000 A 
ATOM      4  C   UNL     1      48.057   8.933  14.522  0.00  0.00    +0.000 A 
ATOM      5  N   UNL     1      47.420   8.654  13.358  0.00  0.00    +0.000 NA
ATOM      6  C   UNL     1      47.319   7.358  12.990  0.00  0.00    +0.000 A 
ENDROOT
BRANCH   3   7
ATOM      7  C   UNL     1      49.244   8.283  16.663  0.00  0.00    +0.000 C 
ATOM      8  N   UNL     1      50.383   9.038  16.673  0.00  0.00    +0.000 N 
ATOM      9  O   UNL     1      48.772   7.876  17.719  0.00  0.00    +0.000 OA
ATOM     10  H   UNL     1      50.859   9.415  15.867  0.00  0.00    +0.000 HD
ATOM     11  H   UNL     1      50.785   9.226  17.584  0.00  0.00    +0.000 HD
ENDBRANCH   3   7
BRANCH   1  13
ATOM     12  C   UNL     1      46.852   4.178  14.057  0.00  0.00    +0.000 C 
ATOM     13  O   UNL     1      47.700   5.035  13.300  0.00  0.00    +0.000 OA
ENDBRANCH   1  13
BRANCH   6  14
ATOM     14  N   UNL     1      46.559   7.025  11.878  0.00  0.00    +0.000 N 
ATOM     15  H   UNL     1      46.980   7.308  11.002  0.00  0.00    +0.000 HD
BRANCH  14  16
ATOM     16  C   UNL     1      45.115   7.022  11.946  0.00  0.00    +0.000 C 
BRANCH  16  17
ATOM     17  C   UNL     1      44.653   5.689  11.399  0.00  0.00    +0.000 A 
ATOM     18  C   UNL     1      43.650   4.949  12.023  0.00  0.00    +0.000 A 
ATOM     19  C   UNL     1      43.266   3.747  11.447  0.00  0.00    +0.000 A 
ATOM     20  N   UNL     1      43.808   3.240  10.317  0.00  0.00    +0.000 NA
ATOM     21  C   UNL     1      44.795   3.958   9.709  0.00  0.00    +0.000 A 
ATOM     22  C   UNL     1      45.243   5.169  10.238  0.00  0.00    +0.000 A 
BRANCH  21  23
ATOM     23  C   UNL     1      45.425   3.453   8.419  0.00  0.00    +0.000 C 
ATOM     24  F   UNL     1      46.410   4.253   7.919  0.00  0.00    +0.000 F 
ATOM     25  F   UNL     1      45.992   2.218   8.560  0.00  0.00    +0.000 F 
ATOM     26  F   UNL     1      44.512   3.318   7.411  0.00  0.00    +0.000 F 
ENDBRANCH  21  23
ENDBRANCH  16  17
ENDBRANCH  14  16
ENDBRANCH   6  14
TORSDOF 6
ENDMDL
MODEL 9
REMARK VINA RESULT:    -6.088      4.384      6.168
REMARK INTER + INTRA:          -8.755
REMARK INTER:                  -8.207
REMARK INTRA:                  -0.548
REMARK UNBOUND:                -0.532
REMARK  Name = 
REMARK  7 active torsions:
REMARK  status: ('A' for Active; 'I' for Inactive)
REMARK    1  A    between atoms: C_1  and  O_2
REMARK    2  A    between atoms: O_2  and  C_3
REMARK    3  A    between atoms: C_5  and  C_6
REMARK    4  A    between atoms: C_11  and  N_12
REMARK    5  A    between atoms: N_12  and  C_13
REMARK    6  A    between atoms: C_13  and  C_14
REMARK    7  A    between atoms: C_18  and  C_19
REMARK                            x       y       z     vdW  Elec       q    Type
REMARK                         _______ _______ _______ _____ _____    ______ ____
ROOT
ATOM      1  C   UNL     1      46.545   6.051  13.145  0.00  0.00    +0.000 A 
ATOM      2  C   UNL     1      45.870   6.023  11.925  0.00  0.00    +0.000 A 
ATOM      3  C   UNL     1      45.241   4.850  11.504  0.00  0.00    +0.000 A 
ATOM      4  C   UNL     1      45.331   3.744  12.334  0.00  0.00    +0.000 A 
ATOM      5  N   UNL     1      45.965   3.740  13.533  0.00  0.00    +0.000 NA
ATOM      6  C   UNL     1      46.567   4.881  13.932  0.00  0.00    +0.000 A 
ENDROOT
BRANCH   3   7
ATOM      7  C   UNL     1      44.506   4.862  10.216  0.00  0.00    +0.000 C 
ATOM      8  N   UNL     1      45.210   4.851   9.045  0.00  0.00    +0.000 N 
ATOM      9  O   UNL     1      43.280   4.874  10.191  0.00  0.00    +0.000 OA
ATOM     10  H   UNL     1      46.214   4.850   8.950  0.00  0.00    +0.000 HD
ATOM     11  H   UNL     1      44.660   4.852   8.194  0.00  0.00    +0.000 HD
ENDBRANCH   3   7
BRANCH   1  13
ATOM     12  C   UNL     1      46.664   8.419  13.279  0.00  0.00    +0.000 C 
ATOM     13  O   UNL     1      47.201   7.152  13.643  0.00  0.00    +0.000 OA
ENDBRANCH   1  13
BRANCH   6  14
ATOM     14  N   UNL     1      47.106   4.954  15.208  0.00  0.00    +0.000 N 
ATOM     15  H   UNL     1      47.732   5.740  15.337  0.00  0.00    +0.000 HD
BRANCH  14  16
ATOM     16  C   UNL     1      47.392   3.752  15.957  0.00  0.00    +0.000 C 
BRANCH  16  17
ATOM     17  C   UNL     1      48.185   4.172  17.176  0.00  0.00    +0.000 A 
ATOM     18  C   UNL     1      49.467   3.683  17.420  0.00  0.00    +0.000 A 
ATOM     19  C   UNL     1      50.137   4.133  18.548  0.00  0.00    +0.000 A 
ATOM     20  N   UNL     1      49.624   5.015  19.433  0.00  0.00    +0.000 NA
ATOM     21  C   UNL     1      48.366   5.489  19.201  0.00  0.00    +0.000 A 
ATOM     22  C   UNL     1      47.626   5.071  18.096  0.00  0.00    +0.000 A 
BRANCH  21  23
ATOM     23  C   UNL     1      47.744   6.506  20.148  0.00  0.00    +0.000 C 
ATOM     24  F   UNL     1      48.615   7.047  21.048  0.00  0.00    +0.000 F 
ATOM     25  F   UNL     1      47.191   7.567  19.489  0.00  0.00    +0.000 F 
ATOM     26  F   UNL     1      46.728   5.973  20.891  0.00  0.00    +0.000 F 
ENDBRANCH  21  23
ENDBRANCH  16  17
ENDBRANCH  14  16
ENDBRANCH   6  14
TORSDOF 6
ENDMDL
