MODEL 1
REMARK VINA RESULT:    -8.835      0.000      0.000
REMARK INTER + INTRA:         -13.164
REMARK INTER:                 -12.451
REMARK INTRA:                  -0.713
REMARK UNBOUND:                -0.713
REMARK  Name = 
REMARK  9 active torsions:
REMARK  status: ('A' for Active; 'I' for Inactive)
REMARK    1  A    between atoms: C_1  and  C_2
REMARK    2  A    between atoms: C_2  and  C_3
REMARK    3  A    between atoms: C_5  and  O_6
REMARK    4  A    between atoms: O_6  and  C_7
REMARK    5  A    between atoms: C_9  and  C_10
REMARK    6  A    between atoms: C_10  and  C_11
REMARK    7  A    between atoms: C_11  and  N_12
REMARK    8  A    between atoms: N_12  and  C_13
REMARK    9  A    between atoms: C_16  and  C_17
REMARK                            x       y       z     vdW  Elec       q    Type
REMARK                         _______ _______ _______ _____ _____    ______ ____
ROOT
ATOM      1  C   UNL     1      43.650   5.361  12.417  0.00  0.00    +0.000 C 
ENDROOT
BRANCH   1   4
ATOM      2  C   UNL     1      47.039   4.378  13.819  0.00  0.00    +0.000 A 
ATOM      3  C   UNL     1      45.674   4.374  13.562  0.00  0.00    +0.000 A 
ATOM      4  C   UNL     1      45.136   5.377  12.746  0.00  0.00    +0.000 A 
ATOM      5  C   UNL     1      46.023   6.347  12.257  0.00  0.00    +0.000 A 
ATOM      6  C   UNL     1      47.366   6.275  12.588  0.00  0.00    +0.000 A 
ATOM      7  N   UNL     1      47.899   5.308  13.355  0.00  0.00    +0.000 NA
BRANCH   2   8
ATOM      8  O   UNL     1      47.540   3.345  14.588  0.00  0.00    +0.000 OA
BRANCH   8  13
ATOM      9  C   UNL     1      48.396   4.061  18.955  0.00  0.00    +0.000 C 
ATOM     10  C   UNL     1      49.065   3.842  17.599  0.00  0.00    +0.000 C 
ATOM     11  C   UNL     1      50.586   3.852  17.715  0.00  0.00    +0.000 C 
ATOM     12  C   UNL     1      48.522   4.756  16.470  0.00  0.00    +0.000 C 
ATOM     13  C   UNL     1      47.592   3.601  16.011  0.00  0.00    +0.000 C 
ATOM     14  C   UNL     1      48.506   2.633  16.801  0.00  0.00    +0.000 C 
ENDBRANCH   8  13
ENDBRANCH   2   8
ENDBRANCH   1   4
BRANCH   1  15
ATOM     15  C   UNL     1      43.282   4.418  11.263  0.00  0.00    +0.000 C 
BRANCH  15  16
ATOM     16  N   UNL     1      43.757   4.875   9.955  0.00  0.00    +0.000 N 
ATOM     17  H   UNL     1      44.198   5.793   9.994  0.00  0.00    +0.000 HD
BRANCH  16  18
ATOM     18  C   UNL     1      44.551   3.950   9.240  0.00  0.00    +0.000 A 
ATOM     19  C   UNL     1      45.535   4.341   8.323  0.00  0.00    +0.000 A 
ATOM     20  C   UNL     1      46.347   3.398   7.695  0.00  0.00    +0.000 A 
ATOM     21  C   UNL     1      46.181   2.067   8.028  0.00  0.00    +0.000 A 
ATOM     22  N   UNL     1      45.266   1.622   8.932  0.00  0.00    +0.000 NA
ATOM     23  C   UNL     1      44.499   2.580   9.521  0.00  0.00    +0.000 A 
BRANCH  21  24
ATOM     24  C   UNL     1      47.064   1.043   7.382  0.00  0.00    +0.000 C 
ATOM     25  N   UNL     1      46.791  -0.259   7.703  0.00  0.00    +0.000 N 
ATOM     26  O   UNL     1      47.977   1.338   6.624  0.00  0.00    +0.000 OA
ATOM     27  H   UNL     1      46.046  -0.466   8.355  0.00  0.00    +0.000 HD
ATOM     28  H   UNL     1      47.374  -0.993   7.329  0.00  0.00    +0.000 HD
ENDBRANCH  21  24
ENDBRANCH  16  18
ENDBRANCH  15  16
ENDBRANCH   1  15
TORSDOF 7
ENDMDL
MODEL 2
REMARK VINA RESULT:    -8.180      1.424      1.730
REMARK INTER + INTRA:         -12.240
REMARK INTER:                 -11.438
REMARK INTRA:                  -0.802
REMARK UNBOUND:                -0.713
REMARK  Name = 
REMARK  9 active torsions:
REMARK  status: ('A' for Active; 'I' for Inactive)
REMARK    1  A    between atoms: C_1  and  C_2
REMARK    2  A    between atoms: C_2  and  C_3
REMARK    3  A    between atoms: C_5  and  O_6
REMARK    4  A    between atoms: O_6  and  C_7
REMARK    5  A    between atoms: C_9  and  C_10
REMARK    6  A    between atoms: C_10  and  C_11
REMARK    7  A    between atoms: C_11  and  N_12
REMARK    8  A    between atoms: N_12  and  C_13
REMARK    9  A    between atoms: C_16  and  C_17
REMARK                            x       y       z     vdW  Elec       q    Type
REMARK                         _______ _______ _______ _____ _____    ______ ____
ROOT
ATOM      1  C   UNL     1      44.863   6.600  11.301  0.00  0.00    +0.000 C 
ENDROOT
BRANCH   1   4
ATOM      2  C   UNL     1      47.601   5.490  13.685  0.00  0.00    +0.000 A 
ATOM      3  C   UNL     1      46.359   5.600  13.073  0.00  0.00    +0.000 A 
ATOM      4  C   UNL     1      46.205   6.500  12.012  0.00  0.00    +0.000 A 
ATOM      5  C   UNL     1      47.327   7.260  11.650  0.00  0.00    +0.000 A 
ATOM      6  C   UNL     1      48.518   7.091  12.337  0.00  0.00    +0.000 A 
ATOM      7  N   UNL     1      48.685   6.218  13.345  0.00  0.00    +0.000 NA
BRANCH   2   8
ATOM      8  O   UNL     1      47.727   4.556  14.695  0.00  0.00    +0.000 OA
BRANCH   8  13
ATOM      9  C   UNL     1      47.510   5.560  19.084  0.00  0.00    +0.000 C 
ATOM     10  C   UNL     1      48.062   4.539  18.090  0.00  0.00    +0.000 C 
ATOM     11  C   UNL     1      48.821   3.421  18.797  0.00  0.00    +0.000 C 
ATOM     12  C   UNL     1      48.841   5.166  16.905  0.00  0.00    +0.000 C 
ATOM     13  C   UNL     1      47.558   5.070  16.038  0.00  0.00    +0.000 C 
ATOM     14  C   UNL     1      47.022   4.032  17.055  0.00  0.00    +0.000 C 
ENDBRANCH   8  13
ENDBRANCH   2   8
ENDBRANCH   1   4
BRANCH   1  15
ATOM     15  C   UNL     1      44.088   5.275  11.253  0.00  0.00    +0.000 C 
BRANCH  15  16
ATOM     16  N   UNL     1      43.724   4.856   9.897  0.00  0.00    +0.000 N 
ATOM     17  H   UNL     1      43.407   5.630   9.316  0.00  0.00    +0.000 HD
BRANCH  16  18
ATOM     18  C   UNL     1      44.686   4.067   9.227  0.00  0.00    +0.000 A 
ATOM     19  C   UNL     1      44.715   2.668   9.311  0.00  0.00    +0.000 A 
ATOM     20  C   UNL     1      45.634   1.923   8.574  0.00  0.00    +0.000 A 
ATOM     21  C   UNL     1      46.495   2.598   7.729  0.00  0.00    +0.000 A 
ATOM     22  N   UNL     1      46.501   3.950   7.577  0.00  0.00    +0.000 NA
ATOM     23  C   UNL     1      45.583   4.633   8.315  0.00  0.00    +0.000 A 
BRANCH  21  24
ATOM     24  C   UNL     1      47.472   1.809   6.910  0.00  0.00    +0.000 C 
ATOM     25  N   UNL     1      48.498   2.529   6.361  0.00  0.00    +0.000 N 
ATOM     26  O   UNL     1      47.365   0.605   6.729  0.00  0.00    +0.000 OA
ATOM     27  H   UNL     1      48.540   3.529   6.508  0.00  0.00    +0.000 HD
ATOM     28  H   UNL     1      49.167   2.062   5.769  0.00  0.00    +0.000 HD
ENDBRANCH  21  24
ENDBRANCH  16  18
ENDBRANCH  15  16
ENDBRANCH   1  15
TORSDOF 7
ENDMDL
MODEL 3
REMARK VINA RESULT:    -7.838      2.404      3.997
REMARK INTER + INTRA:         -11.759
REMARK INTER:                 -10.867
REMARK INTRA:                  -0.891
REMARK UNBOUND:                -0.713
REMARK  Name = 
REMARK  9 active torsions:
REMARK  status: ('A' for Active; 'I' for Inactive)
REMARK    1  A    between atoms: C_1  and  C_2
REMARK    2  A    between atoms: C_2  and  C_3
REMARK    3  A    between atoms: C_5  and  O_6
REMARK    4  A    between atoms: O_6  and  C_7
REMARK    5  A    between atoms: C_9  and  C_10
REMARK    6  A    between atoms: C_10  and  C_11
REMARK    7  A    between atoms: C_11  and  N_12
REMARK    8  A    between atoms: N_12  and  C_13
REMARK    9  A    between atoms: C_16  and  C_17
REMARK                            x       y       z     vdW  Elec       q    Type
REMARK                         _______ _______ _______ _____ _____    ______ ____
ROOT
ATOM      1  C   UNL     1      43.725   5.482  12.359  0.00  0.00    +0.000 C 
ENDROOT
BRANCH   1   4
ATOM      2  C   UNL     1      47.239   6.110  13.652  0.00  0.00    +0.000 A 
ATOM      3  C   UNL     1      45.967   6.341  13.143  0.00  0.00    +0.000 A 
ATOM      4  C   UNL     1      45.137   5.245  12.873  0.00  0.00    +0.000 A 
ATOM      5  C   UNL     1      45.666   3.969  13.115  0.00  0.00    +0.000 A 
ATOM      6  C   UNL     1      46.955   3.843  13.605  0.00  0.00    +0.000 A 
ATOM      7  N   UNL     1      47.756   4.886  13.885  0.00  0.00    +0.000 NA
BRANCH   2   8
ATOM      8  O   UNL     1      48.009   7.217  13.952  0.00  0.00    +0.000 OA
BRANCH   8  13
ATOM      9  C   UNL     1      51.355   8.316  11.138  0.00  0.00    +0.000 C 
ATOM     10  C   UNL     1      50.000   8.784  11.667  0.00  0.00    +0.000 C 
ATOM     11  C   UNL     1      49.574  10.103  11.030  0.00  0.00    +0.000 C 
ATOM     12  C   UNL     1      49.886   8.775  13.213  0.00  0.00    +0.000 C 
ATOM     13  C   UNL     1      49.190   7.390  13.133  0.00  0.00    +0.000 C 
ATOM     14  C   UNL     1      48.896   7.692  11.643  0.00  0.00    +0.000 C 
ENDBRANCH   8  13
ENDBRANCH   2   8
ENDBRANCH   1   4
BRANCH   1  15
ATOM     15  C   UNL     1      43.558   5.207  10.858  0.00  0.00    +0.000 C 
BRANCH  15  16
ATOM     16  N   UNL     1      43.612   3.785  10.511  0.00  0.00    +0.000 N 
ATOM     17  H   UNL     1      42.691   3.386  10.333  0.00  0.00    +0.000 HD
BRANCH  16  18
ATOM     18  C   UNL     1      44.530   3.442   9.492  0.00  0.00    +0.000 A 
ATOM     19  C   UNL     1      45.202   4.399   8.720  0.00  0.00    +0.000 A 
ATOM     20  C   UNL     1      46.155   4.020   7.777  0.00  0.00    +0.000 A 
ATOM     21  C   UNL     1      46.450   2.676   7.648  0.00  0.00    +0.000 A 
ATOM     22  N   UNL     1      45.858   1.698   8.386  0.00  0.00    +0.000 NA
ATOM     23  C   UNL     1      44.936   2.117   9.296  0.00  0.00    +0.000 A 
BRANCH  21  24
ATOM     24  C   UNL     1      47.492   2.254   6.657  0.00  0.00    +0.000 C 
ATOM     25  N   UNL     1      47.475   2.922   5.462  0.00  0.00    +0.000 N 
ATOM     26  O   UNL     1      48.302   1.367   6.884  0.00  0.00    +0.000 OA
ATOM     27  H   UNL     1      46.772   3.631   5.298  0.00  0.00    +0.000 HD
ATOM     28  H   UNL     1      48.126   2.658   4.739  0.00  0.00    +0.000 HD
ENDBRANCH  21  24
ENDBRANCH  16  18
ENDBRANCH  15  16
ENDBRANCH   1  15
TORSDOF 7
ENDMDL
MODEL 4
REMARK VINA RESULT:    -7.208      2.174      7.771
REMARK INTER + INTRA:         -10.870
REMARK INTER:                 -10.152
REMARK INTRA:                  -0.718
REMARK UNBOUND:                -0.713
REMARK  Name = 
REMARK  9 active torsions:
REMARK  status: ('A' for Active; 'I' for Inactive)
REMARK    1  A    between atoms: C_1  and  C_2
REMARK    2  A    between atoms: C_2  and  C_3
REMARK    3  A    between atoms: C_5  and  O_6
REMARK    4  A    between atoms: O_6  and  C_7
REMARK    5  A    between atoms: C_9  and  C_10
REMARK    6  A    between atoms: C_10  and  C_11
REMARK    7  A    between atoms: C_11  and  N_12
REMARK    8  A    between atoms: N_12  and  C_13
REMARK    9  A    between atoms: C_16  and  C_17
REMARK                            x       y       z     vdW  Elec       q    Type
REMARK                         _______ _______ _______ _____ _____    ______ ____
ROOT
ATOM      1  C   UNL     1      45.280   7.430  11.495  0.00  0.00    +0.000 C 
ENDROOT
BRANCH   1   4
ATOM      2  C   UNL     1      44.662   3.805  10.552  0.00  0.00    +0.000 A 
ATOM      3  C   UNL     1      45.293   5.033  10.698  0.00  0.00    +0.000 A 
ATOM      4  C   UNL     1      44.588   6.090  11.286  0.00  0.00    +0.000 A 
ATOM      5  C   UNL     1      43.264   5.839  11.672  0.00  0.00    +0.000 A 
ATOM      6  C   UNL     1      42.717   4.583  11.465  0.00  0.00    +0.000 A 
ATOM      7  N   UNL     1      43.387   3.555  10.918  0.00  0.00    +0.000 NA
BRANCH   2   8
ATOM      8  O   UNL     1      45.405   2.773  10.013  0.00  0.00    +0.000 OA
BRANCH   8  13
ATOM      9  C   UNL     1      46.107   2.550   5.565  0.00  0.00    +0.000 C 
ATOM     10  C   UNL     1      46.819   2.526   6.917  0.00  0.00    +0.000 C 
ATOM     11  C   UNL     1      48.329   2.383   6.755  0.00  0.00    +0.000 C 
ATOM     12  C   UNL     1      46.207   1.530   7.937  0.00  0.00    +0.000 C 
ATOM     13  C   UNL     1      45.405   2.700   8.567  0.00  0.00    +0.000 C 
ATOM     14  C   UNL     1      46.398   3.669   7.879  0.00  0.00    +0.000 C 
ENDBRANCH   8  13
ENDBRANCH   2   8
ENDBRANCH   1   4
BRANCH   1  15
ATOM     15  C   UNL     1      46.020   7.543  12.835  0.00  0.00    +0.000 C 
BRANCH  15  16
ATOM     16  N   UNL     1      47.332   6.892  12.839  0.00  0.00    +0.000 N 
ATOM     17  H   UNL     1      48.099   7.547  12.694  0.00  0.00    +0.000 HD
BRANCH  16  18
ATOM     18  C   UNL     1      47.582   6.037  13.936  0.00  0.00    +0.000 A 
ATOM     19  C   UNL     1      48.295   6.444  15.072  0.00  0.00    +0.000 A 
ATOM     20  C   UNL     1      48.454   5.593  16.163  0.00  0.00    +0.000 A 
ATOM     21  C   UNL     1      47.859   4.346  16.113  0.00  0.00    +0.000 A 
ATOM     22  N   UNL     1      47.129   3.899  15.056  0.00  0.00    +0.000 NA
ATOM     23  C   UNL     1      46.999   4.767  14.015  0.00  0.00    +0.000 A 
BRANCH  21  24
ATOM     24  C   UNL     1      47.999   3.429  17.290  0.00  0.00    +0.000 C 
ATOM     25  N   UNL     1      46.867   2.746  17.645  0.00  0.00    +0.000 N 
ATOM     26  O   UNL     1      49.047   3.297  17.907  0.00  0.00    +0.000 OA
ATOM     27  H   UNL     1      46.011   2.901  17.130  0.00  0.00    +0.000 HD
ATOM     28  H   UNL     1      46.887   2.142  18.452  0.00  0.00    +0.000 HD
ENDBRANCH  21  24
ENDBRANCH  16  18
ENDBRANCH  15  16
ENDBRANCH   1  15
TORSDOF 7
ENDMDL
MODEL 5
REMARK VINA RESULT:    -7.126      2.637      8.674
REMARK INTER + INTRA:         -10.755
REMARK INTER:                 -10.075
REMARK INTRA:                  -0.680
REMARK UNBOUND:                -0.713
REMARK  Name = 
REMARK  9 active torsions:
REMARK  status: ('A' for Active; 'I' for Inactive)
REMARK    1  A    between atoms: C_1  and  C_2
REMARK    2  A    between atoms: C_2  and  C_3
REMARK    3  A    between atoms: C_5  and  O_6
REMARK    4  A    between atoms: O_6  and  C_7
REMARK    5  A    between atoms: C_9  and  C_10
REMARK    6  A    between atoms: C_10  and  C_11
REMARK    7  A    between atoms: C_11  and  N_12
REMARK    8  A    between atoms: N_12  and  C_13
REMARK    9  A    between atoms: C_16  and  C_17
REMARK                            x       y       z     vdW  Elec       q    Type
REMARK                         _______ _______ _______ _____ _____    ______ ____
ROOT
ATOM      1  C   UNL     1      46.232   3.756  13.332  0.00  0.00    +0.000 C 
ENDROOT
BRANCH   1   4
ATOM      2  C   UNL     1      44.289   4.476  10.151  0.00  0.00    +0.000 A 
ATOM      3  C   UNL     1      45.317   4.090  11.002  0.00  0.00    +0.000 A 
ATOM      4  C   UNL     1      45.135   4.217  12.384  0.00  0.00    +0.000 A 
ATOM      5  C   UNL     1      43.916   4.758  12.821  0.00  0.00    +0.000 A 
ATOM      6  C   UNL     1      42.961   5.132  11.891  0.00  0.00    +0.000 A 
ATOM      7  N   UNL     1      43.116   4.999  10.562  0.00  0.00    +0.000 NA
BRANCH   2   8
ATOM      8  O   UNL     1      44.487   4.290   8.797  0.00  0.00    +0.000 OA
BRANCH   8  13
ATOM      9  C   UNL     1      47.757   1.733   7.038  0.00  0.00    +0.000 C 
ATOM     10  C   UNL     1      46.692   2.769   6.683  0.00  0.00    +0.000 C 
ATOM     11  C   UNL     1      46.688   3.080   5.190  0.00  0.00    +0.000 C 
ATOM     12  C   UNL     1      46.713   4.033   7.581  0.00  0.00    +0.000 C 
ATOM     13  C   UNL     1      45.583   3.412   8.445  0.00  0.00    +0.000 C 
ATOM     14  C   UNL     1      45.284   2.460   7.262  0.00  0.00    +0.000 C 
ENDBRANCH   8  13
ENDBRANCH   2   8
ENDBRANCH   1   4
BRANCH   1  15
ATOM     15  C   UNL     1      46.715   4.848  14.298  0.00  0.00    +0.000 C 
BRANCH  15  16
ATOM     16  N   UNL     1      46.576   4.485  15.711  0.00  0.00    +0.000 N 
ATOM     17  H   UNL     1      45.876   3.762  15.866  0.00  0.00    +0.000 HD
BRANCH  16  18
ATOM     18  C   UNL     1      47.784   4.189  16.382  0.00  0.00    +0.000 A 
ATOM     19  C   UNL     1      48.119   2.897  16.812  0.00  0.00    +0.000 A 
ATOM     20  C   UNL     1      49.354   2.635  17.403  0.00  0.00    +0.000 A 
ATOM     21  C   UNL     1      50.256   3.676  17.523  0.00  0.00    +0.000 A 
ATOM     22  N   UNL     1      50.007   4.945  17.100  0.00  0.00    +0.000 NA
ATOM     23  C   UNL     1      48.790   5.151  16.527  0.00  0.00    +0.000 A 
BRANCH  21  24
ATOM     24  C   UNL     1      51.598   3.404  18.133  0.00  0.00    +0.000 C 
ATOM     25  N   UNL     1      52.075   2.132  17.968  0.00  0.00    +0.000 N 
ATOM     26  O   UNL     1      52.229   4.251  18.749  0.00  0.00    +0.000 OA
ATOM     27  H   UNL     1      51.513   1.449  17.477  0.00  0.00    +0.000 HD
ATOM     28  H   UNL     1      52.955   1.877  18.388  0.00  0.00    +0.000 HD
ENDBRANCH  21  24
ENDBRANCH  16  18
ENDBRANCH  15  16
ENDBRANCH   1  15
TORSDOF 7
ENDMDL
MODEL 6
REMARK VINA RESULT:    -6.892      2.401      2.901
REMARK INTER + INTRA:         -10.425
REMARK INTER:                  -9.497
REMARK INTRA:                  -0.928
REMARK UNBOUND:                -0.713
REMARK  Name = 
REMARK  9 active torsions:
REMARK  status: ('A' for Active; 'I' for Inactive)
REMARK    1  A    between atoms: C_1  and  C_2
REMARK    2  A    between atoms: C_2  and  C_3
REMARK    3  A    between atoms: C_5  and  O_6
REMARK    4  A    between atoms: O_6  and  C_7
REMARK    5  A    between atoms: C_9  and  C_10
REMARK    6  A    between atoms: C_10  and  C_11
REMARK    7  A    between atoms: C_11  and  N_12
REMARK    8  A    between atoms: N_12  and  C_13
REMARK    9  A    between atoms: C_16  and  C_17
REMARK                            x       y       z     vdW  Elec       q    Type
REMARK                         _______ _______ _______ _____ _____    ______ ____
ROOT
ATOM      1  C   UNL     1      45.259   5.384  12.225  0.00  0.00    +0.000 C 
ENDROOT
BRANCH   1   4
ATOM      2  C   UNL     1      48.521   6.526  13.795  0.00  0.00    +0.000 A 
ATOM      3  C   UNL     1      47.287   5.910  13.636  0.00  0.00    +0.000 A 
ATOM      4  C   UNL     1      46.592   6.088  12.433  0.00  0.00    +0.000 A 
ATOM      5  C   UNL     1      47.189   6.909  11.466  0.00  0.00    +0.000 A 
ATOM      6  C   UNL     1      48.416   7.495  11.729  0.00  0.00    +0.000 A 
ATOM      7  N   UNL     1      49.102   7.319  12.871  0.00  0.00    +0.000 NA
BRANCH   2   8
ATOM      8  O   UNL     1      49.199   6.287  14.975  0.00  0.00    +0.000 OA
BRANCH   8  13
ATOM      9  C   UNL     1      50.271   9.818  17.565  0.00  0.00    +0.000 C 
ATOM     10  C   UNL     1      49.388   8.573  17.501  0.00  0.00    +0.000 C 
ATOM     11  C   UNL     1      48.523   8.433  18.750  0.00  0.00    +0.000 C 
ATOM     12  C   UNL     1      50.148   7.275  17.124  0.00  0.00    +0.000 C 
ATOM     13  C   UNL     1      49.700   7.465  15.651  0.00  0.00    +0.000 C 
ATOM     14  C   UNL     1      48.598   8.419  16.173  0.00  0.00    +0.000 C 
ENDBRANCH   8  13
ENDBRANCH   2   8
ENDBRANCH   1   4
BRANCH   1  15
ATOM     15  C   UNL     1      44.525   5.813  10.947  0.00  0.00    +0.000 C 
BRANCH  15  16
ATOM     16  N   UNL     1      43.900   4.702  10.226  0.00  0.00    +0.000 N 
ATOM     17  H   UNL     1      43.008   4.956   9.803  0.00  0.00    +0.000 HD
BRANCH  16  18
ATOM     18  C   UNL     1      44.735   4.028   9.306  0.00  0.00    +0.000 A 
ATOM     19  C   UNL     1      45.659   4.693   8.489  0.00  0.00    +0.000 A 
ATOM     20  C   UNL     1      46.517   3.983   7.651  0.00  0.00    +0.000 A 
ATOM     21  C   UNL     1      46.459   2.602   7.672  0.00  0.00    +0.000 A 
ATOM     22  N   UNL     1      45.608   1.894   8.462  0.00  0.00    +0.000 NA
ATOM     23  C   UNL     1      44.792   2.630   9.266  0.00  0.00    +0.000 A 
BRANCH  21  24
ATOM     24  C   UNL     1      47.392   1.824   6.795  0.00  0.00    +0.000 C 
ATOM     25  N   UNL     1      48.059   2.554   5.848  0.00  0.00    +0.000 N 
ATOM     26  O   UNL     1      47.549   0.616   6.901  0.00  0.00    +0.000 OA
ATOM     27  H   UNL     1      47.884   3.547   5.771  0.00  0.00    +0.000 HD
ATOM     28  H   UNL     1      48.673   2.082   5.203  0.00  0.00    +0.000 HD
ENDBRANCH  21  24
ENDBRANCH  16  18
ENDBRANCH  15  16
ENDBRANCH   1  15
TORSDOF 7
ENDMDL
MODEL 7
REMARK VINA RESULT:    -6.314      3.432      4.147
REMARK INTER + INTRA:          -9.611
REMARK INTER:                  -8.913
REMARK INTRA:                  -0.698
REMARK UNBOUND:                -0.713
REMARK  Name = 
REMARK  9 active torsions:
REMARK  status: ('A' for Active; 'I' for Inactive)
REMARK    1  A    between atoms: C_1  and  C_2
REMARK    2  A    between atoms: C_2  and  C_3
REMARK    3  A    between atoms: C_5  and  O_6
REMARK    4  A    between atoms: O_6  and  C_7
REMARK    5  A    between atoms: C_9  and  C_10
REMARK    6  A    between atoms: C_10  and  C_11
REMARK    7  A    between atoms: C_11  and  N_12
REMARK    8  A    between atoms: N_12  and  C_13
REMARK    9  A    between atoms: C_16  and  C_17
REMARK                            x       y       z     vdW  Elec       q    Type
REMARK                         _______ _______ _______ _____ _____    ______ ____
ROOT
ATOM      1  C   UNL     1      42.774   5.662  11.555  0.00  0.00    +0.000 C 
ENDROOT
BRANCH   1   4
ATOM      2  C   UNL     1      45.740   7.867  12.425  0.00  0.00    +0.000 A 
ATOM      3  C   UNL     1      44.888   6.771  12.382  0.00  0.00    +0.000 A 
ATOM      4  C   UNL     1      43.698   6.868  11.650  0.00  0.00    +0.000 A 
ATOM      5  C   UNL     1      43.434   8.093  11.020  0.00  0.00    +0.000 A 
ATOM      6  C   UNL     1      44.339   9.134  11.139  0.00  0.00    +0.000 A 
ATOM      7  N   UNL     1      45.493   9.049  11.824  0.00  0.00    +0.000 NA
BRANCH   2   8
ATOM      8  O   UNL     1      46.927   7.717  13.116  0.00  0.00    +0.000 OA
BRANCH   8  13
ATOM      9  C   UNL     1      50.974   7.854  11.137  0.00  0.00    +0.000 C 
ATOM     10  C   UNL     1      50.261   8.052  12.473  0.00  0.00    +0.000 C 
ATOM     11  C   UNL     1      51.235   8.453  13.576  0.00  0.00    +0.000 C 
ATOM     12  C   UNL     1      49.322   6.882  12.869  0.00  0.00    +0.000 C 
ATOM     13  C   UNL     1      48.120   7.681  12.298  0.00  0.00    +0.000 C 
ATOM     14  C   UNL     1      48.999   8.953  12.394  0.00  0.00    +0.000 C 
ENDBRANCH   8  13
ENDBRANCH   2   8
ENDBRANCH   1   4
BRANCH   1  15
ATOM     15  C   UNL     1      43.167   4.666  10.455  0.00  0.00    +0.000 C 
BRANCH  15  16
ATOM     16  N   UNL     1      44.316   3.827  10.805  0.00  0.00    +0.000 N 
ATOM     17  H   UNL     1      44.062   3.034  11.391  0.00  0.00    +0.000 HD
BRANCH  16  18
ATOM     18  C   UNL     1      45.131   3.430   9.721  0.00  0.00    +0.000 A 
ATOM     19  C   UNL     1      45.351   2.087   9.386  0.00  0.00    +0.000 A 
ATOM     20  C   UNL     1      46.100   1.741   8.263  0.00  0.00    +0.000 A 
ATOM     21  C   UNL     1      46.592   2.757   7.465  0.00  0.00    +0.000 A 
ATOM     22  N   UNL     1      46.390   4.079   7.715  0.00  0.00    +0.000 NA
ATOM     23  C   UNL     1      45.650   4.368   8.821  0.00  0.00    +0.000 A 
BRANCH  21  24
ATOM     24  C   UNL     1      47.377   2.401   6.240  0.00  0.00    +0.000 C 
ATOM     25  N   UNL     1      47.180   3.211   5.155  0.00  0.00    +0.000 N 
ATOM     26  O   UNL     1      48.140   1.446   6.196  0.00  0.00    +0.000 OA
ATOM     27  H   UNL     1      46.520   3.975   5.218  0.00  0.00    +0.000 HD
ATOM     28  H   UNL     1      47.651   3.001   4.289  0.00  0.00    +0.000 HD
ENDBRANCH  21  24
ENDBRANCH  16  18
ENDBRANCH  15  16
ENDBRANCH   1  15
TORSDOF 7
ENDMDL
MODEL 8
REMARK VINA RESULT:    -6.294      4.144      7.584
REMARK INTER + INTRA:          -9.583
REMARK INTER:                  -8.132
REMARK INTRA:                  -1.451
REMARK UNBOUND:                -0.713
REMARK  Name = 
REMARK  9 active torsions:
REMARK  status: ('A' for Active; 'I' for Inactive)
REMARK    1  A    between atoms: C_1  and  C_2
REMARK    2  A    between atoms: C_2  and  C_3
REMARK    3  A    between atoms: C_5  and  O_6
REMARK    4  A    between atoms: O_6  and  C_7
REMARK    5  A    between atoms: C_9  and  C_10
REMARK    6  A    between atoms: C_10  and  C_11
REMARK    7  A    between atoms: C_11  and  N_12
REMARK    8  A    between atoms: N_12  and  C_13
REMARK    9  A    between atoms: C_16  and  C_17
REMARK                            x       y       z     vdW  Elec       q    Type
REMARK                         _______ _______ _______ _____ _____    ______ ____
ROOT
ATOM      1  C   UNL     1      48.581   9.381  12.535  0.00  0.00    +0.000 C 
ENDROOT
BRANCH   1   4
ATOM      2  C   UNL     1      44.979   8.539  11.679  0.00  0.00    +0.000 A 
ATOM      3  C   UNL     1      46.319   8.386  12.012  0.00  0.00    +0.000 A 
ATOM      4  C   UNL     1      47.122   9.527  12.126  0.00  0.00    +0.000 A 
ATOM      5  C   UNL     1      46.515  10.764  11.866  0.00  0.00    +0.000 A 
ATOM      6  C   UNL     1      45.175  10.810  11.521  0.00  0.00    +0.000 A 
ATOM      7  N   UNL     1      44.387   9.724  11.425  0.00  0.00    +0.000 NA
BRANCH   2   8
ATOM      8  O   UNL     1      44.207   7.395  11.624  0.00  0.00    +0.000 OA
BRANCH   8  13
ATOM      9  C   UNL     1      45.726   3.261  12.586  0.00  0.00    +0.000 C 
ATOM     10  C   UNL     1      44.528   4.021  12.019  0.00  0.00    +0.000 C 
ATOM     11  C   UNL     1      43.398   3.075  11.625  0.00  0.00    +0.000 C 
ATOM     12  C   UNL     1      44.894   5.045  10.913  0.00  0.00    +0.000 C 
ATOM     13  C   UNL     1      44.890   6.169  11.983  0.00  0.00    +0.000 C 
ATOM     14  C   UNL     1      44.066   5.221  12.888  0.00  0.00    +0.000 C 
ENDBRANCH   8  13
ENDBRANCH   2   8
ENDBRANCH   1   4
BRANCH   1  15
ATOM     15  C   UNL     1      48.969   7.953  12.945  0.00  0.00    +0.000 C 
BRANCH  15  16
ATOM     16  N   UNL     1      49.457   7.849  14.322  0.00  0.00    +0.000 N 
ATOM     17  H   UNL     1      49.451   8.743  14.812  0.00  0.00    +0.000 HD
BRANCH  16  18
ATOM     18  C   UNL     1      48.867   6.828  15.100  0.00  0.00    +0.000 A 
ATOM     19  C   UNL     1      47.940   5.915  14.580  0.00  0.00    +0.000 A 
ATOM     20  C   UNL     1      47.439   4.876  15.363  0.00  0.00    +0.000 A 
ATOM     21  C   UNL     1      47.907   4.748  16.658  0.00  0.00    +0.000 A 
ATOM     22  N   UNL     1      48.828   5.580  17.214  0.00  0.00    +0.000 NA
ATOM     23  C   UNL     1      49.290   6.577  16.410  0.00  0.00    +0.000 A 
BRANCH  21  24
ATOM     24  C   UNL     1      47.397   3.621  17.504  0.00  0.00    +0.000 C 
ATOM     25  N   UNL     1      48.212   3.241  18.536  0.00  0.00    +0.000 N 
ATOM     26  O   UNL     1      46.330   3.062  17.291  0.00  0.00    +0.000 OA
ATOM     27  H   UNL     1      49.101   3.707  18.665  0.00  0.00    +0.000 HD
ATOM     28  H   UNL     1      47.942   2.464  19.118  0.00  0.00    +0.000 HD
ENDBRANCH  21  24
ENDBRANCH  16  18
ENDBRANCH  15  16
ENDBRANCH   1  15
TORSDOF 7
ENDMDL
MODEL 9
REMARK VINA RESULT:    -6.192      2.771      8.721
REMARK INTER + INTRA:          -9.439
REMARK INTER:                  -8.832
REMARK INTRA:                  -0.607
REMARK UNBOUND:                -0.713
REMARK  Name = 
REMARK  9 active torsions:
REMARK  status: ('A' for Active; 'I' for Inactive)
REMARK    1  A    between atoms: C_1  and  C_2
REMARK    2  A    between atoms: C_2  and  C_3
REMARK    3  A    between atoms: C_5  and  O_6
REMARK    4  A    between atoms: O_6  and  C_7
REMARK    5  A    between atoms: C_9  and  C_10
REMARK    6  A    between atoms: C_10  and  C_11
REMARK    7  A    between atoms: C_11  and  N_12
REMARK    8  A    between atoms: N_12  and  C_13
REMARK    9  A    between atoms: C_16  and  C_17
REMARK                            x       y       z     vdW  Elec       q    Type
REMARK                         _______ _______ _______ _____ _____    ______ ____
ROOT
ATOM      1  C   UNL     1      46.417   5.178  13.364  0.00  0.00    +0.000 C 
ENDROOT
BRANCH   1   4
ATOM      2  C   UNL     1      44.540   4.928  10.073  0.00  0.00    +0.000 A 
ATOM      3  C   UNL     1      45.584   5.028  10.984  0.00  0.00    +0.000 A 
ATOM      4  C   UNL     1      45.285   5.114  12.349  0.00  0.00    +0.000 A 
ATOM      5  C   UNL     1      43.929   5.119  12.707  0.00  0.00    +0.000 A 
ATOM      6  C   UNL     1      42.960   5.035  11.720  0.00  0.00    +0.000 A 
ATOM      7  N   UNL     1      43.234   4.934  10.408  0.00  0.00    +0.000 NA
BRANCH   2   8
ATOM      8  O   UNL     1      44.876   4.796   8.740  0.00  0.00    +0.000 OA
BRANCH   8  13
ATOM      9  C   UNL     1      47.563   1.562   7.114  0.00  0.00    +0.000 C 
ATOM     10  C   UNL     1      46.701   2.755   6.703  0.00  0.00    +0.000 C 
ATOM     11  C   UNL     1      46.715   2.965   5.193  0.00  0.00    +0.000 C 
ATOM     12  C   UNL     1      46.981   4.048   7.513  0.00  0.00    +0.000 C 
ATOM     13  C   UNL     1      45.779   3.707   8.434  0.00  0.00    +0.000 C 
ATOM     14  C   UNL     1      45.277   2.753   7.322  0.00  0.00    +0.000 C 
ENDBRANCH   8  13
ENDBRANCH   2   8
ENDBRANCH   1   4
BRANCH   1  15
ATOM     15  C   UNL     1      47.356   6.377  13.169  0.00  0.00    +0.000 C 
BRANCH  15  16
ATOM     16  N   UNL     1      47.608   7.132  14.399  0.00  0.00    +0.000 N 
ATOM     17  H   UNL     1      46.786   7.197  14.998  0.00  0.00    +0.000 HD
BRANCH  16  18
ATOM     18  C   UNL     1      48.751   6.737  15.130  0.00  0.00    +0.000 A 
ATOM     19  C   UNL     1      49.996   7.367  14.994  0.00  0.00    +0.000 A 
ATOM     20  C   UNL     1      51.079   6.995  15.789  0.00  0.00    +0.000 A 
ATOM     21  C   UNL     1      50.885   6.013  16.742  0.00  0.00    +0.000 A 
ATOM     22  N   UNL     1      49.696   5.383  16.947  0.00  0.00    +0.000 NA
ATOM     23  C   UNL     1      48.668   5.782  16.149  0.00  0.00    +0.000 A 
BRANCH  21  24
ATOM     24  C   UNL     1      52.032   5.620  17.622  0.00  0.00    +0.000 C 
ATOM     25  N   UNL     1      53.233   5.451  16.987  0.00  0.00    +0.000 N 
ATOM     26  O   UNL     1      51.916   5.450  18.827  0.00  0.00    +0.000 OA
ATOM     27  H   UNL     1      53.287   5.573  15.984  0.00  0.00    +0.000 HD
ATOM     28  H   UNL     1      54.034   5.150  17.518  0.00  0.00    +0.000 HD
ENDBRANCH  21  24
ENDBRANCH  16  18
ENDBRANCH  15  16
ENDBRANCH   1  15
TORSDOF 7
ENDMDL
