MODEL 1
REMARK VINA RESULT:    -7.898      0.000      0.000
REMARK INTER + INTRA:         -10.375
REMARK INTER:                  -9.975
REMARK INTRA:                  -0.400
REMARK UNBOUND:                -0.400
REMARK  Name = 
REMARK  6 active torsions:
REMARK  status: ('A' for Active; 'I' for Inactive)
REMARK    1  A    between atoms: C_1  and  O_2
REMARK    2  A    between atoms: O_2  and  C_3
REMARK    3  A    between atoms: N_10  and  C_11
REMARK    4  A    between atoms: C_11  and  C_12
REMARK    5  A    between atoms: C_16  and  C_17
REMARK    6  A    between atoms: C_17  and  N_18
REMARK                            x       y       z     vdW  Elec       q    Type
REMARK                         _______ _______ _______ _____ _____    ______ ____
ROOT
ATOM      1  C   UNL     1      46.876   6.189  13.101  0.00  0.00    +0.000 A 
ATOM      2  C   UNL     1      46.890   6.568  11.760  0.00  0.00    +0.000 A 
ATOM      3  C   UNL     1      46.042   5.955  10.826  0.00  0.00    +0.000 A 
ATOM      4  C   UNL     1      45.167   4.952  11.278  0.00  0.00    +0.000 A 
ATOM      5  C   UNL     1      45.122   4.572  12.622  0.00  0.00    +0.000 A 
ATOM      6  C   UNL     1      44.121   3.572  12.750  0.00  0.00    +0.000 A 
ATOM      7  C   UNL     1      43.587   3.352  11.501  0.00  0.00    +0.000 A 
ATOM      8  N   UNL     1      44.241   4.168  10.611  0.00  0.00    +0.000 N 
ATOM      9  C   UNL     1      46.003   5.183  13.534  0.00  0.00    +0.000 A 
ENDROOT
BRANCH   1  11
ATOM     10  C   UNL     1      48.981   7.133  13.649  0.00  0.00    +0.000 C 
ATOM     11  O   UNL     1      47.697   6.693  14.075  0.00  0.00    +0.000 OA
ENDBRANCH   1  11
BRANCH   8  12
ATOM     12  C   UNL     1      44.062   4.095   9.162  0.00  0.00    +0.000 C 
BRANCH  12  13
ATOM     13  C   UNL     1      44.974   3.118   8.471  0.00  0.00    +0.000 A 
ATOM     14  C   UNL     1      45.117   1.831   8.985  0.00  0.00    +0.000 A 
ATOM     15  N   UNL     1      45.973   0.904   8.502  0.00  0.00    +0.000 NA
ATOM     16  C   UNL     1      46.741   1.273   7.452  0.00  0.00    +0.000 A 
ATOM     17  C   UNL     1      46.685   2.524   6.849  0.00  0.00    +0.000 A 
ATOM     18  C   UNL     1      45.789   3.455   7.384  0.00  0.00    +0.000 A 
BRANCH  17  19
ATOM     19  C   UNL     1      47.535   2.855   5.657  0.00  0.00    +0.000 C 
BRANCH  19  20
ATOM     20  N   UNL     1      48.516   1.813   5.378  0.00  0.00    +0.000 NA
ATOM     21  H   UNL     1      48.140   1.187   4.666  0.00  0.00    +0.000 HD
ATOM     22  H   UNL     1      48.642   1.247   6.215  0.00  0.00    +0.000 HD
ENDBRANCH  19  20
ENDBRANCH  17  19
ENDBRANCH  12  13
ENDBRANCH   8  12
TORSDOF 5
ENDMDL
MODEL 2
REMARK VINA RESULT:    -7.193      1.470      2.209
REMARK INTER + INTRA:          -9.485
REMARK INTER:                  -8.929
REMARK INTRA:                  -0.557
REMARK UNBOUND:                -0.400
REMARK  Name = 
REMARK  6 active torsions:
REMARK  status: ('A' for Active; 'I' for Inactive)
REMARK    1  A    between atoms: C_1  and  O_2
REMARK    2  A    between atoms: O_2  and  C_3
REMARK    3  A    between atoms: N_10  and  C_11
REMARK    4  A    between atoms: C_11  and  C_12
REMARK    5  A    between atoms: C_16  and  C_17
REMARK    6  A    between atoms: C_17  and  N_18
REMARK                            x       y       z     vdW  Elec       q    Type
REMARK                         _______ _______ _______ _____ _____    ______ ____
ROOT
ATOM      1  C   UNL     1      47.153   4.629  14.344  0.00  0.00    +0.000 A 
ATOM      2  C   UNL     1      46.699   3.495  13.675  0.00  0.00    +0.000 A 
ATOM      3  C   UNL     1      45.889   3.603  12.535  0.00  0.00    +0.000 A 
ATOM      4  C   UNL     1      45.553   4.888  12.075  0.00  0.00    +0.000 A 
ATOM      5  C   UNL     1      46.014   6.039  12.719  0.00  0.00    +0.000 A 
ATOM      6  C   UNL     1      45.529   7.159  11.993  0.00  0.00    +0.000 A 
ATOM      7  C   UNL     1      44.781   6.682  10.942  0.00  0.00    +0.000 A 
ATOM      8  N   UNL     1      44.775   5.311  11.011  0.00  0.00    +0.000 N 
ATOM      9  C   UNL     1      46.803   5.903  13.877  0.00  0.00    +0.000 A 
ENDROOT
BRANCH   1  11
ATOM     10  C   UNL     1      47.504   3.712  16.502  0.00  0.00    +0.000 C 
ATOM     11  O   UNL     1      47.906   4.626  15.488  0.00  0.00    +0.000 OA
ENDBRANCH   1  11
BRANCH   8  12
ATOM     12  C   UNL     1      43.947   4.460  10.159  0.00  0.00    +0.000 C 
BRANCH  12  13
ATOM     13  C   UNL     1      44.724   3.527   9.269  0.00  0.00    +0.000 A 
ATOM     14  C   UNL     1      44.643   2.152   9.478  0.00  0.00    +0.000 A 
ATOM     15  N   UNL     1      45.364   1.231   8.803  0.00  0.00    +0.000 NA
ATOM     16  C   UNL     1      46.223   1.696   7.867  0.00  0.00    +0.000 A 
ATOM     17  C   UNL     1      46.387   3.043   7.564  0.00  0.00    +0.000 A 
ATOM     18  C   UNL     1      45.626   3.963   8.291  0.00  0.00    +0.000 A 
BRANCH  17  19
ATOM     19  C   UNL     1      47.327   3.490   6.483  0.00  0.00    +0.000 C 
BRANCH  19  20
ATOM     20  N   UNL     1      48.499   2.627   6.385  0.00  0.00    +0.000 NA
ATOM     21  H   UNL     1      48.965   2.599   7.292  0.00  0.00    +0.000 HD
ATOM     22  H   UNL     1      49.163   3.046   5.737  0.00  0.00    +0.000 HD
ENDBRANCH  19  20
ENDBRANCH  17  19
ENDBRANCH  12  13
ENDBRANCH   8  12
TORSDOF 5
ENDMDL
MODEL 3
REMARK VINA RESULT:    -6.975      3.074      6.168
REMARK INTER + INTRA:          -9.210
REMARK INTER:                  -8.615
REMARK INTRA:                  -0.595
REMARK UNBOUND:                -0.400
REMARK  Name = 
REMARK  6 active torsions:
REMARK  status: ('A' for Active; 'I' for Inactive)
REMARK    1  A    between atoms: C_1  and  O_2
REMARK    2  A    between atoms: O_2  and  C_3
REMARK    3  A    between atoms: N_10  and  C_11
REMARK    4  A    between atoms: C_11  and  C_12
REMARK    5  A    between atoms: C_16  and  C_17
REMARK    6  A    between atoms: C_17  and  N_18
REMARK                            x       y       z     vdW  Elec       q    Type
REMARK                         _______ _______ _______ _____ _____    ______ ____
ROOT
ATOM      1  C   UNL     1      45.901   2.655   8.074  0.00  0.00    +0.000 A 
ATOM      2  C   UNL     1      46.065   4.038   8.050  0.00  0.00    +0.000 A 
ATOM      3  C   UNL     1      45.424   4.859   8.990  0.00  0.00    +0.000 A 
ATOM      4  C   UNL     1      44.619   4.249   9.968  0.00  0.00    +0.000 A 
ATOM      5  C   UNL     1      44.458   2.863  10.022  0.00  0.00    +0.000 A 
ATOM      6  C   UNL     1      43.621   2.572  11.132  0.00  0.00    +0.000 A 
ATOM      7  C   UNL     1      43.278   3.768  11.721  0.00  0.00    +0.000 A 
ATOM      8  N   UNL     1      43.860   4.780  10.998  0.00  0.00    +0.000 N 
ATOM      9  C   UNL     1      45.090   2.064   9.050  0.00  0.00    +0.000 A 
ENDROOT
BRANCH   1  11
ATOM     10  C   UNL     1      47.830   1.944   6.893  0.00  0.00    +0.000 C 
ATOM     11  O   UNL     1      46.445   1.777   7.173  0.00  0.00    +0.000 OA
ENDBRANCH   1  11
BRANCH   8  12
ATOM     12  C   UNL     1      43.588   6.197  11.223  0.00  0.00    +0.000 C 
BRANCH  12  13
ATOM     13  C   UNL     1      44.724   6.957  11.854  0.00  0.00    +0.000 A 
ATOM     14  C   UNL     1      44.823   8.332  11.657  0.00  0.00    +0.000 A 
ATOM     15  N   UNL     1      45.845   9.098  12.097  0.00  0.00    +0.000 NA
ATOM     16  C   UNL     1      46.834   8.465  12.768  0.00  0.00    +0.000 A 
ATOM     17  C   UNL     1      46.845   7.100  13.032  0.00  0.00    +0.000 A 
ATOM     18  C   UNL     1      45.770   6.345  12.554  0.00  0.00    +0.000 A 
BRANCH  17  19
ATOM     19  C   UNL     1      47.954   6.467  13.821  0.00  0.00    +0.000 C 
BRANCH  19  20
ATOM     20  N   UNL     1      49.223   6.501  13.104  0.00  0.00    +0.000 NA
ATOM     21  H   UNL     1      49.982   6.600  13.778  0.00  0.00    +0.000 HD
ATOM     22  H   UNL     1      49.251   7.336  12.522  0.00  0.00    +0.000 HD
ENDBRANCH  19  20
ENDBRANCH  17  19
ENDBRANCH  12  13
ENDBRANCH   8  12
TORSDOF 5
ENDMDL
MODEL 4
REMARK VINA RESULT:    -6.799      3.196      6.496
REMARK INTER + INTRA:          -8.987
REMARK INTER:                  -8.506
REMARK INTRA:                  -0.481
REMARK UNBOUND:                -0.400
REMARK  Name = 
REMARK  6 active torsions:
REMARK  status: ('A' for Active; 'I' for Inactive)
REMARK    1  A    between atoms: C_1  and  O_2
REMARK    2  A    between atoms: O_2  and  C_3
REMARK    3  A    between atoms: N_10  and  C_11
REMARK    4  A    between atoms: C_11  and  C_12
REMARK    5  A    between atoms: C_16  and  C_17
REMARK    6  A    between atoms: C_17  and  N_18
REMARK                            x       y       z     vdW  Elec       q    Type
REMARK                         _______ _______ _______ _____ _____    ______ ____
ROOT
ATOM      1  C   UNL     1      46.018   2.646   8.054  0.00  0.00    +0.000 A 
ATOM      2  C   UNL     1      46.082   4.037   8.010  0.00  0.00    +0.000 A 
ATOM      3  C   UNL     1      45.367   4.824   8.925  0.00  0.00    +0.000 A 
ATOM      4  C   UNL     1      44.590   4.173   9.898  0.00  0.00    +0.000 A 
ATOM      5  C   UNL     1      44.528   2.780   9.973  0.00  0.00    +0.000 A 
ATOM      6  C   UNL     1      43.694   2.447  11.074  0.00  0.00    +0.000 A 
ATOM      7  C   UNL     1      43.256   3.623  11.636  0.00  0.00    +0.000 A 
ATOM      8  N   UNL     1      43.777   4.663  10.907  0.00  0.00    +0.000 N 
ATOM      9  C   UNL     1      45.233   2.013   9.025  0.00  0.00    +0.000 A 
ENDROOT
BRANCH   1  11
ATOM     10  C   UNL     1      46.807   0.454   7.617  0.00  0.00    +0.000 C 
ATOM     11  O   UNL     1      46.640   1.796   7.177  0.00  0.00    +0.000 OA
ENDBRANCH   1  11
BRANCH   8  12
ATOM     12  C   UNL     1      43.400   6.061  11.103  0.00  0.00    +0.000 C 
BRANCH  12  13
ATOM     13  C   UNL     1      44.488   6.924  11.683  0.00  0.00    +0.000 A 
ATOM     14  C   UNL     1      45.360   6.386  12.627  0.00  0.00    +0.000 A 
ATOM     15  N   UNL     1      46.312   7.089  13.279  0.00  0.00    +0.000 NA
ATOM     16  C   UNL     1      46.404   8.406  12.985  0.00  0.00    +0.000 A 
ATOM     17  C   UNL     1      45.596   9.055  12.058  0.00  0.00    +0.000 A 
ATOM     18  C   UNL     1      44.620   8.290  11.410  0.00  0.00    +0.000 A 
BRANCH  17  19
ATOM     19  C   UNL     1      45.779  10.512  11.747  0.00  0.00    +0.000 C 
BRANCH  19  20
ATOM     20  N   UNL     1      44.596  11.296  12.082  0.00  0.00    +0.000 NA
ATOM     21  H   UNL     1      44.124  10.860  12.874  0.00  0.00    +0.000 HD
ATOM     22  H   UNL     1      43.942  11.254  11.303  0.00  0.00    +0.000 HD
ENDBRANCH  19  20
ENDBRANCH  17  19
ENDBRANCH  12  13
ENDBRANCH   8  12
TORSDOF 5
ENDMDL
MODEL 5
REMARK VINA RESULT:    -6.577      1.644      2.260
REMARK INTER + INTRA:          -8.707
REMARK INTER:                  -8.132
REMARK INTRA:                  -0.575
REMARK UNBOUND:                -0.400
REMARK  Name = 
REMARK  6 active torsions:
REMARK  status: ('A' for Active; 'I' for Inactive)
REMARK    1  A    between atoms: C_1  and  O_2
REMARK    2  A    between atoms: O_2  and  C_3
REMARK    3  A    between atoms: N_10  and  C_11
REMARK    4  A    between atoms: C_11  and  C_12
REMARK    5  A    between atoms: C_16  and  C_17
REMARK    6  A    between atoms: C_17  and  N_18
REMARK                            x       y       z     vdW  Elec       q    Type
REMARK                         _______ _______ _______ _____ _____    ______ ____
ROOT
ATOM      1  C   UNL     1      46.572   7.802  12.747  0.00  0.00    +0.000 A 
ATOM      2  C   UNL     1      45.531   7.668  11.832  0.00  0.00    +0.000 A 
ATOM      3  C   UNL     1      44.989   6.409  11.530  0.00  0.00    +0.000 A 
ATOM      4  C   UNL     1      45.517   5.283  12.185  0.00  0.00    +0.000 A 
ATOM      5  C   UNL     1      46.547   5.397  13.121  0.00  0.00    +0.000 A 
ATOM      6  C   UNL     1      46.823   4.094  13.615  0.00  0.00    +0.000 A 
ATOM      7  C   UNL     1      45.980   3.217  12.973  0.00  0.00    +0.000 A 
ATOM      8  N   UNL     1      45.212   3.935  12.090  0.00  0.00    +0.000 N 
ATOM      9  C   UNL     1      47.091   6.669  13.386  0.00  0.00    +0.000 A 
ENDROOT
BRANCH   1  11
ATOM     10  C   UNL     1      46.737  10.140  12.390  0.00  0.00    +0.000 C 
ATOM     11  O   UNL     1      47.196   8.978  13.071  0.00  0.00    +0.000 OA
ENDBRANCH   1  11
BRANCH   8  12
ATOM     12  C   UNL     1      44.316   3.324  11.111  0.00  0.00    +0.000 C 
BRANCH  12  13
ATOM     13  C   UNL     1      44.890   3.218   9.724  0.00  0.00    +0.000 A 
ATOM     14  C   UNL     1      44.538   4.161   8.761  0.00  0.00    +0.000 A 
ATOM     15  N   UNL     1      44.918   4.113   7.465  0.00  0.00    +0.000 NA
ATOM     16  C   UNL     1      45.687   3.064   7.096  0.00  0.00    +0.000 A 
ATOM     17  C   UNL     1      46.109   2.064   7.965  0.00  0.00    +0.000 A 
ATOM     18  C   UNL     1      45.688   2.150   9.296  0.00  0.00    +0.000 A 
BRANCH  17  19
ATOM     19  C   UNL     1      46.999   0.950   7.499  0.00  0.00    +0.000 C 
BRANCH  19  20
ATOM     20  N   UNL     1      48.158   1.445   6.766  0.00  0.00    +0.000 NA
ATOM     21  H   UNL     1      48.489   0.715   6.136  0.00  0.00    +0.000 HD
ATOM     22  H   UNL     1      48.916   1.617   7.424  0.00  0.00    +0.000 HD
ENDBRANCH  19  20
ENDBRANCH  17  19
ENDBRANCH  12  13
ENDBRANCH   8  12
TORSDOF 5
ENDMDL
MODEL 6
REMARK VINA RESULT:    -6.270      1.538      2.350
REMARK INTER + INTRA:          -8.319
REMARK INTER:                  -7.783
REMARK INTRA:                  -0.536
REMARK UNBOUND:                -0.400
REMARK  Name = 
REMARK  6 active torsions:
REMARK  status: ('A' for Active; 'I' for Inactive)
REMARK    1  A    between atoms: C_1  and  O_2
REMARK    2  A    between atoms: O_2  and  C_3
REMARK    3  A    between atoms: N_10  and  C_11
REMARK    4  A    between atoms: C_11  and  C_12
REMARK    5  A    between atoms: C_16  and  C_17
REMARK    6  A    between atoms: C_17  and  N_18
REMARK                            x       y       z     vdW  Elec       q    Type
REMARK                         _______ _______ _______ _____ _____    ______ ____
ROOT
ATOM      1  C   UNL     1      48.736   7.820  13.195  0.00  0.00    +0.000 A 
ATOM      2  C   UNL     1      47.932   8.276  12.152  0.00  0.00    +0.000 A 
ATOM      3  C   UNL     1      46.788   7.566  11.756  0.00  0.00    +0.000 A 
ATOM      4  C   UNL     1      46.466   6.385  12.446  0.00  0.00    +0.000 A 
ATOM      5  C   UNL     1      47.246   5.921  13.508  0.00  0.00    +0.000 A 
ATOM      6  C   UNL     1      46.636   4.738  14.003  0.00  0.00    +0.000 A 
ATOM      7  C   UNL     1      45.518   4.494  13.239  0.00  0.00    +0.000 A 
ATOM      8  N   UNL     1      45.434   5.475  12.283  0.00  0.00    +0.000 N 
ATOM      9  C   UNL     1      48.404   6.637  13.867  0.00  0.00    +0.000 A 
ENDROOT
BRANCH   1  11
ATOM     10  C   UNL     1      50.943   8.505  12.665  0.00  0.00    +0.000 C 
ATOM     11  O   UNL     1      49.893   8.416  13.621  0.00  0.00    +0.000 OA
ENDBRANCH   1  11
BRANCH   8  12
ATOM     12  C   UNL     1      44.470   5.458  11.185  0.00  0.00    +0.000 C 
BRANCH  12  13
ATOM     13  C   UNL     1      44.753   4.427  10.125  0.00  0.00    +0.000 A 
ATOM     14  C   UNL     1      44.252   3.136  10.273  0.00  0.00    +0.000 A 
ATOM     15  N   UNL     1      44.517   2.110   9.434  0.00  0.00    +0.000 NA
ATOM     16  C   UNL     1      45.334   2.374   8.389  0.00  0.00    +0.000 A 
ATOM     17  C   UNL     1      45.890   3.623   8.133  0.00  0.00    +0.000 A 
ATOM     18  C   UNL     1      45.593   4.654   9.029  0.00  0.00    +0.000 A 
BRANCH  17  19
ATOM     19  C   UNL     1      46.754   3.860   6.929  0.00  0.00    +0.000 C 
BRANCH  19  20
ATOM     20  N   UNL     1      47.865   2.917   6.859  0.00  0.00    +0.000 NA
ATOM     21  H   UNL     1      47.578   2.109   6.307  0.00  0.00    +0.000 HD
ATOM     22  H   UNL     1      48.059   2.567   7.795  0.00  0.00    +0.000 HD
ENDBRANCH  19  20
ENDBRANCH  17  19
ENDBRANCH  12  13
ENDBRANCH   8  12
TORSDOF 5
ENDMDL
MODEL 7
REMARK VINA RESULT:    -5.804      2.575      4.594
REMARK INTER + INTRA:          -7.730
REMARK INTER:                  -7.149
REMARK INTRA:                  -0.581
REMARK UNBOUND:                -0.400
REMARK  Name = 
REMARK  6 active torsions:
REMARK  status: ('A' for Active; 'I' for Inactive)
REMARK    1  A    between atoms: C_1  and  O_2
REMARK    2  A    between atoms: O_2  and  C_3
REMARK    3  A    between atoms: N_10  and  C_11
REMARK    4  A    between atoms: C_11  and  C_12
REMARK    5  A    between atoms: C_16  and  C_17
REMARK    6  A    between atoms: C_17  and  N_18
REMARK                            x       y       z     vdW  Elec       q    Type
REMARK                         _______ _______ _______ _____ _____    ______ ____
ROOT
ATOM      1  C   UNL     1      49.671   9.195  11.735  0.00  0.00    +0.000 A 
ATOM      2  C   UNL     1      49.826   7.833  11.981  0.00  0.00    +0.000 A 
ATOM      3  C   UNL     1      48.727   7.030  12.324  0.00  0.00    +0.000 A 
ATOM      4  C   UNL     1      47.461   7.634  12.405  0.00  0.00    +0.000 A 
ATOM      5  C   UNL     1      47.280   8.994  12.142  0.00  0.00    +0.000 A 
ATOM      6  C   UNL     1      45.895   9.276  12.276  0.00  0.00    +0.000 A 
ATOM      7  C   UNL     1      45.263   8.105  12.626  0.00  0.00    +0.000 A 
ATOM      8  N   UNL     1      46.215   7.122  12.730  0.00  0.00    +0.000 N 
ATOM      9  C   UNL     1      48.403   9.783  11.826  0.00  0.00    +0.000 A 
ENDROOT
BRANCH   1  11
ATOM     10  C   UNL     1      51.728   9.561  10.613  0.00  0.00    +0.000 C 
ATOM     11  O   UNL     1      50.686  10.067  11.440  0.00  0.00    +0.000 OA
ENDBRANCH   1  11
BRANCH   8  12
ATOM     12  C   UNL     1      45.945   5.782  13.244  0.00  0.00    +0.000 C 
BRANCH  12  13
ATOM     13  C   UNL     1      45.130   4.914  12.323  0.00  0.00    +0.000 A 
ATOM     14  C   UNL     1      44.285   3.946  12.861  0.00  0.00    +0.000 A 
ATOM     15  N   UNL     1      43.579   3.055  12.132  0.00  0.00    +0.000 NA
ATOM     16  C   UNL     1      43.721   3.118  10.788  0.00  0.00    +0.000 A 
ATOM     17  C   UNL     1      44.528   4.043  10.135  0.00  0.00    +0.000 A 
ATOM     18  C   UNL     1      45.246   4.943  10.928  0.00  0.00    +0.000 A 
BRANCH  17  19
ATOM     19  C   UNL     1      44.609   4.087   8.637  0.00  0.00    +0.000 C 
BRANCH  19  20
ATOM     20  N   UNL     1      45.770   4.837   8.173  0.00  0.00    +0.000 NA
ATOM     21  H   UNL     1      46.553   4.656   8.800  0.00  0.00    +0.000 HD
ATOM     22  H   UNL     1      45.571   5.833   8.248  0.00  0.00    +0.000 HD
ENDBRANCH  19  20
ENDBRANCH  17  19
ENDBRANCH  12  13
ENDBRANCH   8  12
TORSDOF 5
ENDMDL
MODEL 8
REMARK VINA RESULT:    -5.615      4.492      8.020
REMARK INTER + INTRA:          -7.492
REMARK INTER:                  -6.955
REMARK INTRA:                  -0.537
REMARK UNBOUND:                -0.400
REMARK  Name = 
REMARK  6 active torsions:
REMARK  status: ('A' for Active; 'I' for Inactive)
REMARK    1  A    between atoms: C_1  and  O_2
REMARK    2  A    between atoms: O_2  and  C_3
REMARK    3  A    between atoms: N_10  and  C_11
REMARK    4  A    between atoms: C_11  and  C_12
REMARK    5  A    between atoms: C_16  and  C_17
REMARK    6  A    between atoms: C_17  and  N_18
REMARK                            x       y       z     vdW  Elec       q    Type
REMARK                         _______ _______ _______ _____ _____    ______ ____
ROOT
ATOM      1  C   UNL     1      44.571   4.966  11.907  0.00  0.00    +0.000 A 
ATOM      2  C   UNL     1      45.531   4.253  12.621  0.00  0.00    +0.000 A 
ATOM      3  C   UNL     1      46.558   4.913  13.312  0.00  0.00    +0.000 A 
ATOM      4  C   UNL     1      46.589   6.318  13.275  0.00  0.00    +0.000 A 
ATOM      5  C   UNL     1      45.624   7.053  12.582  0.00  0.00    +0.000 A 
ATOM      6  C   UNL     1      45.919   8.430  12.770  0.00  0.00    +0.000 A 
ATOM      7  C   UNL     1      47.049   8.512  13.550  0.00  0.00    +0.000 A 
ATOM      8  N   UNL     1      47.466   7.235  13.830  0.00  0.00    +0.000 N 
ATOM      9  C   UNL     1      44.620   6.365  11.875  0.00  0.00    +0.000 A 
ENDROOT
BRANCH   1  11
ATOM     10  C   UNL     1      43.359   3.012  11.326  0.00  0.00    +0.000 C 
ATOM     11  O   UNL     1      43.561   4.411  11.165  0.00  0.00    +0.000 OA
ENDBRANCH   1  11
BRANCH   8  12
ATOM     12  C   UNL     1      48.728   6.921  14.498  0.00  0.00    +0.000 C 
BRANCH  12  13
ATOM     13  C   UNL     1      48.581   6.464  15.924  0.00  0.00    +0.000 A 
ATOM     14  C   UNL     1      48.812   7.365  16.961  0.00  0.00    +0.000 A 
ATOM     15  N   UNL     1      48.799   7.043  18.273  0.00  0.00    +0.000 NA
ATOM     16  C   UNL     1      48.548   5.750  18.580  0.00  0.00    +0.000 A 
ATOM     17  C   UNL     1      48.295   4.762  17.636  0.00  0.00    +0.000 A 
ATOM     18  C   UNL     1      48.324   5.137  16.289  0.00  0.00    +0.000 A 
BRANCH  17  19
ATOM     19  C   UNL     1      47.981   3.353  18.046  0.00  0.00    +0.000 C 
BRANCH  19  20
ATOM     20  N   UNL     1      46.611   2.979  17.714  0.00  0.00    +0.000 NA
ATOM     21  H   UNL     1      46.545   2.822  16.709  0.00  0.00    +0.000 HD
ATOM     22  H   UNL     1      45.996   3.764  17.920  0.00  0.00    +0.000 HD
ENDBRANCH  19  20
ENDBRANCH  17  19
ENDBRANCH  12  13
ENDBRANCH   8  12
TORSDOF 5
ENDMDL
MODEL 9
REMARK VINA RESULT:    -5.601      3.367      7.031
REMARK INTER + INTRA:          -7.474
REMARK INTER:                  -6.927
REMARK INTRA:                  -0.547
REMARK UNBOUND:                -0.400
REMARK  Name = 
REMARK  6 active torsions:
REMARK  status: ('A' for Active; 'I' for Inactive)
REMARK    1  A    between atoms: C_1  and  O_2
REMARK    2  A    between atoms: O_2  and  C_3
REMARK    3  A    between atoms: N_10  and  C_11
REMARK    4  A    between atoms: C_11  and  C_12
REMARK    5  A    between atoms: C_16  and  C_17
REMARK    6  A    between atoms: C_17  and  N_18
REMARK                            x       y       z     vdW  Elec       q    Type
REMARK                         _______ _______ _______ _____ _____    ______ ____
ROOT
ATOM      1  C   UNL     1      44.987   3.266   9.282  0.00  0.00    +0.000 A 
ATOM      2  C   UNL     1      45.572   4.450   8.840  0.00  0.00    +0.000 A 
ATOM      3  C   UNL     1      45.719   5.550   9.699  0.00  0.00    +0.000 A 
ATOM      4  C   UNL     1      45.269   5.424  11.025  0.00  0.00    +0.000 A 
ATOM      5  C   UNL     1      44.698   4.238  11.494  0.00  0.00    +0.000 A 
ATOM      6  C   UNL     1      44.386   4.428  12.867  0.00  0.00    +0.000 A 
ATOM      7  C   UNL     1      44.753   5.709  13.205  0.00  0.00    +0.000 A 
ATOM      8  N   UNL     1      45.260   6.317  12.083  0.00  0.00    +0.000 N 
ATOM      9  C   UNL     1      44.537   3.159  10.604  0.00  0.00    +0.000 A 
ENDROOT
BRANCH   1  11
ATOM     10  C   UNL     1      45.865   1.285   8.320  0.00  0.00    +0.000 C 
ATOM     11  O   UNL     1      44.758   2.159   8.508  0.00  0.00    +0.000 OA
ENDBRANCH   1  11
BRANCH   8  12
ATOM     12  C   UNL     1      45.601   7.736  12.013  0.00  0.00    +0.000 C 
BRANCH  12  13
ATOM     13  C   UNL     1      46.978   8.071  12.519  0.00  0.00    +0.000 A 
ATOM     14  C   UNL     1      48.081   7.869  11.692  0.00  0.00    +0.000 A 
ATOM     15  N   UNL     1      49.365   8.048  12.071  0.00  0.00    +0.000 NA
ATOM     16  C   UNL     1      49.574   8.444  13.347  0.00  0.00    +0.000 A 
ATOM     17  C   UNL     1      48.557   8.684  14.263  0.00  0.00    +0.000 A 
ATOM     18  C   UNL     1      47.242   8.481  13.831  0.00  0.00    +0.000 A 
BRANCH  17  19
ATOM     19  C   UNL     1      48.856   9.164  15.653  0.00  0.00    +0.000 C 
BRANCH  19  20
ATOM     20  N   UNL     1      47.640   9.423  16.416  0.00  0.00    +0.000 NA
ATOM     21  H   UNL     1      47.893   9.843  17.310  0.00  0.00    +0.000 HD
ATOM     22  H   UNL     1      47.194   8.534  16.637  0.00  0.00    +0.000 HD
ENDBRANCH  19  20
ENDBRANCH  17  19
ENDBRANCH  12  13
ENDBRANCH   8  12
TORSDOF 5
ENDMDL
