MODEL 1
REMARK VINA RESULT:    -8.714      0.000      0.000
REMARK INTER + INTRA:         -11.561
REMARK INTER:                 -10.751
REMARK INTRA:                  -0.810
REMARK UNBOUND:                -0.810
REMARK  Name = 
REMARK  4 active torsions:
REMARK  status: ('A' for Active; 'I' for Inactive)
REMARK    1  A    between atoms: C_2  and  C_4
REMARK    2  A    between atoms: N_8  and  C_9
REMARK    3  A    between atoms: C_9  and  C_10
REMARK    4  A    between atoms: C_15  and  C_16
REMARK                            x       y       z     vdW  Elec       q    Type
REMARK                         _______ _______ _______ _____ _____    ______ ____
ROOT
ATOM      1  C   UNL     1      43.727   5.143  10.752  0.00  0.00    +0.000 C 
ENDROOT
BRANCH   1   6
ATOM      2  C   UNL     1      46.519   2.645   7.450  0.00  0.00    +0.000 A 
ATOM      3  C   UNL     1      46.008   1.789   8.396  0.00  0.00    +0.000 A 
ATOM      4  N   UNL     1      45.117   2.169   9.343  0.00  0.00    +0.000 NA
ATOM      5  C   UNL     1      44.735   3.453   9.341  0.00  0.00    +0.000 A 
ATOM      6  N   UNL     1      43.755   3.780  10.251  0.00  0.00    +0.000 N 
ATOM      7  N   UNL     1      45.201   4.368   8.480  0.00  0.00    +0.000 NA
ATOM      8  C   UNL     1      46.097   3.947   7.555  0.00  0.00    +0.000 A 
ATOM      9  H   UNL     1      43.723   3.063  10.965  0.00  0.00    +0.000 HD
BRANCH   2  11
ATOM     10  N   UNL     1      47.454   2.946   5.233  0.00  0.00    +0.000 N 
ATOM     11  C   UNL     1      47.470   2.243   6.406  0.00  0.00    +0.000 C 
ATOM     12  O   UNL     1      48.271   1.341   6.597  0.00  0.00    +0.000 OA
ATOM     13  H   UNL     1      48.187   2.721   4.569  0.00  0.00    +0.000 HD
ATOM     14  H   UNL     1      47.009   3.848   5.133  0.00  0.00    +0.000 HD
ENDBRANCH   2  11
ENDBRANCH   1   6
BRANCH   1  15
ATOM     15  C   UNL     1      44.846   5.320  11.767  0.00  0.00    +0.000 A 
ATOM     16  C   UNL     1      44.919   4.446  12.846  0.00  0.00    +0.000 A 
ATOM     17  C   UNL     1      45.932   4.610  13.776  0.00  0.00    +0.000 A 
ATOM     18  C   UNL     1      46.852   5.647  13.624  0.00  0.00    +0.000 A 
ATOM     19 CL   UNL     1      47.994   5.825  14.911  0.00  0.00    +0.000 Cl
ATOM     20  C   UNL     1      46.759   6.485  12.498  0.00  0.00    +0.000 A 
ATOM     21  N   UNL     1      45.749   6.322  11.584  0.00  0.00    +0.000 NA
BRANCH  20  22
ATOM     22  C   UNL     1      47.690   7.599  12.172  0.00  0.00    +0.000 A 
ATOM     23  C   UNL     1      47.296   8.950  12.198  0.00  0.00    +0.000 A 
ATOM     24  C   UNL     1      48.165   9.986  11.845  0.00  0.00    +0.000 A 
ATOM     25  C   UNL     1      49.480   9.701  11.502  0.00  0.00    +0.000 A 
ATOM     26  C   UNL     1      49.916   8.380  11.520  0.00  0.00    +0.000 A 
ATOM     27 CL   UNL     1      51.557   8.029  11.134  0.00  0.00    +0.000 Cl
ATOM     28  C   UNL     1      49.039   7.340  11.846  0.00  0.00    +0.000 A 
ENDBRANCH  20  22
ENDBRANCH   1  15
TORSDOF 4
ENDMDL
MODEL 2
REMARK VINA RESULT:    -7.423      4.343      7.620
REMARK INTER + INTRA:          -9.968
REMARK INTER:                  -9.476
REMARK INTRA:                  -0.492
REMARK UNBOUND:                -0.810
REMARK  Name = 
REMARK  4 active torsions:
REMARK  status: ('A' for Active; 'I' for Inactive)
REMARK    1  A    between atoms: C_2  and  C_4
REMARK    2  A    between atoms: N_8  and  C_9
REMARK    3  A    between atoms: C_9  and  C_10
REMARK    4  A    between atoms: C_15  and  C_16
REMARK                            x       y       z     vdW  Elec       q    Type
REMARK                         _______ _______ _______ _____ _____    ______ ____
ROOT
ATOM      1  C   UNL     1      48.759   7.277  13.058  0.00  0.00    +0.000 C 
ENDROOT
BRANCH   1   6
ATOM      2  C   UNL     1      47.930   4.374  17.035  0.00  0.00    +0.000 A 
ATOM      3  C   UNL     1      48.706   5.454  17.379  0.00  0.00    +0.000 A 
ATOM      4  N   UNL     1      48.988   6.471  16.530  0.00  0.00    +0.000 NA
ATOM      5  C   UNL     1      48.477   6.394  15.294  0.00  0.00    +0.000 A 
ATOM      6  N   UNL     1      48.699   7.490  14.493  0.00  0.00    +0.000 N 
ATOM      7  N   UNL     1      47.734   5.366  14.858  0.00  0.00    +0.000 NA
ATOM      8  C   UNL     1      47.485   4.367  15.737  0.00  0.00    +0.000 A 
ATOM      9  H   UNL     1      49.471   8.022  14.877  0.00  0.00    +0.000 HD
BRANCH   2  11
ATOM     10  N   UNL     1      48.318   3.182  19.111  0.00  0.00    +0.000 N 
ATOM     11  C   UNL     1      47.600   3.274  17.950  0.00  0.00    +0.000 C 
ATOM     12  O   UNL     1      46.692   2.497  17.700  0.00  0.00    +0.000 OA
ATOM     13  H   UNL     1      48.005   2.481  19.774  0.00  0.00    +0.000 HD
ATOM     14  H   UNL     1      48.879   3.939  19.478  0.00  0.00    +0.000 HD
ENDBRANCH   2  11
ENDBRANCH   1   6
BRANCH   1  15
ATOM     15  C   UNL     1      47.347   7.316  12.492  0.00  0.00    +0.000 A 
ATOM     16  C   UNL     1      46.568   8.447  12.708  0.00  0.00    +0.000 A 
ATOM     17  C   UNL     1      45.280   8.483  12.201  0.00  0.00    +0.000 A 
ATOM     18  C   UNL     1      44.782   7.389  11.494  0.00  0.00    +0.000 A 
ATOM     19 CL   UNL     1      43.123   7.501  11.018  0.00  0.00    +0.000 Cl
ATOM     20  C   UNL     1      45.619   6.280  11.271  0.00  0.00    +0.000 A 
ATOM     21  N   UNL     1      46.892   6.247  11.782  0.00  0.00    +0.000 NA
BRANCH  20  22
ATOM     22  C   UNL     1      45.251   5.063  10.497  0.00  0.00    +0.000 A 
ATOM     23  C   UNL     1      44.398   4.067  11.009  0.00  0.00    +0.000 A 
ATOM     24  C   UNL     1      44.096   2.905  10.294  0.00  0.00    +0.000 A 
ATOM     25  C   UNL     1      44.602   2.729   9.013  0.00  0.00    +0.000 A 
ATOM     26  C   UNL     1      45.404   3.720   8.457  0.00  0.00    +0.000 A 
ATOM     27 CL   UNL     1      46.001   3.522   6.854  0.00  0.00    +0.000 Cl
ATOM     28  C   UNL     1      45.730   4.870   9.184  0.00  0.00    +0.000 A 
ENDBRANCH  20  22
ENDBRANCH   1  15
TORSDOF 4
ENDMDL
MODEL 3
REMARK VINA RESULT:    -7.083      6.009      8.493
REMARK INTER + INTRA:          -9.549
REMARK INTER:                  -8.920
REMARK INTRA:                  -0.629
REMARK UNBOUND:                -0.810
REMARK  Name = 
REMARK  4 active torsions:
REMARK  status: ('A' for Active; 'I' for Inactive)
REMARK    1  A    between atoms: C_2  and  C_4
REMARK    2  A    between atoms: N_8  and  C_9
REMARK    3  A    between atoms: C_9  and  C_10
REMARK    4  A    between atoms: C_15  and  C_16
REMARK                            x       y       z     vdW  Elec       q    Type
REMARK                         _______ _______ _______ _____ _____    ______ ____
ROOT
ATOM      1  C   UNL     1      47.674   3.586  16.793  0.00  0.00    +0.000 C 
ENDROOT
BRANCH   1   6
ATOM      2  C   UNL     1      52.386   2.350  17.890  0.00  0.00    +0.000 A 
ATOM      3  C   UNL     1      51.674   1.242  17.502  0.00  0.00    +0.000 A 
ATOM      4  N   UNL     1      50.406   1.296  17.030  0.00  0.00    +0.000 NA
ATOM      5  C   UNL     1      49.835   2.506  16.954  0.00  0.00    +0.000 A 
ATOM      6  N   UNL     1      48.585   2.536  16.377  0.00  0.00    +0.000 N 
ATOM      7  N   UNL     1      50.438   3.640  17.337  0.00  0.00    +0.000 NA
ATOM      8  C   UNL     1      51.703   3.538  17.811  0.00  0.00    +0.000 A 
ATOM      9  H   UNL     1      48.196   1.601  16.398  0.00  0.00    +0.000 HD
BRANCH   2  11
ATOM     10  N   UNL     1      54.118   1.258  19.189  0.00  0.00    +0.000 N 
ATOM     11  C   UNL     1      53.768   2.308  18.384  0.00  0.00    +0.000 C 
ATOM     12  O   UNL     1      54.582   3.156  18.054  0.00  0.00    +0.000 OA
ATOM     13  H   UNL     1      55.101   1.192  19.433  0.00  0.00    +0.000 HD
ATOM     14  H   UNL     1      53.572   0.412  19.267  0.00  0.00    +0.000 HD
ENDBRANCH   2  11
ENDBRANCH   1   6
BRANCH   1  15
ATOM     15  C   UNL     1      47.474   4.555  15.639  0.00  0.00    +0.000 A 
ATOM     16  C   UNL     1      48.344   5.633  15.508  0.00  0.00    +0.000 A 
ATOM     17  C   UNL     1      48.160   6.522  14.462  0.00  0.00    +0.000 A 
ATOM     18  C   UNL     1      47.108   6.331  13.566  0.00  0.00    +0.000 A 
ATOM     19 CL   UNL     1      46.907   7.571  12.378  0.00  0.00    +0.000 Cl
ATOM     20  C   UNL     1      46.275   5.207  13.718  0.00  0.00    +0.000 A 
ATOM     21  N   UNL     1      46.458   4.334  14.760  0.00  0.00    +0.000 NA
BRANCH  20  22
ATOM     22  C   UNL     1      45.148   4.842  12.819  0.00  0.00    +0.000 A 
ATOM     23  C   UNL     1      43.875   5.435  12.918  0.00  0.00    +0.000 A 
ATOM     24  C   UNL     1      42.808   5.051  12.100  0.00  0.00    +0.000 A 
ATOM     25  C   UNL     1      43.000   4.091  11.116  0.00  0.00    +0.000 A 
ATOM     26  C   UNL     1      44.261   3.525  10.955  0.00  0.00    +0.000 A 
ATOM     27 CL   UNL     1      44.512   2.363   9.710  0.00  0.00    +0.000 Cl
ATOM     28  C   UNL     1      45.321   3.888  11.793  0.00  0.00    +0.000 A 
ENDBRANCH  20  22
ENDBRANCH   1  15
TORSDOF 4
ENDMDL
MODEL 4
REMARK VINA RESULT:    -6.813      5.449      7.094
REMARK INTER + INTRA:          -9.216
REMARK INTER:                  -9.035
REMARK INTRA:                  -0.181
REMARK UNBOUND:                -0.810
REMARK  Name = 
REMARK  4 active torsions:
REMARK  status: ('A' for Active; 'I' for Inactive)
REMARK    1  A    between atoms: C_2  and  C_4
REMARK    2  A    between atoms: N_8  and  C_9
REMARK    3  A    between atoms: C_9  and  C_10
REMARK    4  A    between atoms: C_15  and  C_16
REMARK                            x       y       z     vdW  Elec       q    Type
REMARK                         _______ _______ _______ _____ _____    ______ ____
ROOT
ATOM      1  C   UNL     1      47.176   4.415  15.980  0.00  0.00    +0.000 C 
ENDROOT
BRANCH   1   6
ATOM      2  C   UNL     1      44.994   4.169  11.496  0.00  0.00    +0.000 A 
ATOM      3  C   UNL     1      45.251   5.475  11.837  0.00  0.00    +0.000 A 
ATOM      4  N   UNL     1      45.945   5.835  12.942  0.00  0.00    +0.000 NA
ATOM      5  C   UNL     1      46.389   4.848  13.732  0.00  0.00    +0.000 A 
ATOM      6  N   UNL     1      47.177   5.245  14.789  0.00  0.00    +0.000 N 
ATOM      7  N   UNL     1      46.163   3.547  13.499  0.00  0.00    +0.000 NA
ATOM      8  C   UNL     1      45.456   3.233  12.387  0.00  0.00    +0.000 A 
ATOM      9  H   UNL     1      47.021   6.231  14.957  0.00  0.00    +0.000 HD
BRANCH   2  11
ATOM     10  N   UNL     1      44.103   4.697   9.303  0.00  0.00    +0.000 N 
ATOM     11  C   UNL     1      44.258   3.764  10.291  0.00  0.00    +0.000 C 
ATOM     12  O   UNL     1      43.839   2.624  10.162  0.00  0.00    +0.000 OA
ATOM     13  H   UNL     1      43.685   4.366   8.439  0.00  0.00    +0.000 HD
ATOM     14  H   UNL     1      44.651   5.545   9.249  0.00  0.00    +0.000 HD
ENDBRANCH   2  11
ENDBRANCH   1   6
BRANCH   1  15
ATOM     15  C   UNL     1      48.382   4.772  16.834  0.00  0.00    +0.000 A 
ATOM     16  C   UNL     1      48.375   5.972  17.538  0.00  0.00    +0.000 A 
ATOM     17  C   UNL     1      49.476   6.304  18.310  0.00  0.00    +0.000 A 
ATOM     18  C   UNL     1      50.571   5.443  18.364  0.00  0.00    +0.000 A 
ATOM     19 CL   UNL     1      51.932   6.022  19.262  0.00  0.00    +0.000 Cl
ATOM     20  C   UNL     1      50.519   4.224  17.663  0.00  0.00    +0.000 A 
ATOM     21  N   UNL     1      49.429   3.903  16.894  0.00  0.00    +0.000 NA
BRANCH  20  22
ATOM     22  C   UNL     1      51.582   3.183  17.662  0.00  0.00    +0.000 A 
ATOM     23  C   UNL     1      51.314   1.825  17.403  0.00  0.00    +0.000 A 
ATOM     24  C   UNL     1      52.311   0.847  17.451  0.00  0.00    +0.000 A 
ATOM     25  C   UNL     1      53.626   1.210  17.710  0.00  0.00    +0.000 A 
ATOM     26  C   UNL     1      53.933   2.551  17.916  0.00  0.00    +0.000 A 
ATOM     27 CL   UNL     1      55.569   3.009  18.198  0.00  0.00    +0.000 Cl
ATOM     28  C   UNL     1      52.930   3.527  17.897  0.00  0.00    +0.000 A 
ENDBRANCH  20  22
ENDBRANCH   1  15
TORSDOF 4
ENDMDL
MODEL 5
REMARK VINA RESULT:    -6.682      3.361      5.770
REMARK INTER + INTRA:          -9.054
REMARK INTER:                  -8.251
REMARK INTRA:                  -0.802
REMARK UNBOUND:                -0.810
REMARK  Name = 
REMARK  4 active torsions:
REMARK  status: ('A' for Active; 'I' for Inactive)
REMARK    1  A    between atoms: C_2  and  C_4
REMARK    2  A    between atoms: N_8  and  C_9
REMARK    3  A    between atoms: C_9  and  C_10
REMARK    4  A    between atoms: C_15  and  C_16
REMARK                            x       y       z     vdW  Elec       q    Type
REMARK                         _______ _______ _______ _____ _____    ______ ____
ROOT
ATOM      1  C   UNL     1      47.201   8.256  12.362  0.00  0.00    +0.000 C 
ENDROOT
BRANCH   1   6
ATOM      2  C   UNL     1      44.496   4.143  11.523  0.00  0.00    +0.000 A 
ATOM      3  C   UNL     1      44.358   4.554  12.827  0.00  0.00    +0.000 A 
ATOM      4  N   UNL     1      44.880   5.709  13.305  0.00  0.00    +0.000 NA
ATOM      5  C   UNL     1      45.568   6.470  12.443  0.00  0.00    +0.000 A 
ATOM      6  N   UNL     1      45.997   7.682  12.935  0.00  0.00    +0.000 N 
ATOM      7  N   UNL     1      45.782   6.138  11.162  0.00  0.00    +0.000 NA
ATOM      8  C   UNL     1      45.249   4.970  10.729  0.00  0.00    +0.000 A 
ATOM      9  H   UNL     1      45.983   7.644  13.947  0.00  0.00    +0.000 HD
BRANCH   2  11
ATOM     10  N   UNL     1      44.539   2.334   9.908  0.00  0.00    +0.000 N 
ATOM     11  C   UNL     1      43.919   2.903  10.987  0.00  0.00    +0.000 C 
ATOM     12  O   UNL     1      42.948   2.381  11.513  0.00  0.00    +0.000 OA
ATOM     13  H   UNL     1      44.188   1.426   9.621  0.00  0.00    +0.000 HD
ATOM     14  H   UNL     1      45.476   2.574   9.616  0.00  0.00    +0.000 HD
ENDBRANCH   2  11
ENDBRANCH   1   6
BRANCH   1  15
ATOM     15  C   UNL     1      48.373   7.975  13.289  0.00  0.00    +0.000 A 
ATOM     16  C   UNL     1      49.642   8.405  12.915  0.00  0.00    +0.000 A 
ATOM     17  C   UNL     1      50.713   8.145  13.753  0.00  0.00    +0.000 A 
ATOM     18  C   UNL     1      50.509   7.453  14.946  0.00  0.00    +0.000 A 
ATOM     19 CL   UNL     1      51.938   7.081  15.847  0.00  0.00    +0.000 Cl
ATOM     20  C   UNL     1      49.202   7.068  15.299  0.00  0.00    +0.000 A 
ATOM     21  N   UNL     1      48.146   7.323  14.461  0.00  0.00    +0.000 NA
BRANCH  20  22
ATOM     22  C   UNL     1      48.818   6.371  16.556  0.00  0.00    +0.000 A 
ATOM     23  C   UNL     1      48.965   6.959  17.826  0.00  0.00    +0.000 A 
ATOM     24  C   UNL     1      48.645   6.278  19.004  0.00  0.00    +0.000 A 
ATOM     25  C   UNL     1      48.116   4.997  18.941  0.00  0.00    +0.000 A 
ATOM     26  C   UNL     1      47.907   4.407  17.699  0.00  0.00    +0.000 A 
ATOM     27 CL   UNL     1      47.215   2.833  17.617  0.00  0.00    +0.000 Cl
ATOM     28  C   UNL     1      48.254   5.077  16.521  0.00  0.00    +0.000 A 
ENDBRANCH  20  22
ENDBRANCH   1  15
TORSDOF 4
ENDMDL
MODEL 6
REMARK VINA RESULT:    -6.510      5.325      8.461
REMARK INTER + INTRA:          -8.842
REMARK INTER:                  -8.225
REMARK INTRA:                  -0.618
REMARK UNBOUND:                -0.810
REMARK  Name = 
REMARK  4 active torsions:
REMARK  status: ('A' for Active; 'I' for Inactive)
REMARK    1  A    between atoms: C_2  and  C_4
REMARK    2  A    between atoms: N_8  and  C_9
REMARK    3  A    between atoms: C_9  and  C_10
REMARK    4  A    between atoms: C_15  and  C_16
REMARK                            x       y       z     vdW  Elec       q    Type
REMARK                         _______ _______ _______ _____ _____    ______ ____
ROOT
ATOM      1  C   UNL     1      48.355   6.899  14.369  0.00  0.00    +0.000 C 
ENDROOT
BRANCH   1   6
ATOM      2  C   UNL     1      50.306   5.054  18.579  0.00  0.00    +0.000 A 
ATOM      3  C   UNL     1      48.933   5.027  18.630  0.00  0.00    +0.000 A 
ATOM      4  N   UNL     1      48.140   5.351  17.581  0.00  0.00    +0.000 NA
ATOM      5  C   UNL     1      48.750   5.722  16.447  0.00  0.00    +0.000 A 
ATOM      6  N   UNL     1      47.918   5.947  15.374  0.00  0.00    +0.000 N 
ATOM      7  N   UNL     1      50.081   5.809  16.311  0.00  0.00    +0.000 NA
ATOM      8  C   UNL     1      50.835   5.483  17.388  0.00  0.00    +0.000 A 
ATOM      9  H   UNL     1      46.977   6.093  15.718  0.00  0.00    +0.000 HD
BRANCH   2  11
ATOM     10  N   UNL     1      50.623   4.674  20.953  0.00  0.00    +0.000 N 
ATOM     11  C   UNL     1      51.177   4.686  19.702  0.00  0.00    +0.000 C 
ATOM     12  O   UNL     1      52.340   4.364  19.517  0.00  0.00    +0.000 OA
ATOM     13  H   UNL     1      51.213   4.317  21.697  0.00  0.00    +0.000 HD
ATOM     14  H   UNL     1      49.626   4.669  21.118  0.00  0.00    +0.000 HD
ENDBRANCH   2  11
ENDBRANCH   1   6
BRANCH   1  15
ATOM     15  C   UNL     1      47.188   7.218  13.447  0.00  0.00    +0.000 A 
ATOM     16  C   UNL     1      46.686   8.515  13.423  0.00  0.00    +0.000 A 
ATOM     17  C   UNL     1      45.619   8.806  12.591  0.00  0.00    +0.000 A 
ATOM     18  C   UNL     1      45.060   7.802  11.801  0.00  0.00    +0.000 A 
ATOM     19 CL   UNL     1      43.657   8.257  10.898  0.00  0.00    +0.000 Cl
ATOM     20  C   UNL     1      45.623   6.513  11.833  0.00  0.00    +0.000 A 
ATOM     21  N   UNL     1      46.676   6.228  12.665  0.00  0.00    +0.000 NA
BRANCH  20  22
ATOM     22  C   UNL     1      45.172   5.354  11.016  0.00  0.00    +0.000 A 
ATOM     23  C   UNL     1      44.210   4.433  11.471  0.00  0.00    +0.000 A 
ATOM     24  C   UNL     1      43.827   3.321  10.716  0.00  0.00    +0.000 A 
ATOM     25  C   UNL     1      44.364   3.125   9.451  0.00  0.00    +0.000 A 
ATOM     26  C   UNL     1      45.277   4.047   8.949  0.00  0.00    +0.000 A 
ATOM     27 CL   UNL     1      45.914   3.827   7.365  0.00  0.00    +0.000 Cl
ATOM     28  C   UNL     1      45.682   5.145   9.717  0.00  0.00    +0.000 A 
ENDBRANCH  20  22
ENDBRANCH   1  15
TORSDOF 4
ENDMDL
MODEL 7
REMARK VINA RESULT:    -6.394      4.569      8.038
REMARK INTER + INTRA:          -8.698
REMARK INTER:                  -8.082
REMARK INTRA:                  -0.617
REMARK UNBOUND:                -0.810
REMARK  Name = 
REMARK  4 active torsions:
REMARK  status: ('A' for Active; 'I' for Inactive)
REMARK    1  A    between atoms: C_2  and  C_4
REMARK    2  A    between atoms: N_8  and  C_9
REMARK    3  A    between atoms: C_9  and  C_10
REMARK    4  A    between atoms: C_15  and  C_16
REMARK                            x       y       z     vdW  Elec       q    Type
REMARK                         _______ _______ _______ _____ _____    ______ ____
ROOT
ATOM      1  C   UNL     1      47.812   8.001  11.957  0.00  0.00    +0.000 C 
ENDROOT
BRANCH   1   6
ATOM      2  C   UNL     1      48.853   7.612  16.825  0.00  0.00    +0.000 A 
ATOM      3  C   UNL     1      49.068   6.414  16.188  0.00  0.00    +0.000 A 
ATOM      4  N   UNL     1      48.985   6.257  14.846  0.00  0.00    +0.000 NA
ATOM      5  C   UNL     1      48.668   7.339  14.123  0.00  0.00    +0.000 A 
ATOM      6  N   UNL     1      48.691   7.167  12.758  0.00  0.00    +0.000 N 
ATOM      7  N   UNL     1      48.411   8.542  14.657  0.00  0.00    +0.000 NA
ATOM      8  C   UNL     1      48.497   8.652  16.004  0.00  0.00    +0.000 A 
ATOM      9  H   UNL     1      48.640   6.176  12.554  0.00  0.00    +0.000 HD
BRANCH   2  11
ATOM     10  N   UNL     1      47.799   7.788  19.002  0.00  0.00    +0.000 N 
ATOM     11  C   UNL     1      48.959   7.801  18.278  0.00  0.00    +0.000 C 
ATOM     12  O   UNL     1      50.047   7.924  18.819  0.00  0.00    +0.000 OA
ATOM     13  H   UNL     1      47.903   7.815  20.011  0.00  0.00    +0.000 HD
ATOM     14  H   UNL     1      46.925   7.430  18.644  0.00  0.00    +0.000 HD
ENDBRANCH   2  11
ENDBRANCH   1   6
BRANCH   1  15
ATOM     15  C   UNL     1      46.470   7.302  11.805  0.00  0.00    +0.000 A 
ATOM     16  C   UNL     1      45.368   7.810  12.485  0.00  0.00    +0.000 A 
ATOM     17  C   UNL     1      44.146   7.172  12.355  0.00  0.00    +0.000 A 
ATOM     18  C   UNL     1      44.039   6.033  11.557  0.00  0.00    +0.000 A 
ATOM     19 CL   UNL     1      42.495   5.255  11.570  0.00  0.00    +0.000 Cl
ATOM     20  C   UNL     1      45.173   5.577  10.860  0.00  0.00    +0.000 A 
ATOM     21  N   UNL     1      46.383   6.209  10.999  0.00  0.00    +0.000 NA
BRANCH  20  22
ATOM     22  C   UNL     1      45.207   4.412   9.936  0.00  0.00    +0.000 A 
ATOM     23  C   UNL     1      44.633   3.168  10.261  0.00  0.00    +0.000 A 
ATOM     24  C   UNL     1      44.711   2.065   9.406  0.00  0.00    +0.000 A 
ATOM     25  C   UNL     1      45.326   2.191   8.167  0.00  0.00    +0.000 A 
ATOM     26  C   UNL     1      45.855   3.422   7.793  0.00  0.00    +0.000 A 
ATOM     27 CL   UNL     1      46.582   3.590   6.241  0.00  0.00    +0.000 Cl
ATOM     28  C   UNL     1      45.802   4.518   8.661  0.00  0.00    +0.000 A 
ENDBRANCH  20  22
ENDBRANCH   1  15
TORSDOF 4
ENDMDL
MODEL 8
REMARK VINA RESULT:    -6.254      5.024      7.461
REMARK INTER + INTRA:          -8.526
REMARK INTER:                  -7.917
REMARK INTRA:                  -0.609
REMARK UNBOUND:                -0.810
REMARK  Name = 
REMARK  4 active torsions:
REMARK  status: ('A' for Active; 'I' for Inactive)
REMARK    1  A    between atoms: C_2  and  C_4
REMARK    2  A    between atoms: N_8  and  C_9
REMARK    3  A    between atoms: C_9  and  C_10
REMARK    4  A    between atoms: C_15  and  C_16
REMARK                            x       y       z     vdW  Elec       q    Type
REMARK                         _______ _______ _______ _____ _____    ______ ____
ROOT
ATOM      1  C   UNL     1      47.237   3.645  14.436  0.00  0.00    +0.000 C 
ENDROOT
BRANCH   1   6
ATOM      2  C   UNL     1      49.237   4.993  18.808  0.00  0.00    +0.000 A 
ATOM      3  C   UNL     1      47.869   5.118  18.843  0.00  0.00    +0.000 A 
ATOM      4  N   UNL     1      47.056   4.708  17.841  0.00  0.00    +0.000 NA
ATOM      5  C   UNL     1      47.640   4.162  16.766  0.00  0.00    +0.000 A 
ATOM      6  N   UNL     1      46.780   3.666  15.813  0.00  0.00    +0.000 N 
ATOM      7  N   UNL     1      48.967   4.026  16.627  0.00  0.00    +0.000 NA
ATOM      8  C   UNL     1      49.743   4.457  17.650  0.00  0.00    +0.000 A 
ATOM      9  H   UNL     1      45.867   4.081  15.952  0.00  0.00    +0.000 HD
BRANCH   2  11
ATOM     10  N   UNL     1      51.038   4.502  20.356  0.00  0.00    +0.000 N 
ATOM     11  C   UNL     1      50.129   5.415  19.895  0.00  0.00    +0.000 C 
ATOM     12  O   UNL     1      50.087   6.552  20.340  0.00  0.00    +0.000 OA
ATOM     13  H   UNL     1      51.712   4.847  21.032  0.00  0.00    +0.000 HD
ATOM     14  H   UNL     1      51.287   3.664  19.851  0.00  0.00    +0.000 HD
ENDBRANCH   2  11
ENDBRANCH   1   6
BRANCH   1  15
ATOM     15  C   UNL     1      46.599   4.803  13.684  0.00  0.00    +0.000 A 
ATOM     16  C   UNL     1      45.225   4.786  13.466  0.00  0.00    +0.000 A 
ATOM     17  C   UNL     1      44.642   5.834  12.775  0.00  0.00    +0.000 A 
ATOM     18  C   UNL     1      45.434   6.880  12.302  0.00  0.00    +0.000 A 
ATOM     19 CL   UNL     1      44.612   8.067  11.350  0.00  0.00    +0.000 Cl
ATOM     20  C   UNL     1      46.814   6.871  12.577  0.00  0.00    +0.000 A 
ATOM     21  N   UNL     1      47.388   5.826  13.256  0.00  0.00    +0.000 NA
BRANCH  20  22
ATOM     22  C   UNL     1      47.778   7.934  12.185  0.00  0.00    +0.000 A 
ATOM     23  C   UNL     1      47.460   9.305  12.235  0.00  0.00    +0.000 A 
ATOM     24  C   UNL     1      48.356  10.294  11.820  0.00  0.00    +0.000 A 
ATOM     25  C   UNL     1      49.626   9.940  11.388  0.00  0.00    +0.000 A 
ATOM     26  C   UNL     1      49.992   8.597  11.377  0.00  0.00    +0.000 A 
ATOM     27 CL   UNL     1      51.581   8.160  10.879  0.00  0.00    +0.000 Cl
ATOM     28  C   UNL     1      49.085   7.605  11.765  0.00  0.00    +0.000 A 
ENDBRANCH  20  22
ENDBRANCH   1  15
TORSDOF 4
ENDMDL
