MODEL 1
REMARK VINA RESULT:    -6.198      0.000      0.000
REMARK INTER + INTRA:          -9.286
REMARK INTER:                  -8.553
REMARK INTRA:                  -0.733
REMARK UNBOUND:                -0.733
REMARK  Name = 
REMARK  9 active torsions:
REMARK  status: ('A' for Active; 'I' for Inactive)
REMARK    1  A    between atoms: C_1  and  N_2
REMARK    2  A    between atoms: N_2  and  C_3
REMARK    3  A    between atoms: N_2  and  C_4
REMARK    4  A    between atoms: C_4  and  C_5
REMARK    5  A    between atoms: C_5  and  N_6
REMARK    6  A    between atoms: C_5  and  C_7
REMARK    7  A    between atoms: C_7  and  C_8
REMARK    8  A    between atoms: C_11  and  C_12
REMARK    9  A    between atoms: C_12  and  N_13
REMARK                            x       y       z     vdW  Elec       q    Type
REMARK                         _______ _______ _______ _____ _____    ______ ____
ROOT
ATOM      1  C   UNL     1      48.093   7.340  13.869  0.00  0.00    +0.000 A 
ATOM      2  C   UNL     1      47.839   6.094  13.282  0.00  0.00    +0.000 A 
ATOM      3  C   UNL     1      46.669   5.876  12.549  0.00  0.00    +0.000 A 
ATOM      4  C   UNL     1      45.722   6.895  12.388  0.00  0.00    +0.000 A 
ATOM      5  C   UNL     1      46.008   8.160  12.920  0.00  0.00    +0.000 A 
ATOM      6  C   UNL     1      47.184   8.380  13.653  0.00  0.00    +0.000 A 
ENDROOT
BRANCH   1   7
ATOM      7  C   UNL     1      49.280   7.535  14.793  0.00  0.00    +0.000 C 
BRANCH   7   8
ATOM      8  C   UNL     1      49.002   7.253  16.280  0.00  0.00    +0.000 C 
BRANCH   8   9
ATOM      9  N   UNL     1      49.134   8.518  17.038  0.00  0.00    +0.000 NA
ATOM     10  H   UNL     1      48.842   9.289  16.429  0.00  0.00    +0.000 HD
ATOM     11  H   UNL     1      50.128   8.699  17.185  0.00  0.00    +0.000 HD
ENDBRANCH   8   9
BRANCH   8  12
ATOM     12  C   UNL     1      49.894   6.103  16.866  0.00  0.00    +0.000 C 
BRANCH  12  14
ATOM     13  C   UNL     1      49.920   3.793  17.610  0.00  0.00    +0.000 C 
ATOM     14  N   UNL     1      49.327   4.744  16.664  0.00  0.00    +0.000 NA
ATOM     15  C   UNL     1      47.869   4.745  16.844  0.00  0.00    +0.000 C 
ENDBRANCH  12  14
ENDBRANCH   8  12
ENDBRANCH   7   8
ENDBRANCH   1   7
BRANCH   4  16
ATOM     16  C   UNL     1      44.420   6.627  11.671  0.00  0.00    +0.000 C 
BRANCH  16  17
ATOM     17  N   UNL     1      44.181   5.200  11.438  0.00  0.00    +0.000 N 
ATOM     18  C   UNL     1      43.383   4.414  12.241  0.00  0.00    +0.000 A 
ATOM     19  C   UNL     1      43.301   3.162  11.671  0.00  0.00    +0.000 A 
ATOM     20  C   UNL     1      44.033   3.203  10.467  0.00  0.00    +0.000 A 
ATOM     21  N   UNL     1      44.198   2.209   9.546  0.00  0.00    +0.000 NA
ATOM     22  C   UNL     1      44.914   2.553   8.462  0.00  0.00    +0.000 A 
ATOM     23  C   UNL     1      45.480   3.802   8.238  0.00  0.00    +0.000 A 
ATOM     24  C   UNL     1      45.318   4.806   9.188  0.00  0.00    +0.000 A 
ATOM     25  C   UNL     1      44.570   4.480  10.324  0.00  0.00    +0.000 A 
ENDBRANCH  16  17
ENDBRANCH   4  16
TORSDOF 7
ENDMDL
MODEL 2
REMARK VINA RESULT:    -5.718      1.601      2.511
REMARK INTER + INTRA:          -8.624
REMARK INTER:                  -8.051
REMARK INTRA:                  -0.573
REMARK UNBOUND:                -0.733
REMARK  Name = 
REMARK  9 active torsions:
REMARK  status: ('A' for Active; 'I' for Inactive)
REMARK    1  A    between atoms: C_1  and  N_2
REMARK    2  A    between atoms: N_2  and  C_3
REMARK    3  A    between atoms: N_2  and  C_4
REMARK    4  A    between atoms: C_4  and  C_5
REMARK    5  A    between atoms: C_5  and  N_6
REMARK    6  A    between atoms: C_5  and  C_7
REMARK    7  A    between atoms: C_7  and  C_8
REMARK    8  A    between atoms: C_11  and  C_12
REMARK    9  A    between atoms: C_12  and  N_13
REMARK                            x       y       z     vdW  Elec       q    Type
REMARK                         _______ _______ _______ _____ _____    ______ ____
ROOT
ATOM      1  C   UNL     1      48.144   7.356  13.157  0.00  0.00    +0.000 A 
ATOM      2  C   UNL     1      47.258   8.308  12.636  0.00  0.00    +0.000 A 
ATOM      3  C   UNL     1      45.967   7.942  12.244  0.00  0.00    +0.000 A 
ATOM      4  C   UNL     1      45.531   6.616  12.357  0.00  0.00    +0.000 A 
ATOM      5  C   UNL     1      46.396   5.678  12.940  0.00  0.00    +0.000 A 
ATOM      6  C   UNL     1      47.690   6.046  13.337  0.00  0.00    +0.000 A 
ENDROOT
BRANCH   1   7
ATOM      7  C   UNL     1      49.591   7.714  13.436  0.00  0.00    +0.000 C 
BRANCH   7   8
ATOM      8  C   UNL     1      49.942   7.897  14.924  0.00  0.00    +0.000 C 
BRANCH   8   9
ATOM      9  N   UNL     1      50.493   6.624  15.443  0.00  0.00    +0.000 NA
ATOM     10  H   UNL     1      49.709   6.013  15.690  0.00  0.00    +0.000 HD
ATOM     11  H   UNL     1      50.936   6.813  16.343  0.00  0.00    +0.000 HD
ENDBRANCH   8   9
BRANCH   8  12
ATOM     12  C   UNL     1      48.739   8.427  15.780  0.00  0.00    +0.000 C 
BRANCH  12  14
ATOM     13  C   UNL     1      49.706  10.634  16.072  0.00  0.00    +0.000 C 
ATOM     14  N   UNL     1      49.120   9.479  16.759  0.00  0.00    +0.000 NA
ATOM     15  C   UNL     1      47.955   9.930  17.532  0.00  0.00    +0.000 C 
ENDBRANCH  12  14
ENDBRANCH   8  12
ENDBRANCH   7   8
ENDBRANCH   1   7
BRANCH   4  16
ATOM     16  C   UNL     1      44.168   6.210  11.850  0.00  0.00    +0.000 C 
BRANCH  16  17
ATOM     17  N   UNL     1      44.103   4.798  11.463  0.00  0.00    +0.000 N 
ATOM     18  C   UNL     1      43.371   3.848  12.144  0.00  0.00    +0.000 A 
ATOM     19  C   UNL     1      43.453   2.662  11.448  0.00  0.00    +0.000 A 
ATOM     20  C   UNL     1      44.219   2.910  10.290  0.00  0.00    +0.000 A 
ATOM     21  N   UNL     1      44.529   2.043   9.282  0.00  0.00    +0.000 NA
ATOM     22  C   UNL     1      45.240   2.575   8.274  0.00  0.00    +0.000 A 
ATOM     23  C   UNL     1      45.667   3.895   8.204  0.00  0.00    +0.000 A 
ATOM     24  C   UNL     1      45.357   4.770   9.242  0.00  0.00    +0.000 A 
ATOM     25  C   UNL     1      44.611   4.246  10.302  0.00  0.00    +0.000 A 
ENDBRANCH  16  17
ENDBRANCH   4  16
TORSDOF 7
ENDMDL
MODEL 3
REMARK VINA RESULT:    -5.678      1.693      7.634
REMARK INTER + INTRA:          -8.569
REMARK INTER:                  -7.775
REMARK INTRA:                  -0.794
REMARK UNBOUND:                -0.733
REMARK  Name = 
REMARK  9 active torsions:
REMARK  status: ('A' for Active; 'I' for Inactive)
REMARK    1  A    between atoms: C_1  and  N_2
REMARK    2  A    between atoms: N_2  and  C_3
REMARK    3  A    between atoms: N_2  and  C_4
REMARK    4  A    between atoms: C_4  and  C_5
REMARK    5  A    between atoms: C_5  and  N_6
REMARK    6  A    between atoms: C_5  and  C_7
REMARK    7  A    between atoms: C_7  and  C_8
REMARK    8  A    between atoms: C_11  and  C_12
REMARK    9  A    between atoms: C_12  and  N_13
REMARK                            x       y       z     vdW  Elec       q    Type
REMARK                         _______ _______ _______ _____ _____    ______ ____
ROOT
ATOM      1  C   UNL     1      46.650   6.600  11.970  0.00  0.00    +0.000 A 
ATOM      2  C   UNL     1      47.785   7.372  11.688  0.00  0.00    +0.000 A 
ATOM      3  C   UNL     1      48.813   7.499  12.626  0.00  0.00    +0.000 A 
ATOM      4  C   UNL     1      48.733   6.861  13.870  0.00  0.00    +0.000 A 
ATOM      5  C   UNL     1      47.628   6.035  14.125  0.00  0.00    +0.000 A 
ATOM      6  C   UNL     1      46.598   5.906  13.183  0.00  0.00    +0.000 A 
ENDROOT
BRANCH   1   7
ATOM      7  C   UNL     1      45.466   6.586  11.023  0.00  0.00    +0.000 C 
BRANCH   7   8
ATOM      8  C   UNL     1      45.128   5.210  10.421  0.00  0.00    +0.000 C 
BRANCH   8   9
ATOM      9  N   UNL     1      45.606   5.173   9.019  0.00  0.00    +0.000 NA
ATOM     10  H   UNL     1      46.246   5.961   8.878  0.00  0.00    +0.000 HD
ATOM     11  H   UNL     1      44.820   5.398   8.409  0.00  0.00    +0.000 HD
ENDBRANCH   8   9
BRANCH   8  12
ATOM     12  C   UNL     1      43.611   4.836  10.551  0.00  0.00    +0.000 C 
BRANCH  12  14
ATOM     13  C   UNL     1      44.418   3.177  12.127  0.00  0.00    +0.000 C 
ATOM     14  N   UNL     1      43.291   4.044  11.767  0.00  0.00    +0.000 NA
ATOM     15  C   UNL     1      42.985   4.920  12.906  0.00  0.00    +0.000 C 
ENDBRANCH  12  14
ENDBRANCH   8  12
ENDBRANCH   7   8
ENDBRANCH   1   7
BRANCH   4  16
ATOM     16  C   UNL     1      49.804   7.074  14.912  0.00  0.00    +0.000 C 
BRANCH  16  17
ATOM     17  N   UNL     1      49.257   7.303  16.252  0.00  0.00    +0.000 N 
ATOM     18  C   UNL     1      48.694   8.493  16.659  0.00  0.00    +0.000 A 
ATOM     19  C   UNL     1      48.195   8.321  17.931  0.00  0.00    +0.000 A 
ATOM     20  C   UNL     1      48.422   6.976  18.289  0.00  0.00    +0.000 A 
ATOM     21  N   UNL     1      48.060   6.337  19.440  0.00  0.00    +0.000 NA
ATOM     22  C   UNL     1      48.369   5.030  19.485  0.00  0.00    +0.000 A 
ATOM     23  C   UNL     1      49.014   4.324  18.477  0.00  0.00    +0.000 A 
ATOM     24  C   UNL     1      49.390   4.986  17.311  0.00  0.00    +0.000 A 
ATOM     25  C   UNL     1      49.075   6.346  17.233  0.00  0.00    +0.000 A 
ENDBRANCH  16  17
ENDBRANCH   4  16
TORSDOF 7
ENDMDL
MODEL 4
REMARK VINA RESULT:    -5.432      1.776      7.940
REMARK INTER + INTRA:          -8.229
REMARK INTER:                  -7.734
REMARK INTRA:                  -0.495
REMARK UNBOUND:                -0.733
REMARK  Name = 
REMARK  9 active torsions:
REMARK  status: ('A' for Active; 'I' for Inactive)
REMARK    1  A    between atoms: C_1  and  N_2
REMARK    2  A    between atoms: N_2  and  C_3
REMARK    3  A    between atoms: N_2  and  C_4
REMARK    4  A    between atoms: C_4  and  C_5
REMARK    5  A    between atoms: C_5  and  N_6
REMARK    6  A    between atoms: C_5  and  C_7
REMARK    7  A    between atoms: C_7  and  C_8
REMARK    8  A    between atoms: C_11  and  C_12
REMARK    9  A    between atoms: C_12  and  N_13
REMARK                            x       y       z     vdW  Elec       q    Type
REMARK                         _______ _______ _______ _____ _____    ______ ____
ROOT
ATOM      1  C   UNL     1      46.986   5.552  13.197  0.00  0.00    +0.000 A 
ATOM      2  C   UNL     1      47.829   6.475  13.828  0.00  0.00    +0.000 A 
ATOM      3  C   UNL     1      48.265   6.264  15.140  0.00  0.00    +0.000 A 
ATOM      4  C   UNL     1      47.866   5.128  15.854  0.00  0.00    +0.000 A 
ATOM      5  C   UNL     1      47.076   4.172  15.199  0.00  0.00    +0.000 A 
ATOM      6  C   UNL     1      46.642   4.382  13.882  0.00  0.00    +0.000 A 
ENDROOT
BRANCH   1   7
ATOM      7  C   UNL     1      46.386   5.851  11.837  0.00  0.00    +0.000 C 
BRANCH   7   8
ATOM      8  C   UNL     1      44.958   6.423  11.866  0.00  0.00    +0.000 C 
BRANCH   8   9
ATOM      9  N   UNL     1      44.628   6.809  13.257  0.00  0.00    +0.000 NA
ATOM     10  H   UNL     1      44.506   5.954  13.807  0.00  0.00    +0.000 HD
ATOM     11  H   UNL     1      43.695   7.224  13.259  0.00  0.00    +0.000 HD
ENDBRANCH   8   9
BRANCH   8  12
ATOM     12  C   UNL     1      43.894   5.455  11.240  0.00  0.00    +0.000 C 
BRANCH  12  14
ATOM     13  C   UNL     1      43.642   3.066  11.586  0.00  0.00    +0.000 C 
ATOM     14  N   UNL     1      44.429   4.106  10.916  0.00  0.00    +0.000 NA
ATOM     15  C   UNL     1      44.406   3.860   9.468  0.00  0.00    +0.000 C 
ENDBRANCH  12  14
ENDBRANCH   8  12
ENDBRANCH   7   8
ENDBRANCH   1   7
BRANCH   4  16
ATOM     16  C   UNL     1      48.267   4.950  17.299  0.00  0.00    +0.000 C 
BRANCH  16  17
ATOM     17  N   UNL     1      49.713   4.793  17.473  0.00  0.00    +0.000 N 
ATOM     18  C   UNL     1      50.559   5.819  17.835  0.00  0.00    +0.000 A 
ATOM     19  C   UNL     1      51.822   5.296  18.007  0.00  0.00    +0.000 A 
ATOM     20  C   UNL     1      51.730   3.906  17.787  0.00  0.00    +0.000 A 
ATOM     21  N   UNL     1      52.719   2.969  17.888  0.00  0.00    +0.000 NA
ATOM     22  C   UNL     1      52.325   1.703  17.665  0.00  0.00    +0.000 A 
ATOM     23  C   UNL     1      51.032   1.310  17.344  0.00  0.00    +0.000 A 
ATOM     24  C   UNL     1      50.033   2.273  17.231  0.00  0.00    +0.000 A 
ATOM     25  C   UNL     1      50.411   3.599  17.465  0.00  0.00    +0.000 A 
ENDBRANCH  16  17
ENDBRANCH   4  16
TORSDOF 7
ENDMDL
MODEL 5
REMARK VINA RESULT:    -5.419      1.698      8.161
REMARK INTER + INTRA:          -8.211
REMARK INTER:                  -7.365
REMARK INTRA:                  -0.846
REMARK UNBOUND:                -0.733
REMARK  Name = 
REMARK  9 active torsions:
REMARK  status: ('A' for Active; 'I' for Inactive)
REMARK    1  A    between atoms: C_1  and  N_2
REMARK    2  A    between atoms: N_2  and  C_3
REMARK    3  A    between atoms: N_2  and  C_4
REMARK    4  A    between atoms: C_4  and  C_5
REMARK    5  A    between atoms: C_5  and  N_6
REMARK    6  A    between atoms: C_5  and  C_7
REMARK    7  A    between atoms: C_7  and  C_8
REMARK    8  A    between atoms: C_11  and  C_12
REMARK    9  A    between atoms: C_12  and  N_13
REMARK                            x       y       z     vdW  Elec       q    Type
REMARK                         _______ _______ _______ _____ _____    ______ ____
ROOT
ATOM      1  C   UNL     1      45.393   5.638  13.227  0.00  0.00    +0.000 A 
ATOM      2  C   UNL     1      45.878   6.892  12.832  0.00  0.00    +0.000 A 
ATOM      3  C   UNL     1      47.150   7.321  13.222  0.00  0.00    +0.000 A 
ATOM      4  C   UNL     1      47.968   6.510  14.018  0.00  0.00    +0.000 A 
ATOM      5  C   UNL     1      47.508   5.229  14.358  0.00  0.00    +0.000 A 
ATOM      6  C   UNL     1      46.233   4.798  13.964  0.00  0.00    +0.000 A 
ENDROOT
BRANCH   1   7
ATOM      7  C   UNL     1      43.960   5.235  12.940  0.00  0.00    +0.000 C 
BRANCH   7   8
ATOM      8  C   UNL     1      43.508   5.427  11.481  0.00  0.00    +0.000 C 
BRANCH   8   9
ATOM      9  N   UNL     1      42.180   6.082  11.477  0.00  0.00    +0.000 NA
ATOM     10  H   UNL     1      42.227   6.907  12.083  0.00  0.00    +0.000 HD
ATOM     11  H   UNL     1      41.522   5.471  11.962  0.00  0.00    +0.000 HD
ENDBRANCH   8   9
BRANCH   8  12
ATOM     12  C   UNL     1      43.526   4.097  10.650  0.00  0.00    +0.000 C 
BRANCH  12  14
ATOM     13  C   UNL     1      45.463   5.004   9.502  0.00  0.00    +0.000 C 
ATOM     14  N   UNL     1      44.237   4.214   9.349  0.00  0.00    +0.000 NA
ATOM     15  C   UNL     1      44.589   2.891   8.817  0.00  0.00    +0.000 C 
ENDBRANCH  12  14
ENDBRANCH   8  12
ENDBRANCH   7   8
ENDBRANCH   1   7
BRANCH   4  16
ATOM     16  C   UNL     1      49.304   7.014  14.510  0.00  0.00    +0.000 C 
BRANCH  16  17
ATOM     17  N   UNL     1      49.392   7.060  15.971  0.00  0.00    +0.000 N 
ATOM     18  C   UNL     1      50.120   6.165  16.726  0.00  0.00    +0.000 A 
ATOM     19  C   UNL     1      50.065   6.567  18.042  0.00  0.00    +0.000 A 
ATOM     20  C   UNL     1      49.320   7.763  18.082  0.00  0.00    +0.000 A 
ATOM     21  N   UNL     1      49.039   8.547  19.165  0.00  0.00    +0.000 NA
ATOM     22  C   UNL     1      48.342   9.663  18.892  0.00  0.00    +0.000 A 
ATOM     23  C   UNL     1      47.902  10.045  17.630  0.00  0.00    +0.000 A 
ATOM     24  C   UNL     1      48.182   9.235  16.534  0.00  0.00    +0.000 A 
ATOM     25  C   UNL     1      48.913   8.070  16.786  0.00  0.00    +0.000 A 
ENDBRANCH  16  17
ENDBRANCH   4  16
TORSDOF 7
ENDMDL
MODEL 6
REMARK VINA RESULT:    -5.139      1.727      8.184
REMARK INTER + INTRA:          -7.825
REMARK INTER:                  -7.099
REMARK INTRA:                  -0.726
REMARK UNBOUND:                -0.733
REMARK  Name = 
REMARK  9 active torsions:
REMARK  status: ('A' for Active; 'I' for Inactive)
REMARK    1  A    between atoms: C_1  and  N_2
REMARK    2  A    between atoms: N_2  and  C_3
REMARK    3  A    between atoms: N_2  and  C_4
REMARK    4  A    between atoms: C_4  and  C_5
REMARK    5  A    between atoms: C_5  and  N_6
REMARK    6  A    between atoms: C_5  and  C_7
REMARK    7  A    between atoms: C_7  and  C_8
REMARK    8  A    between atoms: C_11  and  C_12
REMARK    9  A    between atoms: C_12  and  N_13
REMARK                            x       y       z     vdW  Elec       q    Type
REMARK                         _______ _______ _______ _____ _____    ______ ____
ROOT
ATOM      1  C   UNL     1      45.927   5.293  12.655  0.00  0.00    +0.000 A 
ATOM      2  C   UNL     1      46.449   4.654  13.788  0.00  0.00    +0.000 A 
ATOM      3  C   UNL     1      47.482   5.239  14.525  0.00  0.00    +0.000 A 
ATOM      4  C   UNL     1      48.023   6.474  14.148  0.00  0.00    +0.000 A 
ATOM      5  C   UNL     1      47.456   7.144  13.054  0.00  0.00    +0.000 A 
ATOM      6  C   UNL     1      46.417   6.558  12.315  0.00  0.00    +0.000 A 
ENDROOT
BRANCH   1   7
ATOM      7  C   UNL     1      44.919   4.593  11.765  0.00  0.00    +0.000 C 
BRANCH   7   8
ATOM      8  C   UNL     1      44.783   5.178  10.348  0.00  0.00    +0.000 C 
BRANCH   8   9
ATOM      9  N   UNL     1      43.356   5.144   9.953  0.00  0.00    +0.000 NA
ATOM     10  H   UNL     1      43.246   5.699   9.099  0.00  0.00    +0.000 HD
ATOM     11  H   UNL     1      42.821   5.669  10.645  0.00  0.00    +0.000 HD
ENDBRANCH   8   9
BRANCH   8  12
ATOM     12  C   UNL     1      45.716   4.477   9.300  0.00  0.00    +0.000 C 
BRANCH  12  14
ATOM     13  C   UNL     1      45.677   3.365   7.143  0.00  0.00    +0.000 C 
ATOM     14  N   UNL     1      45.015   3.482   8.446  0.00  0.00    +0.000 NA
ATOM     15  C   UNL     1      44.990   2.159   9.085  0.00  0.00    +0.000 C 
ENDBRANCH  12  14
ENDBRANCH   8  12
ENDBRANCH   7   8
ENDBRANCH   1   7
BRANCH   4  16
ATOM     16  C   UNL     1      49.198   7.059  14.895  0.00  0.00    +0.000 C 
BRANCH  16  17
ATOM     17  N   UNL     1      48.806   7.725  16.140  0.00  0.00    +0.000 N 
ATOM     18  C   UNL     1      48.301   9.006  16.200  0.00  0.00    +0.000 A 
ATOM     19  C   UNL     1      47.946   9.267  17.505  0.00  0.00    +0.000 A 
ATOM     20  C   UNL     1      48.201   8.098  18.249  0.00  0.00    +0.000 A 
ATOM     21  N   UNL     1      47.967   7.873  19.576  0.00  0.00    +0.000 NA
ATOM     22  C   UNL     1      48.269   6.636  20.004  0.00  0.00    +0.000 A 
ATOM     23  C   UNL     1      48.792   5.619  19.214  0.00  0.00    +0.000 A 
ATOM     24  C   UNL     1      49.040   5.860  17.866  0.00  0.00    +0.000 A 
ATOM     25  C   UNL     1      48.728   7.137  17.389  0.00  0.00    +0.000 A 
ENDBRANCH  16  17
ENDBRANCH   4  16
TORSDOF 7
ENDMDL
MODEL 7
REMARK VINA RESULT:    -5.109      3.821      7.331
REMARK INTER + INTRA:          -7.783
REMARK INTER:                  -6.996
REMARK INTRA:                  -0.787
REMARK UNBOUND:                -0.733
REMARK  Name = 
REMARK  9 active torsions:
REMARK  status: ('A' for Active; 'I' for Inactive)
REMARK    1  A    between atoms: C_1  and  N_2
REMARK    2  A    between atoms: N_2  and  C_3
REMARK    3  A    between atoms: N_2  and  C_4
REMARK    4  A    between atoms: C_4  and  C_5
REMARK    5  A    between atoms: C_5  and  N_6
REMARK    6  A    between atoms: C_5  and  C_7
REMARK    7  A    between atoms: C_7  and  C_8
REMARK    8  A    between atoms: C_11  and  C_12
REMARK    9  A    between atoms: C_12  and  N_13
REMARK                            x       y       z     vdW  Elec       q    Type
REMARK                         _______ _______ _______ _____ _____    ______ ____
ROOT
ATOM      1  C   UNL     1      45.904   7.387  12.254  0.00  0.00    +0.000 A 
ATOM      2  C   UNL     1      47.002   6.663  11.773  0.00  0.00    +0.000 A 
ATOM      3  C   UNL     1      48.307   7.032  12.115  0.00  0.00    +0.000 A 
ATOM      4  C   UNL     1      48.546   8.136  12.942  0.00  0.00    +0.000 A 
ATOM      5  C   UNL     1      47.444   8.820  13.477  0.00  0.00    +0.000 A 
ATOM      6  C   UNL     1      46.136   8.447  13.137  0.00  0.00    +0.000 A 
ENDROOT
BRANCH   1   7
ATOM      7  C   UNL     1      44.501   7.088  11.763  0.00  0.00    +0.000 C 
BRANCH   7   8
ATOM      8  C   UNL     1      44.216   5.605  11.466  0.00  0.00    +0.000 C 
BRANCH   8   9
ATOM      9  N   UNL     1      43.367   5.516  10.255  0.00  0.00    +0.000 NA
ATOM     10  H   UNL     1      42.592   4.876  10.454  0.00  0.00    +0.000 HD
ATOM     11  H   UNL     1      43.895   5.028   9.532  0.00  0.00    +0.000 HD
ENDBRANCH   8   9
BRANCH   8  12
ATOM     12  C   UNL     1      43.604   4.838  12.689  0.00  0.00    +0.000 C 
BRANCH  12  14
ATOM     13  C   UNL     1      43.369   2.534  11.963  0.00  0.00    +0.000 C 
ATOM     14  N   UNL     1      44.110   3.448  12.838  0.00  0.00    +0.000 NA
ATOM     15  C   UNL     1      45.539   3.366  12.508  0.00  0.00    +0.000 C 
ENDBRANCH  12  14
ENDBRANCH   8  12
ENDBRANCH   7   8
ENDBRANCH   1   7
BRANCH   4  16
ATOM     16  C   UNL     1      49.958   8.583  13.236  0.00  0.00    +0.000 C 
BRANCH  16  17
ATOM     17  N   UNL     1      50.537   9.387  12.157  0.00  0.00    +0.000 N 
ATOM     18  C   UNL     1      50.529  10.765  12.136  0.00  0.00    +0.000 A 
ATOM     19  C   UNL     1      51.245  11.183  11.036  0.00  0.00    +0.000 A 
ATOM     20  C   UNL     1      51.738  10.028  10.396  0.00  0.00    +0.000 A 
ATOM     21  N   UNL     1      52.536   9.951   9.290  0.00  0.00    +0.000 NA
ATOM     22  C   UNL     1      52.891   8.705   8.932  0.00  0.00    +0.000 A 
ATOM     23  C   UNL     1      52.504   7.542   9.586  0.00  0.00    +0.000 A 
ATOM     24  C   UNL     1      51.681   7.628  10.705  0.00  0.00    +0.000 A 
ATOM     25  C   UNL     1      51.301   8.913  11.107  0.00  0.00    +0.000 A 
ENDBRANCH  16  17
ENDBRANCH   4  16
TORSDOF 7
ENDMDL
MODEL 8
REMARK VINA RESULT:    -5.039      1.986      7.708
REMARK INTER + INTRA:          -7.687
REMARK INTER:                  -7.053
REMARK INTRA:                  -0.634
REMARK UNBOUND:                -0.733
REMARK  Name = 
REMARK  9 active torsions:
REMARK  status: ('A' for Active; 'I' for Inactive)
REMARK    1  A    between atoms: C_1  and  N_2
REMARK    2  A    between atoms: N_2  and  C_3
REMARK    3  A    between atoms: N_2  and  C_4
REMARK    4  A    between atoms: C_4  and  C_5
REMARK    5  A    between atoms: C_5  and  N_6
REMARK    6  A    between atoms: C_5  and  C_7
REMARK    7  A    between atoms: C_7  and  C_8
REMARK    8  A    between atoms: C_11  and  C_12
REMARK    9  A    between atoms: C_12  and  N_13
REMARK                            x       y       z     vdW  Elec       q    Type
REMARK                         _______ _______ _______ _____ _____    ______ ____
ROOT
ATOM      1  C   UNL     1      46.296   7.011  12.117  0.00  0.00    +0.000 A 
ATOM      2  C   UNL     1      47.412   6.230  12.442  0.00  0.00    +0.000 A 
ATOM      3  C   UNL     1      48.349   6.677  13.378  0.00  0.00    +0.000 A 
ATOM      4  C   UNL     1      48.196   7.917  14.010  0.00  0.00    +0.000 A 
ATOM      5  C   UNL     1      47.045   8.668  13.733  0.00  0.00    +0.000 A 
ATOM      6  C   UNL     1      46.103   8.218  12.796  0.00  0.00    +0.000 A 
ENDROOT
BRANCH   1   7
ATOM      7  C   UNL     1      45.364   6.603  10.992  0.00  0.00    +0.000 C 
BRANCH   7   8
ATOM      8  C   UNL     1      44.079   5.885  11.438  0.00  0.00    +0.000 C 
BRANCH   8   9
ATOM      9  N   UNL     1      42.944   6.832  11.337  0.00  0.00    +0.000 NA
ATOM     10  H   UNL     1      42.122   6.395  11.763  0.00  0.00    +0.000 HD
ATOM     11  H   UNL     1      42.684   6.913  10.353  0.00  0.00    +0.000 HD
ENDBRANCH   8   9
BRANCH   8  12
ATOM     12  C   UNL     1      44.197   5.237  12.861  0.00  0.00    +0.000 C 
BRANCH  12  14
ATOM     13  C   UNL     1      43.272   3.246  11.825  0.00  0.00    +0.000 C 
ATOM     14  N   UNL     1      44.200   3.750  12.843  0.00  0.00    +0.000 NA
ATOM     15  C   UNL     1      45.543   3.225  12.562  0.00  0.00    +0.000 C 
ENDBRANCH  12  14
ENDBRANCH   8  12
ENDBRANCH   7   8
ENDBRANCH   1   7
BRANCH   4  16
ATOM     16  C   UNL     1      49.256   8.434  14.953  0.00  0.00    +0.000 C 
BRANCH  16  17
ATOM     17  N   UNL     1      49.382   7.623  16.167  0.00  0.00    +0.000 N 
ATOM     18  C   UNL     1      50.275   6.582  16.306  0.00  0.00    +0.000 A 
ATOM     19  C   UNL     1      50.194   6.117  17.600  0.00  0.00    +0.000 A 
ATOM     20  C   UNL     1      49.259   6.927  18.277  0.00  0.00    +0.000 A 
ATOM     21  N   UNL     1      48.885   6.866  19.589  0.00  0.00    +0.000 NA
ATOM     22  C   UNL     1      48.001   7.805  19.970  0.00  0.00    +0.000 A 
ATOM     23  C   UNL     1      47.463   8.782  19.143  0.00  0.00    +0.000 A 
ATOM     24  C   UNL     1      47.840   8.829  17.804  0.00  0.00    +0.000 A 
ATOM     25  C   UNL     1      48.765   7.870  17.380  0.00  0.00    +0.000 A 
ENDBRANCH  16  17
ENDBRANCH   4  16
TORSDOF 7
ENDMDL
MODEL 9
REMARK VINA RESULT:    -5.009      2.167      8.155
REMARK INTER + INTRA:          -7.645
REMARK INTER:                  -7.207
REMARK INTRA:                  -0.438
REMARK UNBOUND:                -0.733
REMARK  Name = 
REMARK  9 active torsions:
REMARK  status: ('A' for Active; 'I' for Inactive)
REMARK    1  A    between atoms: C_1  and  N_2
REMARK    2  A    between atoms: N_2  and  C_3
REMARK    3  A    between atoms: N_2  and  C_4
REMARK    4  A    between atoms: C_4  and  C_5
REMARK    5  A    between atoms: C_5  and  N_6
REMARK    6  A    between atoms: C_5  and  C_7
REMARK    7  A    between atoms: C_7  and  C_8
REMARK    8  A    between atoms: C_11  and  C_12
REMARK    9  A    between atoms: C_12  and  N_13
REMARK                            x       y       z     vdW  Elec       q    Type
REMARK                         _______ _______ _______ _____ _____    ______ ____
ROOT
ATOM      1  C   UNL     1      47.481   5.861  14.061  0.00  0.00    +0.000 A 
ATOM      2  C   UNL     1      46.877   4.712  14.588  0.00  0.00    +0.000 A 
ATOM      3  C   UNL     1      47.235   4.232  15.851  0.00  0.00    +0.000 A 
ATOM      4  C   UNL     1      48.208   4.885  16.617  0.00  0.00    +0.000 A 
ATOM      5  C   UNL     1      48.764   6.072  16.117  0.00  0.00    +0.000 A 
ATOM      6  C   UNL     1      48.402   6.555  14.851  0.00  0.00    +0.000 A 
ENDROOT
BRANCH   1   7
ATOM      7  C   UNL     1      47.211   6.294  12.633  0.00  0.00    +0.000 C 
BRANCH   7   8
ATOM      8  C   UNL     1      45.923   7.112  12.432  0.00  0.00    +0.000 C 
BRANCH   8   9
ATOM      9  N   UNL     1      45.989   8.322  13.284  0.00  0.00    +0.000 NA
ATOM     10  H   UNL     1      45.671   8.069  14.225  0.00  0.00    +0.000 HD
ATOM     11  H   UNL     1      45.275   8.976  12.963  0.00  0.00    +0.000 HD
ENDBRANCH   8   9
BRANCH   8  12
ATOM     12  C   UNL     1      44.618   6.275  12.673  0.00  0.00    +0.000 C 
BRANCH  12  14
ATOM     13  C   UNL     1      44.523   5.034  10.589  0.00  0.00    +0.000 C 
ATOM     14  N   UNL     1      43.836   6.016  11.435  0.00  0.00    +0.000 NA
ATOM     15  C   UNL     1      42.493   5.512  11.751  0.00  0.00    +0.000 C 
ENDBRANCH  12  14
ENDBRANCH   8  12
ENDBRANCH   7   8
ENDBRANCH   1   7
BRANCH   4  16
ATOM     16  C   UNL     1      48.655   4.313  17.941  0.00  0.00    +0.000 C 
BRANCH  16  17
ATOM     17  N   UNL     1      49.854   3.479  17.825  0.00  0.00    +0.000 N 
ATOM     18  C   UNL     1      49.859   2.212  17.283  0.00  0.00    +0.000 A 
ATOM     19  C   UNL     1      51.162   1.769  17.238  0.00  0.00    +0.000 A 
ATOM     20  C   UNL     1      51.975   2.812  17.726  0.00  0.00    +0.000 A 
ATOM     21  N   UNL     1      53.337   2.844  17.829  0.00  0.00    +0.000 NA
ATOM     22  C   UNL     1      53.844   4.000  18.289  0.00  0.00    +0.000 A 
ATOM     23  C   UNL     1      53.098   5.112  18.659  0.00  0.00    +0.000 A 
ATOM     24  C   UNL     1      51.710   5.067  18.564  0.00  0.00    +0.000 A 
ATOM     25  C   UNL     1      51.153   3.879  18.080  0.00  0.00    +0.000 A 
ENDBRANCH  16  17
ENDBRANCH   4  16
TORSDOF 7
ENDMDL
