MODEL 1
REMARK VINA RESULT:    -7.537      0.000      0.000
REMARK INTER + INTRA:         -11.245
REMARK INTER:                 -10.181
REMARK INTRA:                  -1.064
REMARK UNBOUND:                -1.064
REMARK  Name = 
REMARK  7 active torsions:
REMARK  status: ('A' for Active; 'I' for Inactive)
REMARK    1  A    between atoms: C_1  and  C_2
REMARK    2  A    between atoms: C_2  and  N_3
REMARK    3  A    between atoms: C_2  and  C_12
REMARK    4  A    between atoms: C_4  and  C_6
REMARK    5  A    between atoms: C_15  and  C_16
REMARK    6  A    between atoms: C_16  and  N_17
REMARK    7  A    between atoms: C_18  and  C_20
REMARK                            x       y       z     vdW  Elec       q    Type
REMARK                         _______ _______ _______ _____ _____    ______ ____
ROOT
ATOM      1  C   UNL     1      47.665   5.860  14.405  0.00  0.00    +0.000 A 
ATOM      2  C   UNL     1      47.025   4.613  14.379  0.00  0.00    +0.000 A 
ATOM      3  C   UNL     1      47.120   3.739  15.466  0.00  0.00    +0.000 A 
ATOM      4  C   UNL     1      47.856   4.098  16.601  0.00  0.00    +0.000 A 
ATOM      5  C   UNL     1      48.497   5.343  16.628  0.00  0.00    +0.000 A 
ATOM      6  C   UNL     1      48.393   6.218  15.549  0.00  0.00    +0.000 A 
ENDROOT
BRANCH   1   8
ATOM      7  C   UNL     1      48.984   7.083  12.637  0.00  0.00    +0.000 C 
ATOM      8  C   UNL     1      47.594   6.776  13.199  0.00  0.00    +0.000 C 
BRANCH   8   9
ATOM      9  N   UNL     1      46.728   6.196  12.181  0.00  0.00    +0.000 N 
ATOM     10  C   UNL     1      45.460   6.684  11.953  0.00  0.00    +0.000 C 
ATOM     11  O   UNL     1      44.987   7.601  12.616  0.00  0.00    +0.000 OA
ATOM     12  H   UNL     1      47.026   5.351  11.713  0.00  0.00    +0.000 HD
BRANCH  10  13
ATOM     13  C   UNL     1      44.692   5.963  10.818  0.00  0.00    +0.000 C 
ATOM     14  C   UNL     1      45.180   4.523  10.616  0.00  0.00    +0.000 C 
ATOM     15  C   UNL     1      44.777   3.609  11.772  0.00  0.00    +0.000 C 
ATOM     16  C   UNL     1      43.282   3.715  12.049  0.00  0.00    +0.000 C 
ATOM     17  C   UNL     1      42.827   5.166  12.187  0.00  0.00    +0.000 C 
ATOM     18  N   UNL     1      43.227   5.991  11.043  0.00  0.00    +0.000 NA
ATOM     19  H   UNL     1      42.914   6.946  11.201  0.00  0.00    +0.000 HD
ENDBRANCH  10  13
ENDBRANCH   8   9
ENDBRANCH   1   8
BRANCH   4  20
ATOM     20  C   UNL     1      48.038   3.136  17.745  0.00  0.00    +0.000 C 
BRANCH  20  21
ATOM     21  N   UNL     1      49.439   2.923  18.004  0.00  0.00    +0.000 N 
ATOM     22  C   UNL     1      50.218   2.167  17.170  0.00  0.00    +0.000 C 
ATOM     23  O   UNL     1      49.771   1.654  16.148  0.00  0.00    +0.000 OA
ATOM     24  H   UNL     1      49.771   3.136  18.940  0.00  0.00    +0.000 HD
BRANCH  22  25
ATOM     25  C   UNL     1      51.638   2.059  17.528  0.00  0.00    +0.000 A 
ATOM     26  C   UNL     1      52.217   0.806  17.673  0.00  0.00    +0.000 A 
ATOM     27  S   UNL     1      53.886   0.859  18.020  0.00  0.00    +0.000 S 
ATOM     28  C   UNL     1      53.882   2.559  18.047  0.00  0.00    +0.000 A 
ATOM     29  N   UNL     1      55.019   3.256  18.316  0.00  0.00    +0.000 NA
ATOM     30  C   UNL     1      54.867   4.538  18.333  0.00  0.00    +0.000 A 
ATOM     31  N   UNL     1      53.682   5.188  18.104  0.00  0.00    +0.000 N 
ATOM     32  C   UNL     1      52.514   4.527  17.800  0.00  0.00    +0.000 A 
ATOM     33  O   UNL     1      51.480   5.141  17.561  0.00  0.00    +0.000 OA
ATOM     34  C   UNL     1      52.629   3.081  17.776  0.00  0.00    +0.000 A 
ATOM     35  H   UNL     1      53.633   6.196  18.129  0.00  0.00    +0.000 HD
ENDBRANCH  22  25
ENDBRANCH  20  21
ENDBRANCH   4  20
TORSDOF 6
ENDMDL
MODEL 2
REMARK VINA RESULT:    -7.400      3.396      8.867
REMARK INTER + INTRA:         -11.060
REMARK INTER:                  -9.881
REMARK INTRA:                  -1.180
REMARK UNBOUND:                -1.064
REMARK  Name = 
REMARK  7 active torsions:
REMARK  status: ('A' for Active; 'I' for Inactive)
REMARK    1  A    between atoms: C_1  and  C_2
REMARK    2  A    between atoms: C_2  and  N_3
REMARK    3  A    between atoms: C_2  and  C_12
REMARK    4  A    between atoms: C_4  and  C_6
REMARK    5  A    between atoms: C_15  and  C_16
REMARK    6  A    between atoms: C_16  and  N_17
REMARK    7  A    between atoms: C_18  and  C_20
REMARK                            x       y       z     vdW  Elec       q    Type
REMARK                         _______ _______ _______ _____ _____    ______ ____
ROOT
ATOM      1  C   UNL     1      49.677   7.957  15.548  0.00  0.00    +0.000 A 
ATOM      2  C   UNL     1      50.142   7.404  14.346  0.00  0.00    +0.000 A 
ATOM      3  C   UNL     1      49.371   7.475  13.183  0.00  0.00    +0.000 A 
ATOM      4  C   UNL     1      48.119   8.101  13.199  0.00  0.00    +0.000 A 
ATOM      5  C   UNL     1      47.653   8.653  14.399  0.00  0.00    +0.000 A 
ATOM      6  C   UNL     1      48.427   8.592  15.556  0.00  0.00    +0.000 A 
ENDROOT
BRANCH   1   8
ATOM      7  C   UNL     1      50.713   9.186  17.492  0.00  0.00    +0.000 C 
ATOM      8  C   UNL     1      50.503   7.830  16.813  0.00  0.00    +0.000 C 
BRANCH   8   9
ATOM      9  N   UNL     1      49.882   6.875  17.722  0.00  0.00    +0.000 N 
ATOM     10  C   UNL     1      50.231   5.542  17.713  0.00  0.00    +0.000 C 
ATOM     11  O   UNL     1      51.051   5.091  16.921  0.00  0.00    +0.000 OA
ATOM     12  H   UNL     1      49.102   7.180  18.290  0.00  0.00    +0.000 HD
BRANCH  10  13
ATOM     13  C   UNL     1      49.488   4.679  18.762  0.00  0.00    +0.000 C 
ATOM     14  C   UNL     1      48.013   5.080  18.897  0.00  0.00    +0.000 C 
ATOM     15  C   UNL     1      47.194   4.690  17.668  0.00  0.00    +0.000 C 
ATOM     16  C   UNL     1      47.399   3.220  17.326  0.00  0.00    +0.000 C 
ATOM     17  C   UNL     1      48.879   2.850  17.257  0.00  0.00    +0.000 C 
ATOM     18  N   UNL     1      49.611   3.232  18.468  0.00  0.00    +0.000 NA
ATOM     19  H   UNL     1      50.589   2.979  18.355  0.00  0.00    +0.000 HD
ENDBRANCH  10  13
ENDBRANCH   8   9
ENDBRANCH   1   8
BRANCH   4  20
ATOM     20  C   UNL     1      47.239   8.112  11.977  0.00  0.00    +0.000 C 
BRANCH  20  21
ATOM     21  N   UNL     1      46.609   6.828  11.802  0.00  0.00    +0.000 N 
ATOM     22  C   UNL     1      45.256   6.709  11.627  0.00  0.00    +0.000 C 
ATOM     23  O   UNL     1      44.516   7.688  11.584  0.00  0.00    +0.000 OA
ATOM     24  H   UNL     1      47.152   6.010  12.061  0.00  0.00    +0.000 HD
BRANCH  22  25
ATOM     25  C   UNL     1      44.745   5.348  11.423  0.00  0.00    +0.000 A 
ATOM     26  C   UNL     1      43.981   4.745  12.414  0.00  0.00    +0.000 A 
ATOM     27  S   UNL     1      43.410   3.195  11.990  0.00  0.00    +0.000 S 
ATOM     28  C   UNL     1      44.211   3.250  10.491  0.00  0.00    +0.000 A 
ATOM     29  N   UNL     1      44.147   2.202   9.626  0.00  0.00    +0.000 NA
ATOM     30  C   UNL     1      44.825   2.366   8.540  0.00  0.00    +0.000 A 
ATOM     31  N   UNL     1      45.558   3.483   8.236  0.00  0.00    +0.000 N 
ATOM     32  C   UNL     1      45.628   4.578   9.066  0.00  0.00    +0.000 A 
ATOM     33  O   UNL     1      46.262   5.579   8.746  0.00  0.00    +0.000 OA
ATOM     34  C   UNL     1      44.890   4.442  10.308  0.00  0.00    +0.000 A 
ATOM     35  H   UNL     1      46.063   3.548   7.365  0.00  0.00    +0.000 HD
ENDBRANCH  22  25
ENDBRANCH  20  21
ENDBRANCH   4  20
TORSDOF 6
ENDMDL
MODEL 3
REMARK VINA RESULT:    -7.282      1.390      2.175
REMARK INTER + INTRA:         -10.901
REMARK INTER:                  -9.844
REMARK INTRA:                  -1.057
REMARK UNBOUND:                -1.064
REMARK  Name = 
REMARK  7 active torsions:
REMARK  status: ('A' for Active; 'I' for Inactive)
REMARK    1  A    between atoms: C_1  and  C_2
REMARK    2  A    between atoms: C_2  and  N_3
REMARK    3  A    between atoms: C_2  and  C_12
REMARK    4  A    between atoms: C_4  and  C_6
REMARK    5  A    between atoms: C_15  and  C_16
REMARK    6  A    between atoms: C_16  and  N_17
REMARK    7  A    between atoms: C_18  and  C_20
REMARK                            x       y       z     vdW  Elec       q    Type
REMARK                         _______ _______ _______ _____ _____    ______ ____
ROOT
ATOM      1  C   UNL     1      47.622   6.328  13.776  0.00  0.00    +0.000 A 
ATOM      2  C   UNL     1      46.981   5.110  14.042  0.00  0.00    +0.000 A 
ATOM      3  C   UNL     1      47.211   4.431  15.242  0.00  0.00    +0.000 A 
ATOM      4  C   UNL     1      48.085   4.958  16.199  0.00  0.00    +0.000 A 
ATOM      5  C   UNL     1      48.727   6.175  15.934  0.00  0.00    +0.000 A 
ATOM      6  C   UNL     1      48.489   6.857  14.742  0.00  0.00    +0.000 A 
ENDROOT
BRANCH   1   8
ATOM      7  C   UNL     1      48.722   7.475  11.816  0.00  0.00    +0.000 C 
ATOM      8  C   UNL     1      47.401   7.029  12.449  0.00  0.00    +0.000 C 
BRANCH   8   9
ATOM      9  N   UNL     1      46.648   6.167  11.549  0.00  0.00    +0.000 N 
ATOM     10  C   UNL     1      45.321   6.409  11.263  0.00  0.00    +0.000 C 
ATOM     11  O   UNL     1      44.704   7.335  11.780  0.00  0.00    +0.000 OA
ATOM     12  H   UNL     1      47.078   5.315  11.216  0.00  0.00    +0.000 HD
BRANCH  10  13
ATOM     13  C   UNL     1      44.687   5.407  10.268  0.00  0.00    +0.000 C 
ATOM     14  C   UNL     1      45.252   3.990  10.438  0.00  0.00    +0.000 C 
ATOM     15  C   UNL     1      44.788   3.336  11.738  0.00  0.00    +0.000 C 
ATOM     16  C   UNL     1      43.271   3.410  11.869  0.00  0.00    +0.000 C 
ATOM     17  C   UNL     1      42.745   4.824  11.637  0.00  0.00    +0.000 C 
ATOM     18  N   UNL     1      43.208   5.395  10.369  0.00  0.00    +0.000 NA
ATOM     19  H   UNL     1      42.843   6.340  10.280  0.00  0.00    +0.000 HD
ENDBRANCH  10  13
ENDBRANCH   8   9
ENDBRANCH   1   8
BRANCH   4  20
ATOM     20  C   UNL     1      48.408   4.200  17.459  0.00  0.00    +0.000 C 
BRANCH  20  21
ATOM     21  N   UNL     1      49.807   3.857  17.494  0.00  0.00    +0.000 N 
ATOM     22  C   UNL     1      50.617   4.242  18.528  0.00  0.00    +0.000 C 
ATOM     23  O   UNL     1      50.189   4.874  19.490  0.00  0.00    +0.000 OA
ATOM     24  H   UNL     1      50.225   3.546  16.622  0.00  0.00    +0.000 HD
BRANCH  22  25
ATOM     25  C   UNL     1      52.015   3.797  18.459  0.00  0.00    +0.000 A 
ATOM     26  C   UNL     1      53.031   4.663  18.842  0.00  0.00    +0.000 A 
ATOM     27  S   UNL     1      54.586   3.967  18.767  0.00  0.00    +0.000 S 
ATOM     28  C   UNL     1      53.963   2.504  18.166  0.00  0.00    +0.000 A 
ATOM     29  N   UNL     1      54.788   1.465  17.862  0.00  0.00    +0.000 NA
ATOM     30  C   UNL     1      54.185   0.427  17.388  0.00  0.00    +0.000 A 
ATOM     31  N   UNL     1      52.831   0.330  17.192  0.00  0.00    +0.000 N 
ATOM     32  C   UNL     1      51.956   1.342  17.511  0.00  0.00    +0.000 A 
ATOM     33  O   UNL     1      50.747   1.207  17.360  0.00  0.00    +0.000 OA
ATOM     34  C   UNL     1      52.585   2.537  18.041  0.00  0.00    +0.000 A 
ATOM     35  H   UNL     1      52.423  -0.515  16.819  0.00  0.00    +0.000 HD
ENDBRANCH  22  25
ENDBRANCH  20  21
ENDBRANCH   4  20
TORSDOF 6
ENDMDL
MODEL 4
REMARK VINA RESULT:    -6.554      5.884      9.572
REMARK INTER + INTRA:          -9.917
REMARK INTER:                  -8.807
REMARK INTRA:                  -1.110
REMARK UNBOUND:                -1.064
REMARK  Name = 
REMARK  7 active torsions:
REMARK  status: ('A' for Active; 'I' for Inactive)
REMARK    1  A    between atoms: C_1  and  C_2
REMARK    2  A    between atoms: C_2  and  N_3
REMARK    3  A    between atoms: C_2  and  C_12
REMARK    4  A    between atoms: C_4  and  C_6
REMARK    5  A    between atoms: C_15  and  C_16
REMARK    6  A    between atoms: C_16  and  N_17
REMARK    7  A    between atoms: C_18  and  C_20
REMARK                            x       y       z     vdW  Elec       q    Type
REMARK                         _______ _______ _______ _____ _____    ______ ____
ROOT
ATOM      1  C   UNL     1      50.322   8.729  12.372  0.00  0.00    +0.000 A 
ATOM      2  C   UNL     1      49.789   7.553  11.825  0.00  0.00    +0.000 A 
ATOM      3  C   UNL     1      48.407   7.390  11.696  0.00  0.00    +0.000 A 
ATOM      4  C   UNL     1      47.532   8.401  12.110  0.00  0.00    +0.000 A 
ATOM      5  C   UNL     1      48.063   9.575  12.657  0.00  0.00    +0.000 A 
ATOM      6  C   UNL     1      49.442   9.743  12.775  0.00  0.00    +0.000 A 
ENDROOT
BRANCH   1   8
ATOM      7  C   UNL     1      52.232   8.750  14.020  0.00  0.00    +0.000 C 
ATOM      8  C   UNL     1      51.821   8.873  12.551  0.00  0.00    +0.000 C 
BRANCH   8   9
ATOM      9  N   UNL     1      52.519   7.897  11.724  0.00  0.00    +0.000 N 
ATOM     10  C   UNL     1      53.703   8.205  11.091  0.00  0.00    +0.000 C 
ATOM     11  O   UNL     1      54.207   9.322  11.163  0.00  0.00    +0.000 OA
ATOM     12  H   UNL     1      52.066   7.015  11.524  0.00  0.00    +0.000 HD
BRANCH  10  13
ATOM     13  C   UNL     1      54.316   7.041  10.275  0.00  0.00    +0.000 C 
ATOM     14  C   UNL     1      53.238   6.164   9.624  0.00  0.00    +0.000 C 
ATOM     15  C   UNL     1      52.522   6.882   8.482  0.00  0.00    +0.000 C 
ATOM     16  C   UNL     1      53.526   7.455   7.490  0.00  0.00    +0.000 C 
ATOM     17  C   UNL     1      54.613   8.273   8.183  0.00  0.00    +0.000 C 
ATOM     18  N   UNL     1      55.277   7.529   9.258  0.00  0.00    +0.000 NA
ATOM     19  H   UNL     1      55.973   8.129   9.692  0.00  0.00    +0.000 HD
ENDBRANCH  10  13
ENDBRANCH   8   9
ENDBRANCH   1   8
BRANCH   4  20
ATOM     20  C   UNL     1      46.039   8.207  12.056  0.00  0.00    +0.000 C 
BRANCH  20  21
ATOM     21  N   UNL     1      45.722   6.825  11.800  0.00  0.00    +0.000 N 
ATOM     22  C   UNL     1      44.455   6.428  11.465  0.00  0.00    +0.000 C 
ATOM     23  O   UNL     1      43.533   7.230  11.339  0.00  0.00    +0.000 OA
ATOM     24  H   UNL     1      46.394   6.134  12.118  0.00  0.00    +0.000 HD
BRANCH  22  25
ATOM     25  C   UNL     1      44.274   4.996  11.195  0.00  0.00    +0.000 A 
ATOM     26  C   UNL     1      43.525   4.222  12.071  0.00  0.00    +0.000 A 
ATOM     27  S   UNL     1      43.355   2.599  11.574  0.00  0.00    +0.000 S 
ATOM     28  C   UNL     1      44.324   2.860  10.201  0.00  0.00    +0.000 A 
ATOM     29  N   UNL     1      44.601   1.845   9.338  0.00  0.00    +0.000 NA
ATOM     30  C   UNL     1      45.372   2.176   8.357  0.00  0.00    +0.000 A 
ATOM     31  N   UNL     1      45.889   3.429   8.157  0.00  0.00    +0.000 N 
ATOM     32  C   UNL     1      45.614   4.492   8.985  0.00  0.00    +0.000 A 
ATOM     33  O   UNL     1      46.061   5.610   8.754  0.00  0.00    +0.000 OA
ATOM     34  C   UNL     1      44.757   4.171  10.112  0.00  0.00    +0.000 A 
ATOM     35  H   UNL     1      46.484   3.622   7.364  0.00  0.00    +0.000 HD
ENDBRANCH  22  25
ENDBRANCH  20  21
ENDBRANCH   4  20
TORSDOF 6
ENDMDL
MODEL 5
REMARK VINA RESULT:    -6.342      3.325      9.434
REMARK INTER + INTRA:          -9.631
REMARK INTER:                  -8.472
REMARK INTRA:                  -1.158
REMARK UNBOUND:                -1.064
REMARK  Name = 
REMARK  7 active torsions:
REMARK  status: ('A' for Active; 'I' for Inactive)
REMARK    1  A    between atoms: C_1  and  C_2
REMARK    2  A    between atoms: C_2  and  N_3
REMARK    3  A    between atoms: C_2  and  C_12
REMARK    4  A    between atoms: C_4  and  C_6
REMARK    5  A    between atoms: C_15  and  C_16
REMARK    6  A    between atoms: C_16  and  N_17
REMARK    7  A    between atoms: C_18  and  C_20
REMARK                            x       y       z     vdW  Elec       q    Type
REMARK                         _______ _______ _______ _____ _____    ______ ____
ROOT
ATOM      1  C   UNL     1      49.567   5.952  18.932  0.00  0.00    +0.000 A 
ATOM      2  C   UNL     1      49.047   7.254  18.951  0.00  0.00    +0.000 A 
ATOM      3  C   UNL     1      48.833   7.954  17.760  0.00  0.00    +0.000 A 
ATOM      4  C   UNL     1      49.133   7.363  16.527  0.00  0.00    +0.000 A 
ATOM      5  C   UNL     1      49.653   6.063  16.507  0.00  0.00    +0.000 A 
ATOM      6  C   UNL     1      49.856   5.361  17.694  0.00  0.00    +0.000 A 
ENDROOT
BRANCH   1   8
ATOM      7  C   UNL     1      48.633   4.399  20.687  0.00  0.00    +0.000 C 
ATOM      8  C   UNL     1      49.840   5.223  20.233  0.00  0.00    +0.000 C 
BRANCH   8   9
ATOM      9  N   UNL     1      51.028   4.390  20.099  0.00  0.00    +0.000 N 
ATOM     10  C   UNL     1      52.254   4.804  20.573  0.00  0.00    +0.000 C 
ATOM     11  O   UNL     1      52.412   5.903  21.095  0.00  0.00    +0.000 OA
ATOM     12  H   UNL     1      50.969   3.543  19.550  0.00  0.00    +0.000 HD
BRANCH  10  13
ATOM     13  C   UNL     1      53.399   3.782  20.366  0.00  0.00    +0.000 C 
ATOM     14  C   UNL     1      53.212   2.959  19.085  0.00  0.00    +0.000 C 
ATOM     15  C   UNL     1      53.432   3.794  17.825  0.00  0.00    +0.000 C 
ATOM     16  C   UNL     1      54.763   4.531  17.891  0.00  0.00    +0.000 C 
ATOM     17  C   UNL     1      54.934   5.291  19.204  0.00  0.00    +0.000 C 
ATOM     18  N   UNL     1      54.728   4.437  20.378  0.00  0.00    +0.000 NA
ATOM     19  H   UNL     1      54.835   5.000  21.218  0.00  0.00    +0.000 HD
ENDBRANCH  10  13
ENDBRANCH   8   9
ENDBRANCH   1   8
BRANCH   4  20
ATOM     20  C   UNL     1      48.988   8.133  15.241  0.00  0.00    +0.000 C 
BRANCH  20  21
ATOM     21  N   UNL     1      47.842   7.666  14.504  0.00  0.00    +0.000 N 
ATOM     22  C   UNL     1      47.974   6.882  13.389  0.00  0.00    +0.000 C 
ATOM     23  O   UNL     1      49.071   6.516  12.976  0.00  0.00    +0.000 OA
ATOM     24  H   UNL     1      46.959   8.134  14.682  0.00  0.00    +0.000 HD
BRANCH  22  25
ATOM     25  C   UNL     1      46.726   6.443  12.752  0.00  0.00    +0.000 A 
ATOM     26  C   UNL     1      45.919   7.373  12.110  0.00  0.00    +0.000 A 
ATOM     27  S   UNL     1      44.546   6.688  11.365  0.00  0.00    +0.000 S 
ATOM     28  C   UNL     1      44.950   5.134  11.924  0.00  0.00    +0.000 A 
ATOM     29  N   UNL     1      44.156   4.064  11.648  0.00  0.00    +0.000 NA
ATOM     30  C   UNL     1      44.566   2.951  12.158  0.00  0.00    +0.000 A 
ATOM     31  N   UNL     1      45.699   2.808  12.916  0.00  0.00    +0.000 N 
ATOM     32  C   UNL     1      46.546   3.855  13.197  0.00  0.00    +0.000 A 
ATOM     33  O   UNL     1      47.573   3.684  13.846  0.00  0.00    +0.000 OA
ATOM     34  C   UNL     1      46.126   5.133  12.653  0.00  0.00    +0.000 A 
ATOM     35  H   UNL     1      45.964   1.906  13.283  0.00  0.00    +0.000 HD
ENDBRANCH  22  25
ENDBRANCH  20  21
ENDBRANCH   4  20
TORSDOF 6
ENDMDL
MODEL 6
REMARK VINA RESULT:    -6.324      1.975      3.229
REMARK INTER + INTRA:          -9.606
REMARK INTER:                  -8.799
REMARK INTRA:                  -0.807
REMARK UNBOUND:                -1.064
REMARK  Name = 
REMARK  7 active torsions:
REMARK  status: ('A' for Active; 'I' for Inactive)
REMARK    1  A    between atoms: C_1  and  C_2
REMARK    2  A    between atoms: C_2  and  N_3
REMARK    3  A    between atoms: C_2  and  C_12
REMARK    4  A    between atoms: C_4  and  C_6
REMARK    5  A    between atoms: C_15  and  C_16
REMARK    6  A    between atoms: C_16  and  N_17
REMARK    7  A    between atoms: C_18  and  C_20
REMARK                            x       y       z     vdW  Elec       q    Type
REMARK                         _______ _______ _______ _____ _____    ______ ____
ROOT
ATOM      1  C   UNL     1      47.930   7.763  14.158  0.00  0.00    +0.000 A 
ATOM      2  C   UNL     1      48.808   6.703  14.425  0.00  0.00    +0.000 A 
ATOM      3  C   UNL     1      49.701   6.769  15.498  0.00  0.00    +0.000 A 
ATOM      4  C   UNL     1      49.731   7.897  16.326  0.00  0.00    +0.000 A 
ATOM      5  C   UNL     1      48.855   8.957  16.061  0.00  0.00    +0.000 A 
ATOM      6  C   UNL     1      47.957   8.886  14.997  0.00  0.00    +0.000 A 
ENDROOT
BRANCH   1   8
ATOM      7  C   UNL     1      47.761   7.387  11.669  0.00  0.00    +0.000 C 
ATOM      8  C   UNL     1      47.001   7.699  12.961  0.00  0.00    +0.000 C 
BRANCH   8   9
ATOM      9  N   UNL     1      45.944   6.725  13.201  0.00  0.00    +0.000 N 
ATOM     10  C   UNL     1      44.815   6.680  12.413  0.00  0.00    +0.000 C 
ATOM     11  O   UNL     1      44.629   7.476  11.498  0.00  0.00    +0.000 OA
ATOM     12  H   UNL     1      45.994   6.147  14.029  0.00  0.00    +0.000 HD
BRANCH  10  13
ATOM     13  C   UNL     1      43.810   5.567  12.797  0.00  0.00    +0.000 C 
ATOM     14  C   UNL     1      42.852   5.234  11.646  0.00  0.00    +0.000 C 
ATOM     15  C   UNL     1      43.556   4.511  10.499  0.00  0.00    +0.000 C 
ATOM     16  C   UNL     1      44.333   3.306  11.016  0.00  0.00    +0.000 C 
ATOM     17  C   UNL     1      45.232   3.668  12.196  0.00  0.00    +0.000 C 
ATOM     18  N   UNL     1      44.501   4.344  13.272  0.00  0.00    +0.000 NA
ATOM     19  H   UNL     1      45.152   4.576  14.018  0.00  0.00    +0.000 HD
ENDBRANCH  10  13
ENDBRANCH   8   9
ENDBRANCH   1   8
BRANCH   4  20
ATOM     20  C   UNL     1      50.743   8.021  17.435  0.00  0.00    +0.000 C 
BRANCH  20  21
ATOM     21  N   UNL     1      51.450   6.777  17.609  0.00  0.00    +0.000 N 
ATOM     22  C   UNL     1      51.620   6.213  18.845  0.00  0.00    +0.000 C 
ATOM     23  O   UNL     1      51.157   6.722  19.863  0.00  0.00    +0.000 OA
ATOM     24  H   UNL     1      52.028   6.466  16.835  0.00  0.00    +0.000 HD
BRANCH  22  25
ATOM     25  C   UNL     1      52.327   4.927  18.880  0.00  0.00    +0.000 A 
ATOM     26  C   UNL     1      53.544   4.831  19.541  0.00  0.00    +0.000 A 
ATOM     27  S   UNL     1      54.197   3.255  19.547  0.00  0.00    +0.000 S 
ATOM     28  C   UNL     1      52.905   2.658  18.616  0.00  0.00    +0.000 A 
ATOM     29  N   UNL     1      52.860   1.351  18.241  0.00  0.00    +0.000 NA
ATOM     30  C   UNL     1      51.840   1.040  17.513  0.00  0.00    +0.000 A 
ATOM     31  N   UNL     1      50.858   1.916  17.128  0.00  0.00    +0.000 N 
ATOM     32  C   UNL     1      50.847   3.238  17.506  0.00  0.00    +0.000 A 
ATOM     33  O   UNL     1      49.932   3.986  17.177  0.00  0.00    +0.000 OA
ATOM     34  C   UNL     1      51.978   3.642  18.320  0.00  0.00    +0.000 A 
ATOM     35  H   UNL     1      50.083   1.606  16.559  0.00  0.00    +0.000 HD
ENDBRANCH  22  25
ENDBRANCH  20  21
ENDBRANCH   4  20
TORSDOF 6
ENDMDL
MODEL 7
REMARK VINA RESULT:    -6.252      2.818      4.560
REMARK INTER + INTRA:          -9.509
REMARK INTER:                  -8.210
REMARK INTRA:                  -1.299
REMARK UNBOUND:                -1.064
REMARK  Name = 
REMARK  7 active torsions:
REMARK  status: ('A' for Active; 'I' for Inactive)
REMARK    1  A    between atoms: C_1  and  C_2
REMARK    2  A    between atoms: C_2  and  N_3
REMARK    3  A    between atoms: C_2  and  C_12
REMARK    4  A    between atoms: C_4  and  C_6
REMARK    5  A    between atoms: C_15  and  C_16
REMARK    6  A    between atoms: C_16  and  N_17
REMARK    7  A    between atoms: C_18  and  C_20
REMARK                            x       y       z     vdW  Elec       q    Type
REMARK                         _______ _______ _______ _____ _____    ______ ____
ROOT
ATOM      1  C   UNL     1      45.767   8.138  12.197  0.00  0.00    +0.000 A 
ATOM      2  C   UNL     1      46.584   7.271  11.457  0.00  0.00    +0.000 A 
ATOM      3  C   UNL     1      47.952   7.176  11.728  0.00  0.00    +0.000 A 
ATOM      4  C   UNL     1      48.529   7.944  12.746  0.00  0.00    +0.000 A 
ATOM      5  C   UNL     1      47.714   8.811  13.485  0.00  0.00    +0.000 A 
ATOM      6  C   UNL     1      46.348   8.898  13.222  0.00  0.00    +0.000 A 
ENDROOT
BRANCH   1   8
ATOM      7  C   UNL     1      44.012   9.517  11.021  0.00  0.00    +0.000 C 
ATOM      8  C   UNL     1      44.295   8.268  11.859  0.00  0.00    +0.000 C 
BRANCH   8   9
ATOM      9  N   UNL     1      43.829   7.063  11.186  0.00  0.00    +0.000 N 
ATOM     10  C   UNL     1      43.417   5.956  11.894  0.00  0.00    +0.000 C 
ATOM     11  O   UNL     1      43.457   5.917  13.120  0.00  0.00    +0.000 OA
ATOM     12  H   UNL     1      43.915   7.003  10.180  0.00  0.00    +0.000 HD
BRANCH  10  13
ATOM     13  C   UNL     1      42.931   4.777  11.016  0.00  0.00    +0.000 C 
ATOM     14  C   UNL     1      43.774   4.621   9.744  0.00  0.00    +0.000 C 
ATOM     15  C   UNL     1      45.182   4.109  10.043  0.00  0.00    +0.000 C 
ATOM     16  C   UNL     1      45.129   2.850  10.900  0.00  0.00    +0.000 C 
ATOM     17  C   UNL     1      44.235   3.029  12.125  0.00  0.00    +0.000 C 
ATOM     18  N   UNL     1      42.893   3.505  11.777  0.00  0.00    +0.000 NA
ATOM     19  H   UNL     1      42.353   3.623  12.630  0.00  0.00    +0.000 HD
ENDBRANCH  10  13
ENDBRANCH   8   9
ENDBRANCH   1   8
BRANCH   4  20
ATOM     20  C   UNL     1      50.013   7.916  12.995  0.00  0.00    +0.000 C 
BRANCH  20  21
ATOM     21  N   UNL     1      50.306   7.175  14.196  0.00  0.00    +0.000 N 
ATOM     22  C   UNL     1      50.616   7.804  15.372  0.00  0.00    +0.000 C 
ATOM     23  O   UNL     1      50.635   9.029  15.471  0.00  0.00    +0.000 OA
ATOM     24  H   UNL     1      50.521   6.189  14.086  0.00  0.00    +0.000 HD
BRANCH  22  25
ATOM     25  C   UNL     1      50.858   6.935  16.530  0.00  0.00    +0.000 A 
ATOM     26  C   UNL     1      51.998   7.117  17.300  0.00  0.00    +0.000 A 
ATOM     27  S   UNL     1      52.091   6.072  18.644  0.00  0.00    +0.000 S 
ATOM     28  C   UNL     1      50.639   5.299  18.212  0.00  0.00    +0.000 A 
ATOM     29  N   UNL     1      50.148   4.268  18.953  0.00  0.00    +0.000 NA
ATOM     30  C   UNL     1      49.056   3.756  18.495  0.00  0.00    +0.000 A 
ATOM     31  N   UNL     1      48.406   4.180  17.365  0.00  0.00    +0.000 N 
ATOM     32  C   UNL     1      48.849   5.234  16.601  0.00  0.00    +0.000 A 
ATOM     33  O   UNL     1      48.222   5.614  15.618  0.00  0.00    +0.000 OA
ATOM     34  C   UNL     1      50.081   5.842  17.069  0.00  0.00    +0.000 A 
ATOM     35  H   UNL     1      47.552   3.736  17.063  0.00  0.00    +0.000 HD
ENDBRANCH  22  25
ENDBRANCH  20  21
ENDBRANCH   4  20
TORSDOF 6
ENDMDL
MODEL 8
REMARK VINA RESULT:    -6.229      3.524      8.335
REMARK INTER + INTRA:          -9.477
REMARK INTER:                  -7.898
REMARK INTRA:                  -1.580
REMARK UNBOUND:                -1.064
REMARK  Name = 
REMARK  7 active torsions:
REMARK  status: ('A' for Active; 'I' for Inactive)
REMARK    1  A    between atoms: C_1  and  C_2
REMARK    2  A    between atoms: C_2  and  N_3
REMARK    3  A    between atoms: C_2  and  C_12
REMARK    4  A    between atoms: C_4  and  C_6
REMARK    5  A    between atoms: C_15  and  C_16
REMARK    6  A    between atoms: C_16  and  N_17
REMARK    7  A    between atoms: C_18  and  C_20
REMARK                            x       y       z     vdW  Elec       q    Type
REMARK                         _______ _______ _______ _____ _____    ______ ____
ROOT
ATOM      1  C   UNL     1      50.445   8.093  17.050  0.00  0.00    +0.000 A 
ATOM      2  C   UNL     1      51.090   8.511  15.877  0.00  0.00    +0.000 A 
ATOM      3  C   UNL     1      50.372   9.127  14.849  0.00  0.00    +0.000 A 
ATOM      4  C   UNL     1      48.994   9.339  14.975  0.00  0.00    +0.000 A 
ATOM      5  C   UNL     1      48.348   8.922  16.146  0.00  0.00    +0.000 A 
ATOM      6  C   UNL     1      49.067   8.317  17.175  0.00  0.00    +0.000 A 
ENDROOT
BRANCH   1   8
ATOM      7  C   UNL     1      51.651   8.340  19.252  0.00  0.00    +0.000 C 
ATOM      8  C   UNL     1      51.228   7.382  18.136  0.00  0.00    +0.000 C 
BRANCH   8   9
ATOM      9  N   UNL     1      50.452   6.267  18.663  0.00  0.00    +0.000 N 
ATOM     10  C   UNL     1      50.461   5.031  18.053  0.00  0.00    +0.000 C 
ATOM     11  O   UNL     1      51.092   4.821  17.022  0.00  0.00    +0.000 OA
ATOM     12  H   UNL     1      49.810   6.438  19.425  0.00  0.00    +0.000 HD
BRANCH  10  13
ATOM     13  C   UNL     1      49.599   3.960  18.763  0.00  0.00    +0.000 C 
ATOM     14  C   UNL     1      48.259   4.528  19.248  0.00  0.00    +0.000 C 
ATOM     15  C   UNL     1      47.312   4.843  18.091  0.00  0.00    +0.000 C 
ATOM     16  C   UNL     1      47.168   3.640  17.167  0.00  0.00    +0.000 C 
ATOM     17  C   UNL     1      48.523   3.071  16.753  0.00  0.00    +0.000 C 
ATOM     18  N   UNL     1      49.382   2.772  17.903  0.00  0.00    +0.000 NA
ATOM     19  H   UNL     1      50.273   2.416  17.566  0.00  0.00    +0.000 HD
ENDBRANCH  10  13
ENDBRANCH   8   9
ENDBRANCH   1   8
BRANCH   4  20
ATOM     20  C   UNL     1      48.191   9.925  13.844  0.00  0.00    +0.000 C 
BRANCH  20  21
ATOM     21  N   UNL     1      47.125   9.031  13.470  0.00  0.00    +0.000 N 
ATOM     22  C   UNL     1      47.268   8.125  12.454  0.00  0.00    +0.000 C 
ATOM     23  O   UNL     1      48.319   8.010  11.827  0.00  0.00    +0.000 OA
ATOM     24  H   UNL     1      46.194   9.260  13.806  0.00  0.00    +0.000 HD
BRANCH  22  25
ATOM     25  C   UNL     1      46.119   7.248  12.198  0.00  0.00    +0.000 A 
ATOM     26  C   UNL     1      44.987   7.762  11.579  0.00  0.00    +0.000 A 
ATOM     27  S   UNL     1      43.775   6.597  11.295  0.00  0.00    +0.000 S 
ATOM     28  C   UNL     1      44.695   5.377  12.040  0.00  0.00    +0.000 A 
ATOM     29  N   UNL     1      44.214   4.109  12.153  0.00  0.00    +0.000 NA
ATOM     30  C   UNL     1      45.004   3.292  12.766  0.00  0.00    +0.000 A 
ATOM     31  N   UNL     1      46.233   3.626  13.274  0.00  0.00    +0.000 N 
ATOM     32  C   UNL     1      46.772   4.885  13.159  0.00  0.00    +0.000 A 
ATOM     33  O   UNL     1      47.891   5.140  13.590  0.00  0.00    +0.000 OA
ATOM     34  C   UNL     1      45.919   5.846  12.484  0.00  0.00    +0.000 A 
ATOM     35  H   UNL     1      46.803   2.935  13.741  0.00  0.00    +0.000 HD
ENDBRANCH  22  25
ENDBRANCH  20  21
ENDBRANCH   4  20
TORSDOF 6
ENDMDL
MODEL 9
REMARK VINA RESULT:    -5.905      3.235      8.834
REMARK INTER + INTRA:          -9.040
REMARK INTER:                  -7.611
REMARK INTRA:                  -1.429
REMARK UNBOUND:                -1.064
REMARK  Name = 
REMARK  7 active torsions:
REMARK  status: ('A' for Active; 'I' for Inactive)
REMARK    1  A    between atoms: C_1  and  C_2
REMARK    2  A    between atoms: C_2  and  N_3
REMARK    3  A    between atoms: C_2  and  C_12
REMARK    4  A    between atoms: C_4  and  C_6
REMARK    5  A    between atoms: C_15  and  C_16
REMARK    6  A    between atoms: C_16  and  N_17
REMARK    7  A    between atoms: C_18  and  C_20
REMARK                            x       y       z     vdW  Elec       q    Type
REMARK                         _______ _______ _______ _____ _____    ______ ____
ROOT
ATOM      1  C   UNL     1      50.156   8.848  17.368  0.00  0.00    +0.000 A 
ATOM      2  C   UNL     1      50.897   8.990  16.186  0.00  0.00    +0.000 A 
ATOM      3  C   UNL     1      50.257   9.221  14.966  0.00  0.00    +0.000 A 
ATOM      4  C   UNL     1      48.862   9.317  14.904  0.00  0.00    +0.000 A 
ATOM      5  C   UNL     1      48.120   9.175  16.084  0.00  0.00    +0.000 A 
ATOM      6  C   UNL     1      48.760   8.955  17.302  0.00  0.00    +0.000 A 
ENDROOT
BRANCH   1   8
ATOM      7  C   UNL     1      50.770   9.723  19.653  0.00  0.00    +0.000 C 
ATOM      8  C   UNL     1      50.861   8.548  18.676  0.00  0.00    +0.000 C 
BRANCH   8   9
ATOM      9  N   UNL     1      50.323   7.329  19.266  0.00  0.00    +0.000 N 
ATOM     10  C   UNL     1      50.783   6.085  18.891  0.00  0.00    +0.000 C 
ATOM     11  O   UNL     1      51.637   5.943  18.022  0.00  0.00    +0.000 OA
ATOM     12  H   UNL     1      49.522   7.397  19.879  0.00  0.00    +0.000 HD
BRANCH  10  13
ATOM     13  C   UNL     1      50.116   4.904  19.638  0.00  0.00    +0.000 C 
ATOM     14  C   UNL     1      48.650   5.195  19.982  0.00  0.00    +0.000 C 
ATOM     15  C   UNL     1      47.757   5.205  18.742  0.00  0.00    +0.000 C 
ATOM     16  C   UNL     1      47.953   3.935  17.924  0.00  0.00    +0.000 C 
ATOM     17  C   UNL     1      49.429   3.652  17.652  0.00  0.00    +0.000 C 
ATOM     18  N   UNL     1      50.234   3.638  18.877  0.00  0.00    +0.000 NA
ATOM     19  H   UNL     1      51.205   3.464  18.631  0.00  0.00    +0.000 HD
ENDBRANCH  10  13
ENDBRANCH   8   9
ENDBRANCH   1   8
BRANCH   4  20
ATOM     20  C   UNL     1      48.151   9.482  13.587  0.00  0.00    +0.000 C 
BRANCH  20  21
ATOM     21  N   UNL     1      47.220   8.401  13.380  0.00  0.00    +0.000 N 
ATOM     22  C   UNL     1      47.589   7.245  12.747  0.00  0.00    +0.000 C 
ATOM     23  O   UNL     1      48.736   7.059  12.347  0.00  0.00    +0.000 OA
ATOM     24  H   UNL     1      46.234   8.618  13.489  0.00  0.00    +0.000 HD
BRANCH  22  25
ATOM     25  C   UNL     1      46.556   6.209  12.633  0.00  0.00    +0.000 A 
ATOM     26  C   UNL     1      46.838   4.910  13.036  0.00  0.00    +0.000 A 
ATOM     27  S   UNL     1      45.510   3.848  12.902  0.00  0.00    +0.000 S 
ATOM     28  C   UNL     1      44.528   5.072  12.246  0.00  0.00    +0.000 A 
ATOM     29  N   UNL     1      43.243   4.815  11.880  0.00  0.00    +0.000 NA
ATOM     30  C   UNL     1      42.622   5.825  11.370  0.00  0.00    +0.000 A 
ATOM     31  N   UNL     1      43.167   7.070  11.194  0.00  0.00    +0.000 N 
ATOM     32  C   UNL     1      44.451   7.384  11.574  0.00  0.00    +0.000 A 
ATOM     33  O   UNL     1      44.895   8.520  11.439  0.00  0.00    +0.000 OA
ATOM     34  C   UNL     1      45.197   6.279  12.147  0.00  0.00    +0.000 A 
ATOM     35  H   UNL     1      42.624   7.819  10.791  0.00  0.00    +0.000 HD
ENDBRANCH  22  25
ENDBRANCH  20  21
ENDBRANCH   4  20
TORSDOF 6
ENDMDL
