MODEL 1
REMARK VINA RESULT:    -8.606      0.000      0.000
REMARK INTER + INTRA:         -13.485
REMARK INTER:                 -12.883
REMARK INTRA:                  -0.602
REMARK UNBOUND:                -0.602
REMARK  Name = 
REMARK  9 active torsions:
REMARK  status: ('A' for Active; 'I' for Inactive)
REMARK    1  A    between atoms: N_1  and  C_2
REMARK    2  A    between atoms: C_2  and  C_3
REMARK    3  A    between atoms: C_3  and  N_4
REMARK    4  A    between atoms: C_3  and  C_26
REMARK    5  A    between atoms: N_4  and  C_5
REMARK    6  A    between atoms: C_5  and  C_6
REMARK    7  A    between atoms: C_9  and  C_10
REMARK    8  A    between atoms: C_10  and  N_11
REMARK    9  A    between atoms: C_12  and  C_14
REMARK                            x       y       z     vdW  Elec       q    Type
REMARK                         _______ _______ _______ _____ _____    ______ ____
ROOT
ATOM      1  C   UNL     1      45.372   6.254  12.647  0.00  0.00    +0.000 C 
ATOM      2  C   UNL     1      46.066   5.190  13.520  0.00  0.00    +0.000 C 
ATOM      3  C   UNL     1      47.583   5.157  13.339  0.00  0.00    +0.000 C 
ATOM      4  C   UNL     1      48.240   6.536  13.530  0.00  0.00    +0.000 C 
ATOM      5  C   UNL     1      47.558   7.579  12.635  0.00  0.00    +0.000 C 
ATOM      6  C   UNL     1      46.044   7.625  12.840  0.00  0.00    +0.000 C 
ENDROOT
BRANCH   1   7
ATOM      7  C   UNL     1      45.302   5.896  11.142  0.00  0.00    +0.000 C 
BRANCH   7   8
ATOM      8  N   UNL     1      43.929   5.595  10.739  0.00  0.00    +0.000 NA
ATOM      9  H   UNL     1      43.299   5.889  11.489  0.00  0.00    +0.000 HD
BRANCH   8  10
ATOM     10  C   UNL     1      43.669   4.144  10.544  0.00  0.00    +0.000 C 
BRANCH  10  11
ATOM     11  C   UNL     1      44.687   3.584   9.546  0.00  0.00    +0.000 A 
ATOM     12  C   UNL     1      45.283   4.410   8.585  0.00  0.00    +0.000 A 
ATOM     13  C   UNL     1      46.132   3.857   7.628  0.00  0.00    +0.000 A 
ATOM     14  C   UNL     1      46.357   2.492   7.639  0.00  0.00    +0.000 A 
ATOM     15 CL   UNL     1      47.374   1.763   6.466  0.00  0.00    +0.000 Cl
ATOM     16  C   UNL     1      45.727   1.730   8.612  0.00  0.00    +0.000 A 
ATOM     17  N   UNL     1      44.898   2.240   9.559  0.00  0.00    +0.000 NA
ENDBRANCH  10  11
BRANCH  10  18
ATOM     18  C   UNL     1      43.618   3.304  11.861  0.00  0.00    +0.000 C 
BRANCH  18  19
ATOM     19  N   UNL     1      42.998   1.976  11.741  0.00  0.00    +0.000 NA
ATOM     20  H   UNL     1      43.679   1.256  11.976  0.00  0.00    +0.000 HD
ATOM     21  H   UNL     1      42.728   1.837  10.766  0.00  0.00    +0.000 HD
ENDBRANCH  18  19
ENDBRANCH  10  18
ENDBRANCH   8  10
ENDBRANCH   7   8
ENDBRANCH   1   7
BRANCH   4  22
ATOM     22  C   UNL     1      48.239   6.996  14.998  0.00  0.00    +0.000 C 
BRANCH  22  23
ATOM     23  N   UNL     1      49.303   6.371  15.745  0.00  0.00    +0.000 N 
ATOM     24  C   UNL     1      49.055   5.455  16.734  0.00  0.00    +0.000 C 
ATOM     25  O   UNL     1      47.918   5.092  17.020  0.00  0.00    +0.000 OA
ATOM     26  H   UNL     1      50.225   6.789  15.680  0.00  0.00    +0.000 HD
BRANCH  24  27
ATOM     27  C   UNL     1      50.233   4.891  17.400  0.00  0.00    +0.000 A 
ATOM     28  C   UNL     1      51.058   5.724  18.142  0.00  0.00    +0.000 A 
ATOM     29  S   UNL     1      52.378   4.916  18.858  0.00  0.00    +0.000 S 
ATOM     30  C   UNL     1      51.914   3.432  18.167  0.00  0.00    +0.000 A 
ATOM     31  N   UNL     1      52.661   2.311  18.359  0.00  0.00    +0.000 NA
ATOM     32  C   UNL     1      52.210   1.261  17.759  0.00  0.00    +0.000 A 
ATOM     33  N   UNL     1      51.072   1.223  16.996  0.00  0.00    +0.000 N 
ATOM     34  C   UNL     1      50.258   2.318  16.816  0.00  0.00    +0.000 A 
ATOM     35  O   UNL     1      49.201   2.228  16.201  0.00  0.00    +0.000 OA
ATOM     36  C   UNL     1      50.745   3.540  17.434  0.00  0.00    +0.000 A 
ATOM     37  H   UNL     1      50.761   0.361  16.575  0.00  0.00    +0.000 HD
ENDBRANCH  24  27
ENDBRANCH  22  23
ENDBRANCH   4  22
TORSDOF 9
ENDMDL
MODEL 2
REMARK VINA RESULT:    -8.526      2.061      2.397
REMARK INTER + INTRA:         -13.364
REMARK INTER:                 -12.602
REMARK INTRA:                  -0.763
REMARK UNBOUND:                -0.602
REMARK  Name = 
REMARK  9 active torsions:
REMARK  status: ('A' for Active; 'I' for Inactive)
REMARK    1  A    between atoms: N_1  and  C_2
REMARK    2  A    between atoms: C_2  and  C_3
REMARK    3  A    between atoms: C_3  and  N_4
REMARK    4  A    between atoms: C_3  and  C_26
REMARK    5  A    between atoms: N_4  and  C_5
REMARK    6  A    between atoms: C_5  and  C_6
REMARK    7  A    between atoms: C_9  and  C_10
REMARK    8  A    between atoms: C_10  and  N_11
REMARK    9  A    between atoms: C_12  and  C_14
REMARK                            x       y       z     vdW  Elec       q    Type
REMARK                         _______ _______ _______ _____ _____    ______ ____
ROOT
ATOM      1  C   UNL     1      43.665   6.346  11.897  0.00  0.00    +0.000 C 
ATOM      2  C   UNL     1      44.242   5.865  13.242  0.00  0.00    +0.000 C 
ATOM      3  C   UNL     1      45.517   5.035  13.091  0.00  0.00    +0.000 C 
ATOM      4  C   UNL     1      46.597   5.742  12.253  0.00  0.00    +0.000 C 
ATOM      5  C   UNL     1      46.017   6.190  10.905  0.00  0.00    +0.000 C 
ATOM      6  C   UNL     1      44.758   7.042  11.065  0.00  0.00    +0.000 C 
ENDROOT
BRANCH   1   7
ATOM      7  C   UNL     1      42.982   5.234  11.063  0.00  0.00    +0.000 C 
BRANCH   7   8
ATOM      8  N   UNL     1      43.827   4.827   9.941  0.00  0.00    +0.000 NA
ATOM      9  H   UNL     1      43.380   5.126   9.072  0.00  0.00    +0.000 HD
BRANCH   8  10
ATOM     10  C   UNL     1      43.990   3.354   9.821  0.00  0.00    +0.000 C 
BRANCH  10  11
ATOM     11  C   UNL     1      45.133   3.054   8.847  0.00  0.00    +0.000 A 
ATOM     12  C   UNL     1      45.647   4.054   8.011  0.00  0.00    +0.000 A 
ATOM     13  C   UNL     1      46.621   3.731   7.068  0.00  0.00    +0.000 A 
ATOM     14  C   UNL     1      47.050   2.420   6.965  0.00  0.00    +0.000 A 
ATOM     15 CL   UNL     1      48.228   1.973   5.802  0.00  0.00    +0.000 Cl
ATOM     16  C   UNL     1      46.491   1.478   7.817  0.00  0.00    +0.000 A 
ATOM     17  N   UNL     1      45.545   1.761   8.748  0.00  0.00    +0.000 NA
ENDBRANCH  10  11
BRANCH  10  18
ATOM     18  C   UNL     1      44.164   2.600  11.179  0.00  0.00    +0.000 C 
BRANCH  18  19
ATOM     19  N   UNL     1      42.965   1.915  11.682  0.00  0.00    +0.000 NA
ATOM     20  H   UNL     1      43.021   1.820  12.695  0.00  0.00    +0.000 HD
ATOM     21  H   UNL     1      42.947   0.973  11.287  0.00  0.00    +0.000 HD
ENDBRANCH  18  19
ENDBRANCH  10  18
ENDBRANCH   8  10
ENDBRANCH   7   8
ENDBRANCH   1   7
BRANCH   4  22
ATOM     22  C   UNL     1      47.238   6.930  12.991  0.00  0.00    +0.000 C 
BRANCH  22  23
ATOM     23  N   UNL     1      47.511   6.607  14.370  0.00  0.00    +0.000 N 
ATOM     24  C   UNL     1      48.781   6.629  14.882  0.00  0.00    +0.000 C 
ATOM     25  O   UNL     1      49.754   6.955  14.208  0.00  0.00    +0.000 OA
ATOM     26  H   UNL     1      46.775   6.143  14.893  0.00  0.00    +0.000 HD
BRANCH  24  27
ATOM     27  C   UNL     1      48.908   6.290  16.304  0.00  0.00    +0.000 A 
ATOM     28  C   UNL     1      49.454   7.220  17.177  0.00  0.00    +0.000 A 
ATOM     29  S   UNL     1      49.525   6.679  18.792  0.00  0.00    +0.000 S 
ATOM     30  C   UNL     1      48.866   5.168  18.372  0.00  0.00    +0.000 A 
ATOM     31  N   UNL     1      48.696   4.198  19.311  0.00  0.00    +0.000 NA
ATOM     32  C   UNL     1      48.211   3.092  18.854  0.00  0.00    +0.000 A 
ATOM     33  N   UNL     1      47.866   2.871  17.546  0.00  0.00    +0.000 N 
ATOM     34  C   UNL     1      47.972   3.838  16.572  0.00  0.00    +0.000 A 
ATOM     35  O   UNL     1      47.571   3.636  15.432  0.00  0.00    +0.000 OA
ATOM     36  C   UNL     1      48.557   5.089  17.026  0.00  0.00    +0.000 A 
ATOM     37  H   UNL     1      47.467   1.990  17.259  0.00  0.00    +0.000 HD
ENDBRANCH  24  27
ENDBRANCH  22  23
ENDBRANCH   4  22
TORSDOF 9
ENDMDL
MODEL 3
REMARK VINA RESULT:    -8.202      1.677      2.345
REMARK INTER + INTRA:         -12.880
REMARK INTER:                 -11.265
REMARK INTRA:                  -1.615
REMARK UNBOUND:                -0.602
REMARK  Name = 
REMARK  9 active torsions:
REMARK  status: ('A' for Active; 'I' for Inactive)
REMARK    1  A    between atoms: N_1  and  C_2
REMARK    2  A    between atoms: C_2  and  C_3
REMARK    3  A    between atoms: C_3  and  N_4
REMARK    4  A    between atoms: C_3  and  C_26
REMARK    5  A    between atoms: N_4  and  C_5
REMARK    6  A    between atoms: C_5  and  C_6
REMARK    7  A    between atoms: C_9  and  C_10
REMARK    8  A    between atoms: C_10  and  N_11
REMARK    9  A    between atoms: C_12  and  C_14
REMARK                            x       y       z     vdW  Elec       q    Type
REMARK                         _______ _______ _______ _____ _____    ______ ____
ROOT
ATOM      1  C   UNL     1      45.340   6.809  11.132  0.00  0.00    +0.000 C 
ATOM      2  C   UNL     1      45.525   8.295  11.497  0.00  0.00    +0.000 C 
ATOM      3  C   UNL     1      45.669   8.534  13.000  0.00  0.00    +0.000 C 
ATOM      4  C   UNL     1      46.769   7.671  13.642  0.00  0.00    +0.000 C 
ATOM      5  C   UNL     1      46.557   6.192  13.294  0.00  0.00    +0.000 C 
ATOM      6  C   UNL     1      46.441   5.956  11.788  0.00  0.00    +0.000 C 
ENDROOT
BRANCH   1   7
ATOM      7  C   UNL     1      43.942   6.238  11.475  0.00  0.00    +0.000 C 
BRANCH   7   8
ATOM      8  N   UNL     1      43.403   5.466  10.356  0.00  0.00    +0.000 NA
ATOM      9  H   UNL     1      42.400   5.652  10.286  0.00  0.00    +0.000 HD
BRANCH   8  10
ATOM     10  C   UNL     1      43.526   3.995  10.532  0.00  0.00    +0.000 C 
BRANCH  10  11
ATOM     11  C   UNL     1      44.574   3.460   9.552  0.00  0.00    +0.000 A 
ATOM     12  C   UNL     1      45.183   4.306   8.616  0.00  0.00    +0.000 A 
ATOM     13  C   UNL     1      46.062   3.775   7.674  0.00  0.00    +0.000 A 
ATOM     14  C   UNL     1      46.303   2.412   7.672  0.00  0.00    +0.000 A 
ATOM     15 CL   UNL     1      47.356   1.711   6.515  0.00  0.00    +0.000 Cl
ATOM     16  C   UNL     1      45.658   1.630   8.620  0.00  0.00    +0.000 A 
ATOM     17  N   UNL     1      44.801   2.119   9.553  0.00  0.00    +0.000 NA
ENDBRANCH  10  11
BRANCH  10  18
ATOM     18  C   UNL     1      43.805   3.531  11.999  0.00  0.00    +0.000 C 
BRANCH  18  19
ATOM     19  N   UNL     1      43.489   2.125  12.289  0.00  0.00    +0.000 NA
ATOM     20  H   UNL     1      44.343   1.570  12.275  0.00  0.00    +0.000 HD
ATOM     21  H   UNL     1      42.883   1.774  11.546  0.00  0.00    +0.000 HD
ENDBRANCH  18  19
ENDBRANCH  10  18
ENDBRANCH   8  10
ENDBRANCH   7   8
ENDBRANCH   1   7
BRANCH   4  22
ATOM     22  C   UNL     1      48.186   8.124  13.246  0.00  0.00    +0.000 C 
BRANCH  22  23
ATOM     23  N   UNL     1      49.191   7.446  14.028  0.00  0.00    +0.000 N 
ATOM     24  C   UNL     1      49.859   8.070  15.049  0.00  0.00    +0.000 C 
ATOM     25  O   UNL     1      49.620   9.228  15.377  0.00  0.00    +0.000 OA
ATOM     26  H   UNL     1      49.554   6.572  13.662  0.00  0.00    +0.000 HD
BRANCH  24  27
ATOM     27  C   UNL     1      50.845   7.255  15.767  0.00  0.00    +0.000 A 
ATOM     28  C   UNL     1      52.189   7.589  15.690  0.00  0.00    +0.000 A 
ATOM     29  S   UNL     1      53.203   6.551  16.583  0.00  0.00    +0.000 S 
ATOM     30  C   UNL     1      51.884   5.594  17.072  0.00  0.00    +0.000 A 
ATOM     31  N   UNL     1      52.074   4.489  17.843  0.00  0.00    +0.000 NA
ATOM     32  C   UNL     1      50.992   3.841  18.120  0.00  0.00    +0.000 A 
ATOM     33  N   UNL     1      49.736   4.203  17.710  0.00  0.00    +0.000 N 
ATOM     34  C   UNL     1      49.489   5.339  16.972  0.00  0.00    +0.000 A 
ATOM     35  O   UNL     1      48.345   5.681  16.699  0.00  0.00    +0.000 OA
ATOM     36  C   UNL     1      50.680   6.081  16.595  0.00  0.00    +0.000 A 
ATOM     37  H   UNL     1      48.928   3.664  17.983  0.00  0.00    +0.000 HD
ENDBRANCH  24  27
ENDBRANCH  22  23
ENDBRANCH   4  22
TORSDOF 9
ENDMDL
MODEL 4
REMARK VINA RESULT:    -8.109      2.317      3.135
REMARK INTER + INTRA:         -12.740
REMARK INTER:                 -12.003
REMARK INTRA:                  -0.738
REMARK UNBOUND:                -0.602
REMARK  Name = 
REMARK  9 active torsions:
REMARK  status: ('A' for Active; 'I' for Inactive)
REMARK    1  A    between atoms: N_1  and  C_2
REMARK    2  A    between atoms: C_2  and  C_3
REMARK    3  A    between atoms: C_3  and  N_4
REMARK    4  A    between atoms: C_3  and  C_26
REMARK    5  A    between atoms: N_4  and  C_5
REMARK    6  A    between atoms: C_5  and  C_6
REMARK    7  A    between atoms: C_9  and  C_10
REMARK    8  A    between atoms: C_10  and  N_11
REMARK    9  A    between atoms: C_12  and  C_14
REMARK                            x       y       z     vdW  Elec       q    Type
REMARK                         _______ _______ _______ _____ _____    ______ ____
ROOT
ATOM      1  C   UNL     1      45.548   6.714  12.001  0.00  0.00    +0.000 C 
ATOM      2  C   UNL     1      46.008   5.915  13.236  0.00  0.00    +0.000 C 
ATOM      3  C   UNL     1      47.505   5.606  13.232  0.00  0.00    +0.000 C 
ATOM      4  C   UNL     1      48.375   6.860  13.036  0.00  0.00    +0.000 C 
ATOM      5  C   UNL     1      47.925   7.631  11.788  0.00  0.00    +0.000 C 
ATOM      6  C   UNL     1      46.433   7.959  11.811  0.00  0.00    +0.000 C 
ENDROOT
BRANCH   1   7
ATOM      7  C   UNL     1      45.494   5.888  10.692  0.00  0.00    +0.000 C 
BRANCH   7   8
ATOM      8  N   UNL     1      44.117   5.517  10.365  0.00  0.00    +0.000 NA
ATOM      9  H   UNL     1      43.508   5.826  11.126  0.00  0.00    +0.000 HD
BRANCH   8  10
ATOM     10  C   UNL     1      43.906   4.050  10.254  0.00  0.00    +0.000 C 
BRANCH  10  11
ATOM     11  C   UNL     1      44.906   3.475   9.246  0.00  0.00    +0.000 A 
ATOM     12  C   UNL     1      45.422   4.268   8.212  0.00  0.00    +0.000 A 
ATOM     13  C   UNL     1      46.256   3.694   7.254  0.00  0.00    +0.000 A 
ATOM     14  C   UNL     1      46.546   2.344   7.335  0.00  0.00    +0.000 A 
ATOM     15 CL   UNL     1      47.546   1.591   6.163  0.00  0.00    +0.000 Cl
ATOM     16  C   UNL     1      45.993   1.616   8.379  0.00  0.00    +0.000 A 
ATOM     17  N   UNL     1      45.181   2.146   9.330  0.00  0.00    +0.000 NA
ENDBRANCH  10  11
BRANCH  10  18
ATOM     18  C   UNL     1      43.935   3.278  11.613  0.00  0.00    +0.000 C 
BRANCH  18  19
ATOM     19  N   UNL     1      43.023   2.127  11.707  0.00  0.00    +0.000 NA
ATOM     20  H   UNL     1      43.242   1.454  10.975  0.00  0.00    +0.000 HD
ATOM     21  H   UNL     1      42.072   2.460  11.543  0.00  0.00    +0.000 HD
ENDBRANCH  18  19
ENDBRANCH  10  18
ENDBRANCH   8  10
ENDBRANCH   7   8
ENDBRANCH   1   7
BRANCH   4  22
ATOM     22  C   UNL     1      48.380   7.780  14.270  0.00  0.00    +0.000 C 
BRANCH  22  23
ATOM     23  N   UNL     1      48.259   7.020  15.491  0.00  0.00    +0.000 N 
ATOM     24  C   UNL     1      49.350   6.485  16.123  0.00  0.00    +0.000 C 
ATOM     25  O   UNL     1      50.493   6.647  15.706  0.00  0.00    +0.000 OA
ATOM     26  H   UNL     1      47.332   6.698  15.748  0.00  0.00    +0.000 HD
BRANCH  24  27
ATOM     27  C   UNL     1      49.080   5.749  17.362  0.00  0.00    +0.000 A 
ATOM     28  C   UNL     1      49.352   4.390  17.418  0.00  0.00    +0.000 A 
ATOM     29  S   UNL     1      48.991   3.682  18.926  0.00  0.00    +0.000 S 
ATOM     30  C   UNL     1      48.419   5.161  19.544  0.00  0.00    +0.000 A 
ATOM     31  N   UNL     1      47.914   5.240  20.805  0.00  0.00    +0.000 NA
ATOM     32  C   UNL     1      47.493   6.415  21.138  0.00  0.00    +0.000 A 
ATOM     33  N   UNL     1      47.543   7.521  20.331  0.00  0.00    +0.000 N 
ATOM     34  C   UNL     1      48.091   7.501  19.069  0.00  0.00    +0.000 A 
ATOM     35  O   UNL     1      48.201   8.529  18.409  0.00  0.00    +0.000 OA
ATOM     36  C   UNL     1      48.539   6.191  18.628  0.00  0.00    +0.000 A 
ATOM     37  H   UNL     1      47.219   8.417  20.663  0.00  0.00    +0.000 HD
ENDBRANCH  24  27
ENDBRANCH  22  23
ENDBRANCH   4  22
TORSDOF 9
ENDMDL
MODEL 5
REMARK VINA RESULT:    -7.593      3.843      8.636
REMARK INTER + INTRA:         -11.968
REMARK INTER:                 -10.957
REMARK INTRA:                  -1.011
REMARK UNBOUND:                -0.602
REMARK  Name = 
REMARK  9 active torsions:
REMARK  status: ('A' for Active; 'I' for Inactive)
REMARK    1  A    between atoms: N_1  and  C_2
REMARK    2  A    between atoms: C_2  and  C_3
REMARK    3  A    between atoms: C_3  and  N_4
REMARK    4  A    between atoms: C_3  and  C_26
REMARK    5  A    between atoms: N_4  and  C_5
REMARK    6  A    between atoms: C_5  and  C_6
REMARK    7  A    between atoms: C_9  and  C_10
REMARK    8  A    between atoms: C_10  and  N_11
REMARK    9  A    between atoms: C_12  and  C_14
REMARK                            x       y       z     vdW  Elec       q    Type
REMARK                         _______ _______ _______ _____ _____    ______ ____
ROOT
ATOM      1  C   UNL     1      48.297   7.402  15.117  0.00  0.00    +0.000 C 
ATOM      2  C   UNL     1      48.020   8.809  14.552  0.00  0.00    +0.000 C 
ATOM      3  C   UNL     1      48.704   9.065  13.209  0.00  0.00    +0.000 C 
ATOM      4  C   UNL     1      48.392   7.982  12.161  0.00  0.00    +0.000 C 
ATOM      5  C   UNL     1      48.698   6.589  12.726  0.00  0.00    +0.000 C 
ATOM      6  C   UNL     1      47.990   6.330  14.056  0.00  0.00    +0.000 C 
ENDROOT
BRANCH   1   7
ATOM      7  C   UNL     1      49.728   7.211  15.677  0.00  0.00    +0.000 C 
BRANCH   7   8
ATOM      8  N   UNL     1      49.692   6.868  17.099  0.00  0.00    +0.000 NA
ATOM      9  H   UNL     1      50.638   6.622  17.398  0.00  0.00    +0.000 HD
BRANCH   8  10
ATOM     10  C   UNL     1      48.854   5.678  17.403  0.00  0.00    +0.000 C 
BRANCH  10  11
ATOM     11  C   UNL     1      49.757   4.445  17.510  0.00  0.00    +0.000 A 
ATOM     12  C   UNL     1      51.084   4.560  17.942  0.00  0.00    +0.000 A 
ATOM     13  C   UNL     1      51.911   3.438  17.940  0.00  0.00    +0.000 A 
ATOM     14  C   UNL     1      51.405   2.230  17.492  0.00  0.00    +0.000 A 
ATOM     15 CL   UNL     1      52.393   0.829  17.447  0.00  0.00    +0.000 Cl
ATOM     16  C   UNL     1      50.084   2.189  17.068  0.00  0.00    +0.000 A 
ATOM     17  N   UNL     1      49.253   3.263  17.063  0.00  0.00    +0.000 NA
ENDBRANCH  10  11
BRANCH  10  18
ATOM     18  C   UNL     1      47.923   5.832  18.649  0.00  0.00    +0.000 C 
BRANCH  18  19
ATOM     19  N   UNL     1      46.568   5.280  18.499  0.00  0.00    +0.000 NA
ATOM     20  H   UNL     1      46.084   5.307  19.394  0.00  0.00    +0.000 HD
ATOM     21  H   UNL     1      46.652   4.300  18.225  0.00  0.00    +0.000 HD
ENDBRANCH  18  19
ENDBRANCH  10  18
ENDBRANCH   8  10
ENDBRANCH   7   8
ENDBRANCH   1   7
BRANCH   4  22
ATOM     22  C   UNL     1      46.944   8.053  11.646  0.00  0.00    +0.000 C 
BRANCH  22  23
ATOM     23  N   UNL     1      46.397   6.734  11.434  0.00  0.00    +0.000 N 
ATOM     24  C   UNL     1      45.046   6.501  11.434  0.00  0.00    +0.000 C 
ATOM     25  O   UNL     1      44.226   7.401  11.581  0.00  0.00    +0.000 OA
ATOM     26  H   UNL     1      47.034   5.949  11.512  0.00  0.00    +0.000 HD
BRANCH  24  27
ATOM     27  C   UNL     1      44.633   5.115  11.192  0.00  0.00    +0.000 A 
ATOM     28  C   UNL     1      43.846   4.466  12.133  0.00  0.00    +0.000 A 
ATOM     29  S   UNL     1      43.445   2.867  11.702  0.00  0.00    +0.000 S 
ATOM     30  C   UNL     1      44.344   2.972  10.261  0.00  0.00    +0.000 A 
ATOM     31  N   UNL     1      44.449   1.902   9.427  0.00  0.00    +0.000 NA
ATOM     32  C   UNL     1      45.180   2.110   8.383  0.00  0.00    +0.000 A 
ATOM     33  N   UNL     1      45.805   3.294   8.089  0.00  0.00    +0.000 N 
ATOM     34  C   UNL     1      45.686   4.417   8.876  0.00  0.00    +0.000 A 
ATOM     35  O   UNL     1      46.185   5.484   8.537  0.00  0.00    +0.000 OA
ATOM     36  C   UNL     1      44.910   4.223  10.088  0.00  0.00    +0.000 A 
ATOM     37  H   UNL     1      46.343   3.397   7.241  0.00  0.00    +0.000 HD
ENDBRANCH  24  27
ENDBRANCH  22  23
ENDBRANCH   4  22
TORSDOF 9
ENDMDL
MODEL 6
REMARK VINA RESULT:    -7.064      3.858      8.726
REMARK INTER + INTRA:         -11.176
REMARK INTER:                  -9.357
REMARK INTRA:                  -1.819
REMARK UNBOUND:                -0.602
REMARK  Name = 
REMARK  9 active torsions:
REMARK  status: ('A' for Active; 'I' for Inactive)
REMARK    1  A    between atoms: N_1  and  C_2
REMARK    2  A    between atoms: C_2  and  C_3
REMARK    3  A    between atoms: C_3  and  N_4
REMARK    4  A    between atoms: C_3  and  C_26
REMARK    5  A    between atoms: N_4  and  C_5
REMARK    6  A    between atoms: C_5  and  C_6
REMARK    7  A    between atoms: C_9  and  C_10
REMARK    8  A    between atoms: C_10  and  N_11
REMARK    9  A    between atoms: C_12  and  C_14
REMARK                            x       y       z     vdW  Elec       q    Type
REMARK                         _______ _______ _______ _____ _____    ______ ____
ROOT
ATOM      1  C   UNL     1      49.163   9.312  14.866  0.00  0.00    +0.000 C 
ATOM      2  C   UNL     1      49.459   9.912  13.478  0.00  0.00    +0.000 C 
ATOM      3  C   UNL     1      50.040   8.897  12.493  0.00  0.00    +0.000 C 
ATOM      4  C   UNL     1      49.184   7.624  12.369  0.00  0.00    +0.000 C 
ATOM      5  C   UNL     1      48.920   7.022  13.755  0.00  0.00    +0.000 C 
ATOM      6  C   UNL     1      48.315   8.035  14.727  0.00  0.00    +0.000 C 
ENDROOT
BRANCH   1   7
ATOM      7  C   UNL     1      50.424   9.029  15.720  0.00  0.00    +0.000 C 
BRANCH   7   8
ATOM      8  N   UNL     1      50.063   8.421  17.001  0.00  0.00    +0.000 NA
ATOM      9  H   UNL     1      50.335   9.060  17.751  0.00  0.00    +0.000 HD
BRANCH   8  10
ATOM     10  C   UNL     1      50.779   7.148  17.279  0.00  0.00    +0.000 C 
BRANCH  10  11
ATOM     11  C   UNL     1      49.759   6.007  17.352  0.00  0.00    +0.000 A 
ATOM     12  C   UNL     1      48.462   6.231  17.829  0.00  0.00    +0.000 A 
ATOM     13  C   UNL     1      47.585   5.157  17.975  0.00  0.00    +0.000 A 
ATOM     14  C   UNL     1      48.023   3.883  17.658  0.00  0.00    +0.000 A 
ATOM     15 CL   UNL     1      46.987   2.529  17.845  0.00  0.00    +0.000 Cl
ATOM     16  C   UNL     1      49.324   3.731  17.201  0.00  0.00    +0.000 A 
ATOM     17  N   UNL     1      50.200   4.757  17.044  0.00  0.00    +0.000 NA
ENDBRANCH  10  11
BRANCH  10  18
ATOM     18  C   UNL     1      51.950   6.825  16.295  0.00  0.00    +0.000 C 
BRANCH  18  19
ATOM     19  N   UNL     1      53.274   6.672  16.916  0.00  0.00    +0.000 NA
ATOM     20  H   UNL     1      53.735   5.844  16.543  0.00  0.00    +0.000 HD
ATOM     21  H   UNL     1      53.141   6.523  17.918  0.00  0.00    +0.000 HD
ENDBRANCH  18  19
ENDBRANCH  10  18
ENDBRANCH   8  10
ENDBRANCH   7   8
ENDBRANCH   1   7
BRANCH   4  22
ATOM     22  C   UNL     1      47.860   7.869  11.623  0.00  0.00    +0.000 C 
BRANCH  22  23
ATOM     23  N   UNL     1      47.072   6.664  11.542  0.00  0.00    +0.000 N 
ATOM     24  C   UNL     1      45.726   6.659  11.798  0.00  0.00    +0.000 C 
ATOM     25  O   UNL     1      45.109   7.682  12.078  0.00  0.00    +0.000 OA
ATOM     26  H   UNL     1      47.573   5.782  11.516  0.00  0.00    +0.000 HD
BRANCH  24  27
ATOM     27  C   UNL     1      45.050   5.364  11.665  0.00  0.00    +0.000 A 
ATOM     28  C   UNL     1      44.358   4.844  12.749  0.00  0.00    +0.000 A 
ATOM     29  S   UNL     1      43.623   3.339  12.432  0.00  0.00    +0.000 S 
ATOM     30  C   UNL     1      44.238   3.312  10.845  0.00  0.00    +0.000 A 
ATOM     31  N   UNL     1      44.004   2.251  10.027  0.00  0.00    +0.000 NA
ATOM     32  C   UNL     1      44.549   2.347   8.860  0.00  0.00    +0.000 A 
ATOM     33  N   UNL     1      45.295   3.414   8.431  0.00  0.00    +0.000 N 
ATOM     34  C   UNL     1      45.515   4.531   9.205  0.00  0.00    +0.000 A 
ATOM     35  O   UNL     1      46.111   5.504   8.758  0.00  0.00    +0.000 OA
ATOM     36  C   UNL     1      44.961   4.453  10.546  0.00  0.00    +0.000 A 
ATOM     37  H   UNL     1      45.672   3.437   7.496  0.00  0.00    +0.000 HD
ENDBRANCH  24  27
ENDBRANCH  22  23
ENDBRANCH   4  22
TORSDOF 9
ENDMDL
MODEL 7
REMARK VINA RESULT:    -6.986      2.429      3.274
REMARK INTER + INTRA:         -11.059
REMARK INTER:                 -10.361
REMARK INTRA:                  -0.698
REMARK UNBOUND:                -0.602
REMARK  Name = 
REMARK  9 active torsions:
REMARK  status: ('A' for Active; 'I' for Inactive)
REMARK    1  A    between atoms: N_1  and  C_2
REMARK    2  A    between atoms: C_2  and  C_3
REMARK    3  A    between atoms: C_3  and  N_4
REMARK    4  A    between atoms: C_3  and  C_26
REMARK    5  A    between atoms: N_4  and  C_5
REMARK    6  A    between atoms: C_5  and  C_6
REMARK    7  A    between atoms: C_9  and  C_10
REMARK    8  A    between atoms: C_10  and  N_11
REMARK    9  A    between atoms: C_12  and  C_14
REMARK                            x       y       z     vdW  Elec       q    Type
REMARK                         _______ _______ _______ _____ _____    ______ ____
ROOT
ATOM      1  C   UNL     1      47.563   6.644  12.182  0.00  0.00    +0.000 C 
ATOM      2  C   UNL     1      48.702   7.536  11.651  0.00  0.00    +0.000 C 
ATOM      3  C   UNL     1      48.396   9.030  11.752  0.00  0.00    +0.000 C 
ATOM      4  C   UNL     1      47.976   9.462  13.168  0.00  0.00    +0.000 C 
ATOM      5  C   UNL     1      46.824   8.585  13.673  0.00  0.00    +0.000 C 
ATOM      6  C   UNL     1      47.147   7.093  13.594  0.00  0.00    +0.000 C 
ENDROOT
BRANCH   1   7
ATOM      7  C   UNL     1      46.325   6.572  11.254  0.00  0.00    +0.000 C 
BRANCH   7   8
ATOM      8  N   UNL     1      45.575   5.336  11.477  0.00  0.00    +0.000 NA
ATOM      9  H   UNL     1      46.226   4.549  11.433  0.00  0.00    +0.000 HD
BRANCH   8  10
ATOM     10  C   UNL     1      44.550   5.066  10.435  0.00  0.00    +0.000 C 
BRANCH  10  11
ATOM     11  C   UNL     1      45.132   4.099   9.399  0.00  0.00    +0.000 A 
ATOM     12  C   UNL     1      45.046   2.713   9.579  0.00  0.00    +0.000 A 
ATOM     13  C   UNL     1      45.668   1.859   8.670  0.00  0.00    +0.000 A 
ATOM     14  C   UNL     1      46.373   2.402   7.611  0.00  0.00    +0.000 A 
ATOM     15 CL   UNL     1      47.175   1.390   6.482  0.00  0.00    +0.000 Cl
ATOM     16  C   UNL     1      46.427   3.784   7.498  0.00  0.00    +0.000 A 
ATOM     17  N   UNL     1      45.829   4.642   8.364  0.00  0.00    +0.000 NA
ENDBRANCH  10  11
BRANCH  10  18
ATOM     18  C   UNL     1      43.171   4.575  10.984  0.00  0.00    +0.000 C 
BRANCH  18  19
ATOM     19  N   UNL     1      43.185   4.056  12.360  0.00  0.00    +0.000 NA
ATOM     20  H   UNL     1      42.251   3.746  12.621  0.00  0.00    +0.000 HD
ATOM     21  H   UNL     1      43.441   4.821  12.986  0.00  0.00    +0.000 HD
ENDBRANCH  18  19
ENDBRANCH  10  18
ENDBRANCH   8  10
ENDBRANCH   7   8
ENDBRANCH   1   7
BRANCH   4  22
ATOM     22  C   UNL     1      49.148   9.446  14.166  0.00  0.00    +0.000 C 
BRANCH  22  23
ATOM     23  N   UNL     1      48.816   8.696  15.353  0.00  0.00    +0.000 N 
ATOM     24  C   UNL     1      49.115   9.157  16.609  0.00  0.00    +0.000 C 
ATOM     25  O   UNL     1      49.652  10.245  16.797  0.00  0.00    +0.000 OA
ATOM     26  H   UNL     1      48.563   7.721  15.232  0.00  0.00    +0.000 HD
BRANCH  24  27
ATOM     27  C   UNL     1      48.707   8.297  17.724  0.00  0.00    +0.000 A 
ATOM     28  C   UNL     1      48.154   8.873  18.859  0.00  0.00    +0.000 A 
ATOM     29  S   UNL     1      47.726   7.741  20.059  0.00  0.00    +0.000 S 
ATOM     30  C   UNL     1      48.301   6.444  19.119  0.00  0.00    +0.000 A 
ATOM     31  N   UNL     1      48.266   5.170  19.595  0.00  0.00    +0.000 NA
ATOM     32  C   UNL     1      48.757   4.287  18.791  0.00  0.00    +0.000 A 
ATOM     33  N   UNL     1      49.268   4.559  17.548  0.00  0.00    +0.000 N 
ATOM     34  C   UNL     1      49.278   5.824  17.005  0.00  0.00    +0.000 A 
ATOM     35  O   UNL     1      49.660   6.017  15.856  0.00  0.00    +0.000 OA
ATOM     36  C   UNL     1      48.777   6.862  17.889  0.00  0.00    +0.000 A 
ATOM     37  H   UNL     1      49.613   3.817  16.959  0.00  0.00    +0.000 HD
ENDBRANCH  24  27
ENDBRANCH  22  23
ENDBRANCH   4  22
TORSDOF 9
ENDMDL
MODEL 8
REMARK VINA RESULT:    -6.812      3.891      9.865
REMARK INTER + INTRA:         -10.798
REMARK INTER:                  -9.670
REMARK INTRA:                  -1.128
REMARK UNBOUND:                -0.602
REMARK  Name = 
REMARK  9 active torsions:
REMARK  status: ('A' for Active; 'I' for Inactive)
REMARK    1  A    between atoms: N_1  and  C_2
REMARK    2  A    between atoms: C_2  and  C_3
REMARK    3  A    between atoms: C_3  and  N_4
REMARK    4  A    between atoms: C_3  and  C_26
REMARK    5  A    between atoms: N_4  and  C_5
REMARK    6  A    between atoms: C_5  and  C_6
REMARK    7  A    between atoms: C_9  and  C_10
REMARK    8  A    between atoms: C_10  and  N_11
REMARK    9  A    between atoms: C_12  and  C_14
REMARK                            x       y       z     vdW  Elec       q    Type
REMARK                         _______ _______ _______ _____ _____    ______ ____
ROOT
ATOM      1  C   UNL     1      50.739   5.057  17.400  0.00  0.00    +0.000 C 
ATOM      2  C   UNL     1      50.319   3.620  17.764  0.00  0.00    +0.000 C 
ATOM      3  C   UNL     1      48.998   3.553  18.531  0.00  0.00    +0.000 C 
ATOM      4  C   UNL     1      47.853   4.295  17.819  0.00  0.00    +0.000 C 
ATOM      5  C   UNL     1      48.274   5.732  17.487  0.00  0.00    +0.000 C 
ATOM      6  C   UNL     1      49.582   5.790  16.697  0.00  0.00    +0.000 C 
ENDROOT
BRANCH   1   7
ATOM      7  C   UNL     1      51.256   5.893  18.597  0.00  0.00    +0.000 C 
BRANCH   7   8
ATOM      8  N   UNL     1      52.719   5.931  18.614  0.00  0.00    +0.000 NA
ATOM      9  H   UNL     1      53.062   5.643  17.695  0.00  0.00    +0.000 HD
BRANCH   8  10
ATOM     10  C   UNL     1      53.328   4.984  19.584  0.00  0.00    +0.000 C 
BRANCH  10  11
ATOM     11  C   UNL     1      53.898   3.784  18.821  0.00  0.00    +0.000 A 
ATOM     12  C   UNL     1      54.738   3.967  17.715  0.00  0.00    +0.000 A 
ATOM     13  C   UNL     1      55.165   2.862  16.982  0.00  0.00    +0.000 A 
ATOM     14  C   UNL     1      54.735   1.601  17.355  0.00  0.00    +0.000 A 
ATOM     15 CL   UNL     1      55.214   0.214  16.467  0.00  0.00    +0.000 Cl
ATOM     16  C   UNL     1      53.894   1.492  18.454  0.00  0.00    +0.000 A 
ATOM     17  N   UNL     1      53.465   2.549  19.190  0.00  0.00    +0.000 NA
ENDBRANCH  10  11
BRANCH  10  18
ATOM     18  C   UNL     1      54.382   5.620  20.548  0.00  0.00    +0.000 C 
BRANCH  18  19
ATOM     19  N   UNL     1      55.120   6.771  20.008  0.00  0.00    +0.000 NA
ATOM     20  H   UNL     1      54.752   7.633  20.405  0.00  0.00    +0.000 HD
ATOM     21  H   UNL     1      54.963   6.806  19.000  0.00  0.00    +0.000 HD
ENDBRANCH  18  19
ENDBRANCH  10  18
ENDBRANCH   8  10
ENDBRANCH   7   8
ENDBRANCH   1   7
BRANCH   4  22
ATOM     22  C   UNL     1      47.369   3.564  16.554  0.00  0.00    +0.000 C 
BRANCH  22  23
ATOM     23  N   UNL     1      46.767   4.481  15.616  0.00  0.00    +0.000 N 
ATOM     24  C   UNL     1      46.781   4.251  14.265  0.00  0.00    +0.000 C 
ATOM     25  O   UNL     1      47.276   3.238  13.779  0.00  0.00    +0.000 OA
ATOM     26  H   UNL     1      46.535   5.408  15.956  0.00  0.00    +0.000 HD
BRANCH  24  27
ATOM     27  C   UNL     1      46.119   5.260  13.433  0.00  0.00    +0.000 A 
ATOM     28  C   UNL     1      46.757   6.470  13.197  0.00  0.00    +0.000 A 
ATOM     29  S   UNL     1      45.863   7.531  12.207  0.00  0.00    +0.000 S 
ATOM     30  C   UNL     1      44.574   6.425  12.092  0.00  0.00    +0.000 A 
ATOM     31  N   UNL     1      43.446   6.741  11.401  0.00  0.00    +0.000 NA
ATOM     32  C   UNL     1      42.538   5.823  11.415  0.00  0.00    +0.000 A 
ATOM     33  N   UNL     1      42.659   4.613  12.045  0.00  0.00    +0.000 N 
ATOM     34  C   UNL     1      43.800   4.229  12.713  0.00  0.00    +0.000 A 
ATOM     35  O   UNL     1      43.908   3.104  13.188  0.00  0.00    +0.000 OA
ATOM     36  C   UNL     1      44.837   5.245  12.766  0.00  0.00    +0.000 A 
ATOM     37  H   UNL     1      41.919   3.928  11.996  0.00  0.00    +0.000 HD
ENDBRANCH  24  27
ENDBRANCH  22  23
ENDBRANCH   4  22
TORSDOF 9
ENDMDL
MODEL 9
REMARK VINA RESULT:    -6.747      3.695      8.897
REMARK INTER + INTRA:         -10.702
REMARK INTER:                  -9.048
REMARK INTRA:                  -1.655
REMARK UNBOUND:                -0.602
REMARK  Name = 
REMARK  9 active torsions:
REMARK  status: ('A' for Active; 'I' for Inactive)
REMARK    1  A    between atoms: N_1  and  C_2
REMARK    2  A    between atoms: C_2  and  C_3
REMARK    3  A    between atoms: C_3  and  N_4
REMARK    4  A    between atoms: C_3  and  C_26
REMARK    5  A    between atoms: N_4  and  C_5
REMARK    6  A    between atoms: C_5  and  C_6
REMARK    7  A    between atoms: C_9  and  C_10
REMARK    8  A    between atoms: C_10  and  N_11
REMARK    9  A    between atoms: C_12  and  C_14
REMARK                            x       y       z     vdW  Elec       q    Type
REMARK                         _______ _______ _______ _____ _____    ______ ____
ROOT
ATOM      1  C   UNL     1      51.984   7.920  17.206  0.00  0.00    +0.000 C 
ATOM      2  C   UNL     1      51.550   6.940  16.099  0.00  0.00    +0.000 C 
ATOM      3  C   UNL     1      50.118   6.433  16.267  0.00  0.00    +0.000 C 
ATOM      4  C   UNL     1      49.094   7.572  16.423  0.00  0.00    +0.000 C 
ATOM      5  C   UNL     1      49.523   8.524  17.547  0.00  0.00    +0.000 C 
ATOM      6  C   UNL     1      50.947   9.047  17.358  0.00  0.00    +0.000 C 
ENDROOT
BRANCH   1   7
ATOM      7  C   UNL     1      52.257   7.252  18.577  0.00  0.00    +0.000 C 
BRANCH   7   8
ATOM      8  N   UNL     1      52.894   5.947  18.404  0.00  0.00    +0.000 NA
ATOM      9  H   UNL     1      52.621   5.569  17.494  0.00  0.00    +0.000 HD
BRANCH   8  10
ATOM     10  C   UNL     1      52.460   4.935  19.404  0.00  0.00    +0.000 C 
BRANCH  10  11
ATOM     11  C   UNL     1      51.142   4.308  18.941  0.00  0.00    +0.000 A 
ATOM     12  C   UNL     1      51.112   3.397  17.877  0.00  0.00    +0.000 A 
ATOM     13  C   UNL     1      49.889   2.915  17.415  0.00  0.00    +0.000 A 
ATOM     14  C   UNL     1      48.722   3.361  18.009  0.00  0.00    +0.000 A 
ATOM     15 CL   UNL     1      47.193   2.815  17.456  0.00  0.00    +0.000 Cl
ATOM     16  C   UNL     1      48.823   4.272  19.051  0.00  0.00    +0.000 A 
ATOM     17  N   UNL     1      49.999   4.757  19.526  0.00  0.00    +0.000 NA
ENDBRANCH  10  11
BRANCH  10  18
ATOM     18  C   UNL     1      53.533   3.853  19.751  0.00  0.00    +0.000 C 
BRANCH  18  19
ATOM     19  N   UNL     1      54.599   3.675  18.753  0.00  0.00    +0.000 NA
ATOM     20  H   UNL     1      54.520   4.391  18.034  0.00  0.00    +0.000 HD
ATOM     21  H   UNL     1      54.464   2.770  18.301  0.00  0.00    +0.000 HD
ENDBRANCH  18  19
ENDBRANCH  10  18
ENDBRANCH   8  10
ENDBRANCH   7   8
ENDBRANCH   1   7
BRANCH   4  22
ATOM     22  C   UNL     1      48.863   8.347  15.113  0.00  0.00    +0.000 C 
BRANCH  22  23
ATOM     23  N   UNL     1      47.714   7.843  14.401  0.00  0.00    +0.000 N 
ATOM     24  C   UNL     1      47.832   6.926  13.390  0.00  0.00    +0.000 C 
ATOM     25  O   UNL     1      48.916   6.457  13.053  0.00  0.00    +0.000 OA
ATOM     26  H   UNL     1      46.841   8.348  14.510  0.00  0.00    +0.000 HD
BRANCH  24  27
ATOM     27  C   UNL     1      46.579   6.492  12.764  0.00  0.00    +0.000 A 
ATOM     28  C   UNL     1      45.760   7.435  12.159  0.00  0.00    +0.000 A 
ATOM     29  S   UNL     1      44.348   6.772  11.472  0.00  0.00    +0.000 S 
ATOM     30  C   UNL     1      44.762   5.207  11.996  0.00  0.00    +0.000 A 
ATOM     31  N   UNL     1      43.935   4.153  11.762  0.00  0.00    +0.000 NA
ATOM     32  C   UNL     1      44.358   3.028  12.234  0.00  0.00    +0.000 A 
ATOM     33  N   UNL     1      45.539   2.857  12.907  0.00  0.00    +0.000 N 
ATOM     34  C   UNL     1      46.431   3.883  13.123  0.00  0.00    +0.000 A 
ATOM     35  O   UNL     1      47.519   3.676  13.650  0.00  0.00    +0.000 OA
ATOM     36  C   UNL     1      45.982   5.181  12.650  0.00  0.00    +0.000 A 
ATOM     37  H   UNL     1      45.822   1.943  13.229  0.00  0.00    +0.000 HD
ENDBRANCH  24  27
ENDBRANCH  22  23
ENDBRANCH   4  22
TORSDOF 9
ENDMDL
