MODEL 1
REMARK VINA RESULT:    -8.683      0.000      0.000
REMARK INTER + INTRA:         -13.104
REMARK INTER:                 -12.236
REMARK INTRA:                  -0.868
REMARK UNBOUND:                -0.868
REMARK  Name = 
REMARK  8 active torsions:
REMARK  status: ('A' for Active; 'I' for Inactive)
REMARK    1  A    between atoms: C_1  and  C_2
REMARK    2  A    between atoms: C_2  and  N_3
REMARK    3  A    between atoms: C_2  and  C_25
REMARK    4  A    between atoms: N_3  and  C_4
REMARK    5  A    between atoms: C_4  and  C_5
REMARK    6  A    between atoms: C_8  and  C_9
REMARK    7  A    between atoms: C_9  and  N_10
REMARK    8  A    between atoms: C_11  and  C_13
REMARK                            x       y       z     vdW  Elec       q    Type
REMARK                         _______ _______ _______ _____ _____    ______ ____
ROOT
ATOM      1  C   UNL     1      44.344   6.667  11.696  0.00  0.00    +0.000 A 
ATOM      2  C   UNL     1      44.632   8.007  11.405  0.00  0.00    +0.000 A 
ATOM      3  C   UNL     1      45.699   8.661  12.030  0.00  0.00    +0.000 A 
ATOM      4  C   UNL     1      46.507   7.982  12.952  0.00  0.00    +0.000 A 
ATOM      5  C   UNL     1      46.209   6.647  13.256  0.00  0.00    +0.000 A 
ATOM      6  C   UNL     1      45.143   5.996  12.632  0.00  0.00    +0.000 A 
ENDROOT
BRANCH   1   7
ATOM      7  C   UNL     1      43.093   6.010  11.162  0.00  0.00    +0.000 C 
BRANCH   7   8
ATOM      8  N   UNL     1      43.330   5.062  10.068  0.00  0.00    +0.000 NA
ATOM      9  H   UNL     1      43.724   5.577   9.278  0.00  0.00    +0.000 HD
BRANCH   8  11
ATOM     10  C   UNL     1      43.562   2.815  11.132  0.00  0.00    +0.000 C 
ATOM     11  C   UNL     1      44.278   4.003  10.461  0.00  0.00    +0.000 C 
BRANCH  11  12
ATOM     12  C   UNL     1      45.072   3.481   9.263  0.00  0.00    +0.000 A 
ATOM     13  C   UNL     1      45.667   4.374   8.354  0.00  0.00    +0.000 A 
ATOM     14  C   UNL     1      46.529   3.906   7.355  0.00  0.00    +0.000 A 
ATOM     15  C   UNL     1      46.804   2.545   7.256  0.00  0.00    +0.000 A 
ATOM     16 CL   UNL     1      47.930   1.979   6.083  0.00  0.00    +0.000 Cl
ATOM     17  C   UNL     1      46.188   1.641   8.115  0.00  0.00    +0.000 A 
ATOM     18  C   UNL     1      45.314   2.106   9.102  0.00  0.00    +0.000 A 
ENDBRANCH  11  12
ENDBRANCH   8  11
ENDBRANCH   7   8
ENDBRANCH   1   7
BRANCH   4  19
ATOM     19  C   UNL     1      47.643   8.681  13.650  0.00  0.00    +0.000 C 
BRANCH  19  20
ATOM     20  N   UNL     1      47.942   8.056  14.913  0.00  0.00    +0.000 N 
ATOM     21  C   UNL     1      48.959   7.144  15.032  0.00  0.00    +0.000 C 
ATOM     22  O   UNL     1      49.674   6.838  14.082  0.00  0.00    +0.000 OA
ATOM     23  H   UNL     1      47.235   8.118  15.639  0.00  0.00    +0.000 HD
BRANCH  21  24
ATOM     24  C   UNL     1      49.194   6.601  16.374  0.00  0.00    +0.000 A 
ATOM     25  C   UNL     1      49.957   7.324  17.286  0.00  0.00    +0.000 A 
ATOM     26  S   UNL     1      50.075   6.581  18.816  0.00  0.00    +0.000 S 
ATOM     27  C   UNL     1      49.162   5.240  18.297  0.00  0.00    +0.000 A 
ATOM     28  N   UNL     1      48.911   4.202  19.142  0.00  0.00    +0.000 NA
ATOM     29  C   UNL     1      48.234   3.239  18.606  0.00  0.00    +0.000 A 
ATOM     30  N   UNL     1      47.783   3.223  17.314  0.00  0.00    +0.000 N 
ATOM     31  C   UNL     1      47.990   4.262  16.438  0.00  0.00    +0.000 A 
ATOM     32  O   UNL     1      47.537   4.234  15.296  0.00  0.00    +0.000 OA
ATOM     33  C   UNL     1      48.756   5.365  16.986  0.00  0.00    +0.000 A 
ATOM     34  H   UNL     1      47.253   2.441  16.958  0.00  0.00    +0.000 HD
ENDBRANCH  21  24
ENDBRANCH  19  20
ENDBRANCH   4  19
TORSDOF 7
ENDMDL
MODEL 2
REMARK VINA RESULT:    -8.634      1.258      1.666
REMARK INTER + INTRA:         -13.035
REMARK INTER:                 -12.042
REMARK INTRA:                  -0.993
REMARK UNBOUND:                -0.868
REMARK  Name = 
REMARK  8 active torsions:
REMARK  status: ('A' for Active; 'I' for Inactive)
REMARK    1  A    between atoms: C_1  and  C_2
REMARK    2  A    between atoms: C_2  and  N_3
REMARK    3  A    between atoms: C_2  and  C_25
REMARK    4  A    between atoms: N_3  and  C_4
REMARK    5  A    between atoms: C_4  and  C_5
REMARK    6  A    between atoms: C_8  and  C_9
REMARK    7  A    between atoms: C_9  and  N_10
REMARK    8  A    between atoms: C_11  and  C_13
REMARK                            x       y       z     vdW  Elec       q    Type
REMARK                         _______ _______ _______ _____ _____    ______ ____
ROOT
ATOM      1  C   UNL     1      44.481   6.142  11.976  0.00  0.00    +0.000 A 
ATOM      2  C   UNL     1      44.816   5.420  13.129  0.00  0.00    +0.000 A 
ATOM      3  C   UNL     1      46.066   5.581  13.736  0.00  0.00    +0.000 A 
ATOM      4  C   UNL     1      47.003   6.479  13.206  0.00  0.00    +0.000 A 
ATOM      5  C   UNL     1      46.675   7.188  12.043  0.00  0.00    +0.000 A 
ATOM      6  C   UNL     1      45.427   7.025  11.438  0.00  0.00    +0.000 A 
ENDROOT
BRANCH   1   7
ATOM      7  C   UNL     1      43.209   5.843  11.218  0.00  0.00    +0.000 C 
BRANCH   7   8
ATOM      8  N   UNL     1      43.382   4.920  10.091  0.00  0.00    +0.000 NA
ATOM      9  H   UNL     1      43.776   5.443   9.306  0.00  0.00    +0.000 HD
BRANCH   8  11
ATOM     10  C   UNL     1      43.543   2.607  11.017  0.00  0.00    +0.000 C 
ATOM     11  C   UNL     1      44.297   3.814  10.428  0.00  0.00    +0.000 C 
BRANCH  11  12
ATOM     12  C   UNL     1      45.093   3.346   9.210  0.00  0.00    +0.000 A 
ATOM     13  C   UNL     1      45.622   4.277   8.299  0.00  0.00    +0.000 A 
ATOM     14  C   UNL     1      46.486   3.864   7.278  0.00  0.00    +0.000 A 
ATOM     15  C   UNL     1      46.829   2.520   7.159  0.00  0.00    +0.000 A 
ATOM     16 CL   UNL     1      47.959   2.024   5.958  0.00  0.00    +0.000 Cl
ATOM     17  C   UNL     1      46.277   1.576   8.020  0.00  0.00    +0.000 A 
ATOM     18  C   UNL     1      45.402   1.986   9.029  0.00  0.00    +0.000 A 
ENDBRANCH  11  12
ENDBRANCH   8  11
ENDBRANCH   7   8
ENDBRANCH   1   7
BRANCH   4  19
ATOM     19  C   UNL     1      48.361   6.644  13.835  0.00  0.00    +0.000 C 
BRANCH  19  20
ATOM     20  N   UNL     1      48.265   6.734  15.269  0.00  0.00    +0.000 N 
ATOM     21  C   UNL     1      49.386   6.718  16.059  0.00  0.00    +0.000 C 
ATOM     22  O   UNL     1      50.516   6.652  15.584  0.00  0.00    +0.000 OA
ATOM     23  H   UNL     1      47.356   6.559  15.684  0.00  0.00    +0.000 HD
BRANCH  21  24
ATOM     24  C   UNL     1      49.168   6.852  17.503  0.00  0.00    +0.000 A 
ATOM     25  C   UNL     1      49.148   8.117  18.082  0.00  0.00    +0.000 A 
ATOM     26  S   UNL     1      48.818   8.095  19.755  0.00  0.00    +0.000 S 
ATOM     27  C   UNL     1      48.747   6.394  19.776  0.00  0.00    +0.000 A 
ATOM     28  N   UNL     1      48.516   5.723  20.937  0.00  0.00    +0.000 NA
ATOM     29  C   UNL     1      48.520   4.435  20.812  0.00  0.00    +0.000 A 
ATOM     30  N   UNL     1      48.728   3.764  19.637  0.00  0.00    +0.000 N 
ATOM     31  C   UNL     1      48.935   4.403  18.438  0.00  0.00    +0.000 A 
ATOM     32  O   UNL     1      49.078   3.771  17.394  0.00  0.00    +0.000 OA
ATOM     33  C   UNL     1      48.952   5.851  18.525  0.00  0.00    +0.000 A 
ATOM     34  H   UNL     1      48.712   2.754  19.606  0.00  0.00    +0.000 HD
ENDBRANCH  21  24
ENDBRANCH  19  20
ENDBRANCH   4  19
TORSDOF 7
ENDMDL
MODEL 3
REMARK VINA RESULT:    -7.913      2.073      2.461
REMARK INTER + INTRA:         -12.019
REMARK INTER:                 -10.981
REMARK INTRA:                  -1.039
REMARK UNBOUND:                -0.868
REMARK  Name = 
REMARK  8 active torsions:
REMARK  status: ('A' for Active; 'I' for Inactive)
REMARK    1  A    between atoms: C_1  and  C_2
REMARK    2  A    between atoms: C_2  and  N_3
REMARK    3  A    between atoms: C_2  and  C_25
REMARK    4  A    between atoms: N_3  and  C_4
REMARK    5  A    between atoms: C_4  and  C_5
REMARK    6  A    between atoms: C_8  and  C_9
REMARK    7  A    between atoms: C_9  and  N_10
REMARK    8  A    between atoms: C_11  and  C_13
REMARK                            x       y       z     vdW  Elec       q    Type
REMARK                         _______ _______ _______ _____ _____    ______ ____
ROOT
ATOM      1  C   UNL     1      45.562   4.976  12.788  0.00  0.00    +0.000 A 
ATOM      2  C   UNL     1      45.386   6.331  12.474  0.00  0.00    +0.000 A 
ATOM      3  C   UNL     1      46.347   7.279  12.840  0.00  0.00    +0.000 A 
ATOM      4  C   UNL     1      47.509   6.889  13.519  0.00  0.00    +0.000 A 
ATOM      5  C   UNL     1      47.676   5.537  13.849  0.00  0.00    +0.000 A 
ATOM      6  C   UNL     1      46.716   4.592  13.483  0.00  0.00    +0.000 A 
ENDROOT
BRANCH   1   7
ATOM      7  C   UNL     1      44.452   3.978  12.554  0.00  0.00    +0.000 C 
BRANCH   7   8
ATOM      8  N   UNL     1      44.799   2.899  11.624  0.00  0.00    +0.000 NA
ATOM      9  H   UNL     1      44.442   2.020  12.005  0.00  0.00    +0.000 HD
BRANCH   8  11
ATOM     10  C   UNL     1      43.544   4.500  10.177  0.00  0.00    +0.000 C 
ATOM     11  C   UNL     1      44.200   3.112  10.293  0.00  0.00    +0.000 C 
BRANCH  11  12
ATOM     12  C   UNL     1      45.234   2.966   9.177  0.00  0.00    +0.000 A 
ATOM     13  C   UNL     1      45.692   1.695   8.785  0.00  0.00    +0.000 A 
ATOM     14  C   UNL     1      46.510   1.547   7.659  0.00  0.00    +0.000 A 
ATOM     15  C   UNL     1      46.877   2.665   6.914  0.00  0.00    +0.000 A 
ATOM     16 CL   UNL     1      47.811   2.474   5.481  0.00  0.00    +0.000 Cl
ATOM     17  C   UNL     1      46.474   3.935   7.313  0.00  0.00    +0.000 A 
ATOM     18  C   UNL     1      45.671   4.085   8.447  0.00  0.00    +0.000 A 
ENDBRANCH  11  12
ENDBRANCH   8  11
ENDBRANCH   7   8
ENDBRANCH   1   7
BRANCH   4  19
ATOM     19  C   UNL     1      48.539   7.902  13.942  0.00  0.00    +0.000 C 
BRANCH  19  20
ATOM     20  N   UNL     1      49.691   7.264  14.524  0.00  0.00    +0.000 N 
ATOM     21  C   UNL     1      49.980   7.399  15.858  0.00  0.00    +0.000 C 
ATOM     22  O   UNL     1      49.263   8.043  16.618  0.00  0.00    +0.000 OA
ATOM     23  H   UNL     1      50.406   6.929  13.887  0.00  0.00    +0.000 HD
BRANCH  21  24
ATOM     24  C   UNL     1      51.159   6.675  16.347  0.00  0.00    +0.000 A 
ATOM     25  C   UNL     1      52.428   7.208  16.142  0.00  0.00    +0.000 A 
ATOM     26  S   UNL     1      53.677   6.273  16.829  0.00  0.00    +0.000 S 
ATOM     27  C   UNL     1      52.574   5.095  17.373  0.00  0.00    +0.000 A 
ATOM     28  N   UNL     1      53.010   3.989  18.035  0.00  0.00    +0.000 NA
ATOM     29  C   UNL     1      52.067   3.165  18.362  0.00  0.00    +0.000 A 
ATOM     30  N   UNL     1      50.738   3.350  18.093  0.00  0.00    +0.000 N 
ATOM     31  C   UNL     1      50.253   4.466  17.454  0.00  0.00    +0.000 A 
ATOM     32  O   UNL     1      49.049   4.620  17.263  0.00  0.00    +0.000 OA
ATOM     33  C   UNL     1      51.272   5.418  17.055  0.00  0.00    +0.000 A 
ATOM     34  H   UNL     1      50.050   2.669  18.381  0.00  0.00    +0.000 HD
ENDBRANCH  21  24
ENDBRANCH  19  20
ENDBRANCH   4  19
TORSDOF 7
ENDMDL
MODEL 4
REMARK VINA RESULT:    -7.444      2.625      3.416
REMARK INTER + INTRA:         -11.358
REMARK INTER:                 -10.175
REMARK INTRA:                  -1.183
REMARK UNBOUND:                -0.868
REMARK  Name = 
REMARK  8 active torsions:
REMARK  status: ('A' for Active; 'I' for Inactive)
REMARK    1  A    between atoms: C_1  and  C_2
REMARK    2  A    between atoms: C_2  and  N_3
REMARK    3  A    between atoms: C_2  and  C_25
REMARK    4  A    between atoms: N_3  and  C_4
REMARK    5  A    between atoms: C_4  and  C_5
REMARK    6  A    between atoms: C_8  and  C_9
REMARK    7  A    between atoms: C_9  and  N_10
REMARK    8  A    between atoms: C_11  and  C_13
REMARK                            x       y       z     vdW  Elec       q    Type
REMARK                         _______ _______ _______ _____ _____    ______ ____
ROOT
ATOM      1  C   UNL     1      45.603   4.878  13.072  0.00  0.00    +0.000 A 
ATOM      2  C   UNL     1      46.427   4.550  14.157  0.00  0.00    +0.000 A 
ATOM      3  C   UNL     1      47.502   5.372  14.512  0.00  0.00    +0.000 A 
ATOM      4  C   UNL     1      47.766   6.546  13.793  0.00  0.00    +0.000 A 
ATOM      5  C   UNL     1      46.953   6.864  12.697  0.00  0.00    +0.000 A 
ATOM      6  C   UNL     1      45.881   6.042  12.344  0.00  0.00    +0.000 A 
ENDROOT
BRANCH   1   7
ATOM      7  C   UNL     1      44.555   3.908  12.576  0.00  0.00    +0.000 C 
BRANCH   7   8
ATOM      8  N   UNL     1      45.040   2.961  11.567  0.00  0.00    +0.000 NA
ATOM      9  H   UNL     1      44.969   2.017  11.954  0.00  0.00    +0.000 HD
BRANCH   8  11
ATOM     10  C   UNL     1      43.516   4.376  10.186  0.00  0.00    +0.000 C 
ATOM     11  C   UNL     1      44.240   3.025  10.330  0.00  0.00    +0.000 C 
BRANCH  11  12
ATOM     12  C   UNL     1      45.101   2.797   9.087  0.00  0.00    +0.000 A 
ATOM     13  C   UNL     1      45.513   3.881   8.291  0.00  0.00    +0.000 A 
ATOM     14  C   UNL     1      46.432   3.695   7.252  0.00  0.00    +0.000 A 
ATOM     15  C   UNL     1      46.948   2.426   6.999  0.00  0.00    +0.000 A 
ATOM     16 CL   UNL     1      48.142   2.212   5.779  0.00  0.00    +0.000 Cl
ATOM     17  C   UNL     1      46.516   1.333   7.744  0.00  0.00    +0.000 A 
ATOM     18  C   UNL     1      45.586   1.516   8.770  0.00  0.00    +0.000 A 
ENDBRANCH  11  12
ENDBRANCH   8  11
ENDBRANCH   7   8
ENDBRANCH   1   7
BRANCH   4  19
ATOM     19  C   UNL     1      48.935   7.427  14.148  0.00  0.00    +0.000 C 
BRANCH  19  20
ATOM     20  N   UNL     1      49.869   6.736  14.999  0.00  0.00    +0.000 N 
ATOM     21  C   UNL     1      50.019   7.082  16.317  0.00  0.00    +0.000 C 
ATOM     22  O   UNL     1      49.353   7.972  16.837  0.00  0.00    +0.000 OA
ATOM     23  H   UNL     1      50.577   6.169  14.545  0.00  0.00    +0.000 HD
BRANCH  21  24
ATOM     24  C   UNL     1      50.974   6.286  17.096  0.00  0.00    +0.000 A 
ATOM     25  C   UNL     1      50.520   5.518  18.164  0.00  0.00    +0.000 A 
ATOM     26  S   UNL     1      51.748   4.605  18.916  0.00  0.00    +0.000 S 
ATOM     27  C   UNL     1      52.938   5.247  17.880  0.00  0.00    +0.000 A 
ATOM     28  N   UNL     1      54.243   4.885  18.013  0.00  0.00    +0.000 NA
ATOM     29  C   UNL     1      55.041   5.473  17.181  0.00  0.00    +0.000 A 
ATOM     30  N   UNL     1      54.652   6.379  16.232  0.00  0.00    +0.000 N 
ATOM     31  C   UNL     1      53.342   6.750  16.046  0.00  0.00    +0.000 A 
ATOM     32  O   UNL     1      53.021   7.537  15.158  0.00  0.00    +0.000 OA
ATOM     33  C   UNL     1      52.406   6.128  16.962  0.00  0.00    +0.000 A 
ATOM     34  H   UNL     1      55.326   6.799  15.608  0.00  0.00    +0.000 HD
ENDBRANCH  21  24
ENDBRANCH  19  20
ENDBRANCH   4  19
TORSDOF 7
ENDMDL
MODEL 5
REMARK VINA RESULT:    -7.440      2.507      3.094
REMARK INTER + INTRA:         -11.352
REMARK INTER:                 -10.610
REMARK INTRA:                  -0.742
REMARK UNBOUND:                -0.868
REMARK  Name = 
REMARK  8 active torsions:
REMARK  status: ('A' for Active; 'I' for Inactive)
REMARK    1  A    between atoms: C_1  and  C_2
REMARK    2  A    between atoms: C_2  and  N_3
REMARK    3  A    between atoms: C_2  and  C_25
REMARK    4  A    between atoms: N_3  and  C_4
REMARK    5  A    between atoms: C_4  and  C_5
REMARK    6  A    between atoms: C_8  and  C_9
REMARK    7  A    between atoms: C_9  and  N_10
REMARK    8  A    between atoms: C_11  and  C_13
REMARK                            x       y       z     vdW  Elec       q    Type
REMARK                         _______ _______ _______ _____ _____    ______ ____
ROOT
ATOM      1  C   UNL     1      45.526   4.869  13.217  0.00  0.00    +0.000 A 
ATOM      2  C   UNL     1      46.450   4.346  14.131  0.00  0.00    +0.000 A 
ATOM      3  C   UNL     1      47.551   5.102  14.546  0.00  0.00    +0.000 A 
ATOM      4  C   UNL     1      47.743   6.403  14.062  0.00  0.00    +0.000 A 
ATOM      5  C   UNL     1      46.829   6.919  13.134  0.00  0.00    +0.000 A 
ATOM      6  C   UNL     1      45.731   6.163  12.720  0.00  0.00    +0.000 A 
ENDROOT
BRANCH   1   7
ATOM      7  C   UNL     1      44.439   3.998  12.631  0.00  0.00    +0.000 C 
BRANCH   7   8
ATOM      8  N   UNL     1      44.899   3.086  11.579  0.00  0.00    +0.000 NA
ATOM      9  H   UNL     1      44.745   2.126  11.896  0.00  0.00    +0.000 HD
BRANCH   8  11
ATOM     10  C   UNL     1      43.623   4.728  10.198  0.00  0.00    +0.000 C 
ATOM     11  C   UNL     1      44.160   3.290  10.319  0.00  0.00    +0.000 C 
BRANCH  11  12
ATOM     12  C   UNL     1      45.029   2.989   9.098  0.00  0.00    +0.000 A 
ATOM     13  C   UNL     1      45.498   4.030   8.277  0.00  0.00    +0.000 A 
ATOM     14  C   UNL     1      46.424   3.774   7.259  0.00  0.00    +0.000 A 
ATOM     15  C   UNL     1      46.889   2.477   7.052  0.00  0.00    +0.000 A 
ATOM     16 CL   UNL     1      48.092   2.176   5.858  0.00  0.00    +0.000 Cl
ATOM     17  C   UNL     1      46.400   1.426   7.821  0.00  0.00    +0.000 A 
ATOM     18  C   UNL     1      45.463   1.679   8.827  0.00  0.00    +0.000 A 
ENDBRANCH  11  12
ENDBRANCH   8  11
ENDBRANCH   7   8
ENDBRANCH   1   7
BRANCH   4  19
ATOM     19  C   UNL     1      48.937   7.219  14.481  0.00  0.00    +0.000 C 
BRANCH  19  20
ATOM     20  N   UNL     1      48.767   7.750  15.809  0.00  0.00    +0.000 N 
ATOM     21  C   UNL     1      48.384   9.051  16.010  0.00  0.00    +0.000 C 
ATOM     22  O   UNL     1      48.145   9.812  15.077  0.00  0.00    +0.000 OA
ATOM     23  H   UNL     1      49.173   7.222  16.574  0.00  0.00    +0.000 HD
BRANCH  21  24
ATOM     24  C   UNL     1      48.207   9.471  17.405  0.00  0.00    +0.000 A 
ATOM     25  C   UNL     1      48.226  10.825  17.724  0.00  0.00    +0.000 A 
ATOM     26  S   UNL     1      47.941  11.140  19.375  0.00  0.00    +0.000 S 
ATOM     27  C   UNL     1      47.841   9.477  19.732  0.00  0.00    +0.000 A 
ATOM     28  N   UNL     1      47.629   9.053  21.008  0.00  0.00    +0.000 NA
ATOM     29  C   UNL     1      47.606   7.766  21.138  0.00  0.00    +0.000 A 
ATOM     30  N   UNL     1      47.770   6.873  20.113  0.00  0.00    +0.000 N 
ATOM     31  C   UNL     1      47.956   7.259  18.808  0.00  0.00    +0.000 A 
ATOM     32  O   UNL     1      48.060   6.431  17.906  0.00  0.00    +0.000 OA
ATOM     33  C   UNL     1      48.001   8.695  18.608  0.00  0.00    +0.000 A 
ATOM     34  H   UNL     1      47.735   5.877  20.282  0.00  0.00    +0.000 HD
ENDBRANCH  21  24
ENDBRANCH  19  20
ENDBRANCH   4  19
TORSDOF 7
ENDMDL
MODEL 6
REMARK VINA RESULT:    -7.422      3.686      4.934
REMARK INTER + INTRA:         -11.327
REMARK INTER:                 -10.304
REMARK INTRA:                  -1.023
REMARK UNBOUND:                -0.868
REMARK  Name = 
REMARK  8 active torsions:
REMARK  status: ('A' for Active; 'I' for Inactive)
REMARK    1  A    between atoms: C_1  and  C_2
REMARK    2  A    between atoms: C_2  and  N_3
REMARK    3  A    between atoms: C_2  and  C_25
REMARK    4  A    between atoms: N_3  and  C_4
REMARK    5  A    between atoms: C_4  and  C_5
REMARK    6  A    between atoms: C_8  and  C_9
REMARK    7  A    between atoms: C_9  and  N_10
REMARK    8  A    between atoms: C_11  and  C_13
REMARK                            x       y       z     vdW  Elec       q    Type
REMARK                         _______ _______ _______ _____ _____    ______ ____
ROOT
ATOM      1  C   UNL     1      44.936   6.190  11.920  0.00  0.00    +0.000 A 
ATOM      2  C   UNL     1      45.906   7.082  11.444  0.00  0.00    +0.000 A 
ATOM      3  C   UNL     1      47.118   7.249  12.123  0.00  0.00    +0.000 A 
ATOM      4  C   UNL     1      47.387   6.516  13.287  0.00  0.00    +0.000 A 
ATOM      5  C   UNL     1      46.410   5.637  13.772  0.00  0.00    +0.000 A 
ATOM      6  C   UNL     1      45.201   5.473  13.094  0.00  0.00    +0.000 A 
ENDROOT
BRANCH   1   7
ATOM      7  C   UNL     1      43.561   6.137  11.295  0.00  0.00    +0.000 C 
BRANCH   7   8
ATOM      8  N   UNL     1      43.388   5.063  10.311  0.00  0.00    +0.000 NA
ATOM      9  H   UNL     1      43.635   5.430   9.389  0.00  0.00    +0.000 HD
BRANCH   8  11
ATOM     10  C   UNL     1      43.455   2.719  11.169  0.00  0.00    +0.000 C 
ATOM     11  C   UNL     1      44.256   3.908  10.606  0.00  0.00    +0.000 C 
BRANCH  11  12
ATOM     12  C   UNL     1      45.018   3.440   9.365  0.00  0.00    +0.000 A 
ATOM     13  C   UNL     1      45.581   4.372   8.476  0.00  0.00    +0.000 A 
ATOM     14  C   UNL     1      46.415   3.950   7.433  0.00  0.00    +0.000 A 
ATOM     15  C   UNL     1      46.693   2.596   7.271  0.00  0.00    +0.000 A 
ATOM     16 CL   UNL     1      47.787   2.084   6.044  0.00  0.00    +0.000 Cl
ATOM     17  C   UNL     1      46.107   1.654   8.111  0.00  0.00    +0.000 A 
ATOM     18  C   UNL     1      45.261   2.074   9.141  0.00  0.00    +0.000 A 
ENDBRANCH  11  12
ENDBRANCH   8  11
ENDBRANCH   7   8
ENDBRANCH   1   7
BRANCH   4  19
ATOM     19  C   UNL     1      48.677   6.704  14.041  0.00  0.00    +0.000 C 
BRANCH  19  20
ATOM     20  N   UNL     1      49.743   7.104  13.160  0.00  0.00    +0.000 N 
ATOM     21  C   UNL     1      50.350   8.327  13.289  0.00  0.00    +0.000 C 
ATOM     22  O   UNL     1      50.035   9.122  14.169  0.00  0.00    +0.000 OA
ATOM     23  H   UNL     1      49.859   6.573  12.303  0.00  0.00    +0.000 HD
BRANCH  21  24
ATOM     24  C   UNL     1      51.448   8.611  12.358  0.00  0.00    +0.000 A 
ATOM     25  C   UNL     1      51.162   9.047  11.068  0.00  0.00    +0.000 A 
ATOM     26  S   UNL     1      52.551   9.393  10.142  0.00  0.00    +0.000 S 
ATOM     27  C   UNL     1      53.584   8.917  11.410  0.00  0.00    +0.000 A 
ATOM     28  N   UNL     1      54.935   8.951  11.255  0.00  0.00    +0.000 NA
ATOM     29  C   UNL     1      55.595   8.533  12.286  0.00  0.00    +0.000 A 
ATOM     30  N   UNL     1      55.028   8.095  13.453  0.00  0.00    +0.000 N 
ATOM     31  C   UNL     1      53.670   8.073  13.661  0.00  0.00    +0.000 A 
ATOM     32  O   UNL     1      53.195   7.711  14.735  0.00  0.00    +0.000 OA
ATOM     33  C   UNL     1      52.882   8.521  12.529  0.00  0.00    +0.000 A 
ATOM     34  H   UNL     1      55.602   7.787  14.225  0.00  0.00    +0.000 HD
ENDBRANCH  21  24
ENDBRANCH  19  20
ENDBRANCH   4  19
TORSDOF 7
ENDMDL
MODEL 7
REMARK VINA RESULT:    -7.326      4.282      5.302
REMARK INTER + INTRA:         -11.192
REMARK INTER:                  -9.614
REMARK INTRA:                  -1.577
REMARK UNBOUND:                -0.868
REMARK  Name = 
REMARK  8 active torsions:
REMARK  status: ('A' for Active; 'I' for Inactive)
REMARK    1  A    between atoms: C_1  and  C_2
REMARK    2  A    between atoms: C_2  and  N_3
REMARK    3  A    between atoms: C_2  and  C_25
REMARK    4  A    between atoms: N_3  and  C_4
REMARK    5  A    between atoms: C_4  and  C_5
REMARK    6  A    between atoms: C_8  and  C_9
REMARK    7  A    between atoms: C_9  and  N_10
REMARK    8  A    between atoms: C_11  and  C_13
REMARK                            x       y       z     vdW  Elec       q    Type
REMARK                         _______ _______ _______ _____ _____    ______ ____
ROOT
ATOM      1  C   UNL     1      46.110   5.731  12.817  0.00  0.00    +0.000 A 
ATOM      2  C   UNL     1      45.736   6.910  12.158  0.00  0.00    +0.000 A 
ATOM      3  C   UNL     1      46.674   7.916  11.906  0.00  0.00    +0.000 A 
ATOM      4  C   UNL     1      48.010   7.757  12.299  0.00  0.00    +0.000 A 
ATOM      5  C   UNL     1      48.380   6.586  12.974  0.00  0.00    +0.000 A 
ATOM      6  C   UNL     1      47.442   5.583  13.226  0.00  0.00    +0.000 A 
ENDROOT
BRANCH   1   7
ATOM      7  C   UNL     1      45.071   4.723  13.249  0.00  0.00    +0.000 C 
BRANCH   7   8
ATOM      8  N   UNL     1      45.167   3.428  12.565  0.00  0.00    +0.000 NA
ATOM      9  H   UNL     1      45.066   2.689  13.264  0.00  0.00    +0.000 HD
BRANCH   8  11
ATOM     10  C   UNL     1      43.043   4.376  11.656  0.00  0.00    +0.000 C 
ATOM     11  C   UNL     1      44.107   3.267  11.552  0.00  0.00    +0.000 C 
BRANCH  11  12
ATOM     12  C   UNL     1      44.675   3.266  10.133  0.00  0.00    +0.000 A 
ATOM     13  C   UNL     1      45.031   4.471   9.502  0.00  0.00    +0.000 A 
ATOM     14  C   UNL     1      45.701   4.463   8.273  0.00  0.00    +0.000 A 
ATOM     15  C   UNL     1      46.023   3.252   7.665  0.00  0.00    +0.000 A 
ATOM     16 CL   UNL     1      46.923   3.239   6.198  0.00  0.00    +0.000 Cl
ATOM     17  C   UNL     1      45.637   2.050   8.250  0.00  0.00    +0.000 A 
ATOM     18  C   UNL     1      44.952   2.058   9.468  0.00  0.00    +0.000 A 
ENDBRANCH  11  12
ENDBRANCH   8  11
ENDBRANCH   7   8
ENDBRANCH   1   7
BRANCH   4  19
ATOM     19  C   UNL     1      49.025   8.843  12.056  0.00  0.00    +0.000 C 
BRANCH  19  20
ATOM     20  N   UNL     1      50.364   8.312  12.043  0.00  0.00    +0.000 N 
ATOM     21  C   UNL     1      51.452   9.133  11.899  0.00  0.00    +0.000 C 
ATOM     22  O   UNL     1      51.341  10.352  11.801  0.00  0.00    +0.000 OA
ATOM     23  H   UNL     1      50.464   7.313  11.892  0.00  0.00    +0.000 HD
BRANCH  21  24
ATOM     24  C   UNL     1      52.768   8.485  11.935  0.00  0.00    +0.000 A 
ATOM     25  C   UNL     1      53.684   8.841  12.920  0.00  0.00    +0.000 A 
ATOM     26  S   UNL     1      55.134   7.946  12.857  0.00  0.00    +0.000 S 
ATOM     27  C   UNL     1      54.613   7.092  11.479  0.00  0.00    +0.000 A 
ATOM     28  N   UNL     1      55.417   6.164  10.891  0.00  0.00    +0.000 NA
ATOM     29  C   UNL     1      54.907   5.616   9.836  0.00  0.00    +0.000 A 
ATOM     30  N   UNL     1      53.671   5.907   9.323  0.00  0.00    +0.000 N 
ATOM     31  C   UNL     1      52.817   6.815   9.902  0.00  0.00    +0.000 A 
ATOM     32  O   UNL     1      51.698   7.024   9.438  0.00  0.00    +0.000 OA
ATOM     33  C   UNL     1      53.346   7.468  11.084  0.00  0.00    +0.000 A 
ATOM     34  H   UNL     1      53.329   5.438   8.497  0.00  0.00    +0.000 HD
ENDBRANCH  21  24
ENDBRANCH  19  20
ENDBRANCH   4  19
TORSDOF 7
ENDMDL
MODEL 8
REMARK VINA RESULT:    -7.267      3.836      8.429
REMARK INTER + INTRA:         -11.109
REMARK INTER:                  -9.395
REMARK INTRA:                  -1.714
REMARK UNBOUND:                -0.868
REMARK  Name = 
REMARK  8 active torsions:
REMARK  status: ('A' for Active; 'I' for Inactive)
REMARK    1  A    between atoms: C_1  and  C_2
REMARK    2  A    between atoms: C_2  and  N_3
REMARK    3  A    between atoms: C_2  and  C_25
REMARK    4  A    between atoms: N_3  and  C_4
REMARK    5  A    between atoms: C_4  and  C_5
REMARK    6  A    between atoms: C_8  and  C_9
REMARK    7  A    between atoms: C_9  and  N_10
REMARK    8  A    between atoms: C_11  and  C_13
REMARK                            x       y       z     vdW  Elec       q    Type
REMARK                         _______ _______ _______ _____ _____    ______ ____
ROOT
ATOM      1  C   UNL     1      50.143   8.483  14.258  0.00  0.00    +0.000 A 
ATOM      2  C   UNL     1      49.845   7.356  13.479  0.00  0.00    +0.000 A 
ATOM      3  C   UNL     1      48.654   7.286  12.749  0.00  0.00    +0.000 A 
ATOM      4  C   UNL     1      47.741   8.350  12.775  0.00  0.00    +0.000 A 
ATOM      5  C   UNL     1      48.031   9.468  13.567  0.00  0.00    +0.000 A 
ATOM      6  C   UNL     1      49.220   9.536  14.296  0.00  0.00    +0.000 A 
ENDROOT
BRANCH   1   7
ATOM      7  C   UNL     1      51.337   8.490  15.183  0.00  0.00    +0.000 C 
BRANCH   7   8
ATOM      8  N   UNL     1      51.852   7.156  15.513  0.00  0.00    +0.000 NA
ATOM      9  H   UNL     1      52.868   7.168  15.399  0.00  0.00    +0.000 HD
BRANCH   8  11
ATOM     10  C   UNL     1      51.065   7.987  17.732  0.00  0.00    +0.000 C 
ATOM     11  C   UNL     1      51.537   6.778  16.903  0.00  0.00    +0.000 C 
BRANCH  11  12
ATOM     12  C   UNL     1      50.461   5.693  16.965  0.00  0.00    +0.000 A 
ATOM     13  C   UNL     1      50.774   4.398  17.413  0.00  0.00    +0.000 A 
ATOM     14  C   UNL     1      49.764   3.453  17.626  0.00  0.00    +0.000 A 
ATOM     15  C   UNL     1      48.433   3.794  17.395  0.00  0.00    +0.000 A 
ATOM     16 CL   UNL     1      47.183   2.661  17.740  0.00  0.00    +0.000 Cl
ATOM     17  C   UNL     1      48.108   5.054  16.906  0.00  0.00    +0.000 A 
ATOM     18  C   UNL     1      49.118   5.992  16.676  0.00  0.00    +0.000 A 
ENDBRANCH  11  12
ENDBRANCH   8  11
ENDBRANCH   7   8
ENDBRANCH   1   7
BRANCH   4  19
ATOM     19  C   UNL     1      46.444   8.277  12.015  0.00  0.00    +0.000 C 
BRANCH  19  20
ATOM     20  N   UNL     1      46.041   6.912  11.798  0.00  0.00    +0.000 N 
ATOM     21  C   UNL     1      44.741   6.592  11.504  0.00  0.00    +0.000 C 
ATOM     22  O   UNL     1      43.870   7.449  11.385  0.00  0.00    +0.000 OA
ATOM     23  H   UNL     1      46.678   6.186  12.112  0.00  0.00    +0.000 HD
BRANCH  21  24
ATOM     24  C   UNL     1      44.456   5.172  11.269  0.00  0.00    +0.000 A 
ATOM     25  C   UNL     1      43.703   4.458  12.197  0.00  0.00    +0.000 A 
ATOM     26  S   UNL     1      43.410   2.843  11.738  0.00  0.00    +0.000 S 
ATOM     27  C   UNL     1      44.326   3.022  10.313  0.00  0.00    +0.000 A 
ATOM     28  N   UNL     1      44.496   1.975   9.460  0.00  0.00    +0.000 NA
ATOM     29  C   UNL     1      45.239   2.245   8.436  0.00  0.00    +0.000 A 
ATOM     30  N   UNL     1      45.817   3.461   8.187  0.00  0.00    +0.000 N 
ATOM     31  C   UNL     1      45.647   4.550   9.006  0.00  0.00    +0.000 A 
ATOM     32  O   UNL     1      46.147   5.639   8.733  0.00  0.00    +0.000 OA
ATOM     33  C   UNL     1      44.830   4.298  10.178  0.00  0.00    +0.000 A 
ATOM     34  H   UNL     1      46.383   3.607   7.363  0.00  0.00    +0.000 HD
ENDBRANCH  21  24
ENDBRANCH  19  20
ENDBRANCH   4  19
TORSDOF 7
ENDMDL
MODEL 9
REMARK VINA RESULT:    -7.108      2.329      3.017
REMARK INTER + INTRA:         -10.885
REMARK INTER:                  -9.446
REMARK INTRA:                  -1.439
REMARK UNBOUND:                -0.868
REMARK  Name = 
REMARK  8 active torsions:
REMARK  status: ('A' for Active; 'I' for Inactive)
REMARK    1  A    between atoms: C_1  and  C_2
REMARK    2  A    between atoms: C_2  and  N_3
REMARK    3  A    between atoms: C_2  and  C_25
REMARK    4  A    between atoms: N_3  and  C_4
REMARK    5  A    between atoms: C_4  and  C_5
REMARK    6  A    between atoms: C_8  and  C_9
REMARK    7  A    between atoms: C_9  and  N_10
REMARK    8  A    between atoms: C_11  and  C_13
REMARK                            x       y       z     vdW  Elec       q    Type
REMARK                         _______ _______ _______ _____ _____    ______ ____
ROOT
ATOM      1  C   UNL     1      45.646   5.844  12.921  0.00  0.00    +0.000 A 
ATOM      2  C   UNL     1      45.243   7.176  12.753  0.00  0.00    +0.000 A 
ATOM      3  C   UNL     1      46.189   8.196  12.612  0.00  0.00    +0.000 A 
ATOM      4  C   UNL     1      47.560   7.902  12.624  0.00  0.00    +0.000 A 
ATOM      5  C   UNL     1      47.963   6.573  12.810  0.00  0.00    +0.000 A 
ATOM      6  C   UNL     1      47.017   5.556  12.952  0.00  0.00    +0.000 A 
ENDROOT
BRANCH   1   7
ATOM      7  C   UNL     1      44.640   4.767  13.250  0.00  0.00    +0.000 C 
BRANCH   7   8
ATOM      8  N   UNL     1      44.860   3.500  12.544  0.00  0.00    +0.000 NA
ATOM      9  H   UNL     1      44.626   2.734  13.179  0.00  0.00    +0.000 HD
BRANCH   8  11
ATOM     10  C   UNL     1      43.009   4.555  11.242  0.00  0.00    +0.000 C 
ATOM     11  C   UNL     1      44.013   3.391  11.342  0.00  0.00    +0.000 C 
BRANCH  11  12
ATOM     12  C   UNL     1      44.849   3.355  10.062  0.00  0.00    +0.000 A 
ATOM     13  C   UNL     1      45.134   2.134   9.425  0.00  0.00    +0.000 A 
ATOM     14  C   UNL     1      45.756   2.111   8.171  0.00  0.00    +0.000 A 
ATOM     15  C   UNL     1      46.096   3.305   7.542  0.00  0.00    +0.000 A 
ATOM     16 CL   UNL     1      46.780   3.280   5.963  0.00  0.00    +0.000 Cl
ATOM     17  C   UNL     1      45.866   4.522   8.176  0.00  0.00    +0.000 A 
ATOM     18  C   UNL     1      45.261   4.545   9.436  0.00  0.00    +0.000 A 
ENDBRANCH  11  12
ENDBRANCH   8  11
ENDBRANCH   7   8
ENDBRANCH   1   7
BRANCH   4  19
ATOM     19  C   UNL     1      48.589   8.994  12.499  0.00  0.00    +0.000 C 
BRANCH  19  20
ATOM     20  N   UNL     1      49.340   9.145  13.718  0.00  0.00    +0.000 N 
ATOM     21  C   UNL     1      50.643   8.728  13.807  0.00  0.00    +0.000 C 
ATOM     22  O   UNL     1      51.235   8.233  12.852  0.00  0.00    +0.000 OA
ATOM     23  H   UNL     1      48.814   9.333  14.566  0.00  0.00    +0.000 HD
BRANCH  21  24
ATOM     24  C   UNL     1      51.319   8.966  15.087  0.00  0.00    +0.000 A 
ATOM     25  C   UNL     1      52.084  10.115  15.259  0.00  0.00    +0.000 A 
ATOM     26  S   UNL     1      52.743  10.267  16.824  0.00  0.00    +0.000 S 
ATOM     27  C   UNL     1      52.078   8.776  17.310  0.00  0.00    +0.000 A 
ATOM     28  N   UNL     1      52.294   8.296  18.565  0.00  0.00    +0.000 NA
ATOM     29  C   UNL     1      51.757   7.140  18.786  0.00  0.00    +0.000 A 
ATOM     30  N   UNL     1      51.024   6.430  17.873  0.00  0.00    +0.000 N 
ATOM     31  C   UNL     1      50.759   6.891  16.607  0.00  0.00    +0.000 A 
ATOM     32  O   UNL     1      50.063   6.247  15.825  0.00  0.00    +0.000 OA
ATOM     33  C   UNL     1      51.349   8.181  16.302  0.00  0.00    +0.000 A 
ATOM     34  H   UNL     1      50.625   5.533  18.112  0.00  0.00    +0.000 HD
ENDBRANCH  21  24
ENDBRANCH  19  20
ENDBRANCH   4  19
TORSDOF 7
ENDMDL
