MODEL 1
REMARK VINA RESULT:    -7.506      0.000      0.000
REMARK INTER + INTRA:         -11.538
REMARK INTER:                 -10.578
REMARK INTRA:                  -0.960
REMARK UNBOUND:                -0.960
REMARK  Name = 
REMARK  11 active torsions:
REMARK  status: ('A' for Active; 'I' for Inactive)
REMARK    1  A    between atoms: C_1  and  C_2
REMARK    2  A    between atoms: C_2  and  C_3
REMARK    3  A    between atoms: C_2  and  N_4
REMARK    4  A    between atoms: C_5  and  C_7
REMARK    5  A    between atoms: C_10  and  N_11
REMARK    6  A    between atoms: N_11  and  C_12
REMARK    7  A    between atoms: C_12  and  C_13
REMARK    8  A    between atoms: C_13  and  C_14
REMARK    9  A    between atoms: C_13  and  C_15
REMARK   10  A    between atoms: C_13  and  C_16
REMARK   11  A    between atoms: C_20  and  C_21
REMARK                            x       y       z     vdW  Elec       q    Type
REMARK                         _______ _______ _______ _____ _____    ______ ____
ROOT
ATOM      1  N   UNL     1      45.177   4.484  13.056  0.00  0.00    +0.000 N 
ATOM      2  H   UNL     1      44.658   4.491  13.928  0.00  0.00    +0.000 HD
ENDROOT
BRANCH   1   6
ATOM      3  C   UNL     1      48.549   6.841  12.928  0.00  0.00    +0.000 A 
ATOM      4  N   UNL     1      48.421   6.033  14.005  0.00  0.00    +0.000 NA
ATOM      5  C   UNL     1      47.291   5.294  14.038  0.00  0.00    +0.000 A 
ATOM      6  C   UNL     1      46.283   5.325  13.084  0.00  0.00    +0.000 A 
ATOM      7  C   UNL     1      46.553   6.196  12.036  0.00  0.00    +0.000 A 
ATOM      8  N   UNL     1      47.656   6.968  11.931  0.00  0.00    +0.000 NA
BRANCH   3  10
ATOM      9  N   UNL     1      50.506   7.550  11.645  0.00  0.00    +0.000 N 
ATOM     10  C   UNL     1      49.824   7.647  12.849  0.00  0.00    +0.000 C 
ATOM     11  O   UNL     1      50.223   8.337  13.786  0.00  0.00    +0.000 OA
ATOM     12  H   UNL     1      50.052   7.022  10.904  0.00  0.00    +0.000 HD
BRANCH   9  14
ATOM     13  C   UNL     1      52.646   7.503  10.462  0.00  0.00    +0.000 C 
ATOM     14  C   UNL     1      51.727   8.294  11.384  0.00  0.00    +0.000 C 
ATOM     15  C   UNL     1      51.425   9.667  10.789  0.00  0.00    +0.000 C 
ENDBRANCH   9  14
ENDBRANCH   3  10
ENDBRANCH   1   6
BRANCH   1  16
ATOM     16  C   UNL     1      45.205   3.223  12.304  0.00  0.00    +0.000 C 
BRANCH  16  17
ATOM     17  C   UNL     1      44.213   3.208  11.097  0.00  0.00    +0.000 C 
ATOM     18  C   UNL     1      43.341   1.929  11.191  0.00  0.00    +0.000 C 
ATOM     19  C   UNL     1      43.267   4.429  11.168  0.00  0.00    +0.000 C 
BRANCH  17  20
ATOM     20  C   UNL     1      44.991   3.290   9.756  0.00  0.00    +0.000 A 
ATOM     21  C   UNL     1      45.251   4.517   9.117  0.00  0.00    +0.000 A 
ATOM     22  C   UNL     1      46.014   4.589   7.949  0.00  0.00    +0.000 A 
ATOM     23  C   UNL     1      46.552   3.434   7.394  0.00  0.00    +0.000 A 
ATOM     24  C   UNL     1      46.329   2.197   8.005  0.00  0.00    +0.000 A 
ATOM     25  C   UNL     1      45.532   2.125   9.160  0.00  0.00    +0.000 A 
BRANCH  24  26
ATOM     26  C   UNL     1      46.983   1.006   7.396  0.00  0.00    +0.000 C 
ATOM     27  N   UNL     1      46.569  -0.230   7.804  0.00  0.00    +0.000 N 
ATOM     28  O   UNL     1      47.900   1.122   6.593  0.00  0.00    +0.000 OA
ATOM     29  H   UNL     1      45.948  -0.389   8.584  0.00  0.00    +0.000 HD
ATOM     30  H   UNL     1      47.123  -1.013   7.476  0.00  0.00    +0.000 HD
ENDBRANCH  24  26
ENDBRANCH  17  20
ENDBRANCH  16  17
ENDBRANCH   1  16
TORSDOF 7
ENDMDL
MODEL 2
REMARK VINA RESULT:    -7.120      1.528      2.099
REMARK INTER + INTRA:         -10.994
REMARK INTER:                 -10.037
REMARK INTRA:                  -0.957
REMARK UNBOUND:                -0.960
REMARK  Name = 
REMARK  11 active torsions:
REMARK  status: ('A' for Active; 'I' for Inactive)
REMARK    1  A    between atoms: C_1  and  C_2
REMARK    2  A    between atoms: C_2  and  C_3
REMARK    3  A    between atoms: C_2  and  N_4
REMARK    4  A    between atoms: C_5  and  C_7
REMARK    5  A    between atoms: C_10  and  N_11
REMARK    6  A    between atoms: N_11  and  C_12
REMARK    7  A    between atoms: C_12  and  C_13
REMARK    8  A    between atoms: C_13  and  C_14
REMARK    9  A    between atoms: C_13  and  C_15
REMARK   10  A    between atoms: C_13  and  C_16
REMARK   11  A    between atoms: C_20  and  C_21
REMARK                            x       y       z     vdW  Elec       q    Type
REMARK                         _______ _______ _______ _____ _____    ______ ____
ROOT
ATOM      1  N   UNL     1      45.189   4.821  13.001  0.00  0.00    +0.000 N 
ATOM      2  H   UNL     1      44.629   5.039  13.819  0.00  0.00    +0.000 HD
ENDROOT
BRANCH   1   6
ATOM      3  C   UNL     1      48.717   6.932  13.194  0.00  0.00    +0.000 A 
ATOM      4  N   UNL     1      47.921   7.189  12.132  0.00  0.00    +0.000 NA
ATOM      5  C   UNL     1      46.786   6.460  12.076  0.00  0.00    +0.000 A 
ATOM      6  C   UNL     1      46.408   5.488  12.993  0.00  0.00    +0.000 A 
ATOM      7  C   UNL     1      47.319   5.337  14.031  0.00  0.00    +0.000 A 
ATOM      8  N   UNL     1      48.474   6.026  14.157  0.00  0.00    +0.000 NA
BRANCH   3  10
ATOM      9  N   UNL     1      50.699   7.584  14.468  0.00  0.00    +0.000 N 
ATOM     10  C   UNL     1      49.973   7.764  13.301  0.00  0.00    +0.000 C 
ATOM     11  O   UNL     1      50.321   8.543  12.414  0.00  0.00    +0.000 OA
ATOM     12  H   UNL     1      50.374   6.858  15.102  0.00  0.00    +0.000 HD
BRANCH   9  14
ATOM     13  C   UNL     1      51.716   9.553  15.506  0.00  0.00    +0.000 C 
ATOM     14  C   UNL     1      51.956   8.274  14.714  0.00  0.00    +0.000 C 
ATOM     15  C   UNL     1      52.950   7.373  15.442  0.00  0.00    +0.000 C 
ENDBRANCH   9  14
ENDBRANCH   3  10
ENDBRANCH   1   6
BRANCH   1  16
ATOM     16  C   UNL     1      45.065   3.467  12.445  0.00  0.00    +0.000 C 
BRANCH  16  17
ATOM     17  C   UNL     1      44.093   3.393  11.224  0.00  0.00    +0.000 C 
ATOM     18  C   UNL     1      43.249   2.099  11.343  0.00  0.00    +0.000 C 
ATOM     19  C   UNL     1      43.120   4.595  11.243  0.00  0.00    +0.000 C 
BRANCH  17  20
ATOM     20  C   UNL     1      44.892   3.452   9.894  0.00  0.00    +0.000 A 
ATOM     21  C   UNL     1      45.189   4.671   9.254  0.00  0.00    +0.000 A 
ATOM     22  C   UNL     1      45.970   4.721   8.097  0.00  0.00    +0.000 A 
ATOM     23  C   UNL     1      46.489   3.551   7.554  0.00  0.00    +0.000 A 
ATOM     24  C   UNL     1      46.229   2.323   8.166  0.00  0.00    +0.000 A 
ATOM     25  C   UNL     1      45.414   2.273   9.310  0.00  0.00    +0.000 A 
BRANCH  24  26
ATOM     26  C   UNL     1      46.863   1.115   7.570  0.00  0.00    +0.000 C 
ATOM     27  N   UNL     1      47.816   1.299   6.609  0.00  0.00    +0.000 N 
ATOM     28  O   UNL     1      46.510  -0.014   7.887  0.00  0.00    +0.000 OA
ATOM     29  H   UNL     1      48.021   2.190   6.182  0.00  0.00    +0.000 HD
ATOM     30  H   UNL     1      48.128   0.464   6.128  0.00  0.00    +0.000 HD
ENDBRANCH  24  26
ENDBRANCH  17  20
ENDBRANCH  16  17
ENDBRANCH   1  16
TORSDOF 7
ENDMDL
MODEL 3
REMARK VINA RESULT:    -6.927      2.655      3.597
REMARK INTER + INTRA:         -10.722
REMARK INTER:                 -10.068
REMARK INTRA:                  -0.654
REMARK UNBOUND:                -0.960
REMARK  Name = 
REMARK  11 active torsions:
REMARK  status: ('A' for Active; 'I' for Inactive)
REMARK    1  A    between atoms: C_1  and  C_2
REMARK    2  A    between atoms: C_2  and  C_3
REMARK    3  A    between atoms: C_2  and  N_4
REMARK    4  A    between atoms: C_5  and  C_7
REMARK    5  A    between atoms: C_10  and  N_11
REMARK    6  A    between atoms: N_11  and  C_12
REMARK    7  A    between atoms: C_12  and  C_13
REMARK    8  A    between atoms: C_13  and  C_14
REMARK    9  A    between atoms: C_13  and  C_15
REMARK   10  A    between atoms: C_13  and  C_16
REMARK   11  A    between atoms: C_20  and  C_21
REMARK                            x       y       z     vdW  Elec       q    Type
REMARK                         _______ _______ _______ _____ _____    ______ ____
ROOT
ATOM      1  N   UNL     1      46.000   4.934  12.511  0.00  0.00    +0.000 N 
ATOM      2  H   UNL     1      45.554   5.752  12.109  0.00  0.00    +0.000 HD
ENDROOT
BRANCH   1   6
ATOM      3  C   UNL     1      48.600   5.783  15.586  0.00  0.00    +0.000 A 
ATOM      4  N   UNL     1      47.781   4.723  15.768  0.00  0.00    +0.000 NA
ATOM      5  C   UNL     1      46.917   4.485  14.758  0.00  0.00    +0.000 A 
ATOM      6  C   UNL     1      46.806   5.243  13.600  0.00  0.00    +0.000 A 
ATOM      7  C   UNL     1      47.712   6.295  13.550  0.00  0.00    +0.000 A 
ATOM      8  N   UNL     1      48.605   6.598  14.516  0.00  0.00    +0.000 NA
BRANCH   3  10
ATOM      9  N   UNL     1      49.184   6.928  17.666  0.00  0.00    +0.000 N 
ATOM     10  C   UNL     1      49.605   6.045  16.684  0.00  0.00    +0.000 C 
ATOM     11  O   UNL     1      50.712   5.509  16.699  0.00  0.00    +0.000 OA
ATOM     12  H   UNL     1      48.222   7.252  17.609  0.00  0.00    +0.000 HD
BRANCH   9  14
ATOM     13  C   UNL     1      50.863   8.485  18.528  0.00  0.00    +0.000 C 
ATOM     14  C   UNL     1      50.009   7.258  18.817  0.00  0.00    +0.000 C 
ATOM     15  C   UNL     1      49.158   7.480  20.065  0.00  0.00    +0.000 C 
ENDBRANCH   9  14
ENDBRANCH   3  10
ENDBRANCH   1   6
BRANCH   1  16
ATOM     16  C   UNL     1      45.252   3.671  12.458  0.00  0.00    +0.000 C 
BRANCH  16  17
ATOM     17  C   UNL     1      44.225   3.617  11.282  0.00  0.00    +0.000 C 
ATOM     18  C   UNL     1      43.313   2.379  11.480  0.00  0.00    +0.000 C 
ATOM     19  C   UNL     1      43.325   4.874  11.301  0.00  0.00    +0.000 C 
BRANCH  17  20
ATOM     20  C   UNL     1      44.967   3.586   9.918  0.00  0.00    +0.000 A 
ATOM     21  C   UNL     1      45.240   4.760   9.190  0.00  0.00    +0.000 A 
ATOM     22  C   UNL     1      45.972   4.731   8.000  0.00  0.00    +0.000 A 
ATOM     23  C   UNL     1      46.463   3.526   7.511  0.00  0.00    +0.000 A 
ATOM     24  C   UNL     1      46.224   2.341   8.210  0.00  0.00    +0.000 A 
ATOM     25  C   UNL     1      45.459   2.369   9.388  0.00  0.00    +0.000 A 
BRANCH  24  26
ATOM     26  C   UNL     1      46.828   1.093   7.666  0.00  0.00    +0.000 C 
ATOM     27  N   UNL     1      47.878   1.214   6.801  0.00  0.00    +0.000 N 
ATOM     28  O   UNL     1      46.370  -0.009   7.939  0.00  0.00    +0.000 OA
ATOM     29  H   UNL     1      48.183   2.090   6.403  0.00  0.00    +0.000 HD
ATOM     30  H   UNL     1      48.177   0.360   6.344  0.00  0.00    +0.000 HD
ENDBRANCH  24  26
ENDBRANCH  17  20
ENDBRANCH  16  17
ENDBRANCH   1  16
TORSDOF 7
ENDMDL
MODEL 4
REMARK VINA RESULT:    -6.613      3.440      8.061
REMARK INTER + INTRA:         -10.279
REMARK INTER:                  -9.377
REMARK INTRA:                  -0.901
REMARK UNBOUND:                -0.960
REMARK  Name = 
REMARK  11 active torsions:
REMARK  status: ('A' for Active; 'I' for Inactive)
REMARK    1  A    between atoms: C_1  and  C_2
REMARK    2  A    between atoms: C_2  and  C_3
REMARK    3  A    between atoms: C_2  and  N_4
REMARK    4  A    between atoms: C_5  and  C_7
REMARK    5  A    between atoms: C_10  and  N_11
REMARK    6  A    between atoms: N_11  and  C_12
REMARK    7  A    between atoms: C_12  and  C_13
REMARK    8  A    between atoms: C_13  and  C_14
REMARK    9  A    between atoms: C_13  and  C_15
REMARK   10  A    between atoms: C_13  and  C_16
REMARK   11  A    between atoms: C_20  and  C_21
REMARK                            x       y       z     vdW  Elec       q    Type
REMARK                         _______ _______ _______ _____ _____    ______ ____
ROOT
ATOM      1  N   UNL     1      47.317   8.309  14.084  0.00  0.00    +0.000 N 
ATOM      2  H   UNL     1      47.073   9.293  14.039  0.00  0.00    +0.000 HD
ENDROOT
BRANCH   1   6
ATOM      3  C   UNL     1      45.220   5.934  11.457  0.00  0.00    +0.000 A 
ATOM      4  N   UNL     1      44.924   7.253  11.442  0.00  0.00    +0.000 NA
ATOM      5  C   UNL     1      45.603   8.004  12.335  0.00  0.00    +0.000 A 
ATOM      6  C   UNL     1      46.535   7.524  13.246  0.00  0.00    +0.000 A 
ATOM      7  C   UNL     1      46.739   6.154  13.143  0.00  0.00    +0.000 A 
ATOM      8  N   UNL     1      46.101   5.335  12.279  0.00  0.00    +0.000 NA
BRANCH   3  10
ATOM      9  N   UNL     1      45.329   4.398   9.558  0.00  0.00    +0.000 N 
ATOM     10  C   UNL     1      44.503   5.079  10.439  0.00  0.00    +0.000 C 
ATOM     11  O   UNL     1      43.276   4.998  10.400  0.00  0.00    +0.000 OA
ATOM     12  H   UNL     1      46.330   4.464   9.725  0.00  0.00    +0.000 HD
BRANCH   9  14
ATOM     13  C   UNL     1      45.723   3.473   7.328  0.00  0.00    +0.000 C 
ATOM     14  C   UNL     1      44.806   3.498   8.543  0.00  0.00    +0.000 C 
ATOM     15  C   UNL     1      44.613   2.088   9.097  0.00  0.00    +0.000 C 
ENDBRANCH   9  14
ENDBRANCH   3  10
ENDBRANCH   1   6
BRANCH   1  16
ATOM     16  C   UNL     1      48.727   7.979  14.330  0.00  0.00    +0.000 C 
BRANCH  16  17
ATOM     17  C   UNL     1      49.186   8.303  15.788  0.00  0.00    +0.000 C 
ATOM     18  C   UNL     1      50.732   8.412  15.806  0.00  0.00    +0.000 C 
ATOM     19  C   UNL     1      48.611   9.665  16.239  0.00  0.00    +0.000 C 
BRANCH  17  20
ATOM     20  C   UNL     1      48.663   7.220  16.771  0.00  0.00    +0.000 A 
ATOM     21  C   UNL     1      48.353   7.516  18.112  0.00  0.00    +0.000 A 
ATOM     22  C   UNL     1      47.815   6.554  18.971  0.00  0.00    +0.000 A 
ATOM     23  C   UNL     1      47.560   5.269  18.507  0.00  0.00    +0.000 A 
ATOM     24  C   UNL     1      47.842   4.938  17.179  0.00  0.00    +0.000 A 
ATOM     25  C   UNL     1      48.414   5.899  16.328  0.00  0.00    +0.000 A 
BRANCH  24  26
ATOM     26  C   UNL     1      47.489   3.564  16.728  0.00  0.00    +0.000 C 
ATOM     27  N   UNL     1      47.003   2.689  17.658  0.00  0.00    +0.000 N 
ATOM     28  O   UNL     1      47.675   3.203  15.572  0.00  0.00    +0.000 OA
ATOM     29  H   UNL     1      46.993   2.869  18.651  0.00  0.00    +0.000 HD
ATOM     30  H   UNL     1      46.902   1.728  17.352  0.00  0.00    +0.000 HD
ENDBRANCH  24  26
ENDBRANCH  17  20
ENDBRANCH  16  17
ENDBRANCH   1  16
TORSDOF 7
ENDMDL
MODEL 5
REMARK VINA RESULT:    -6.476      3.699      8.115
REMARK INTER + INTRA:         -10.086
REMARK INTER:                  -9.280
REMARK INTRA:                  -0.806
REMARK UNBOUND:                -0.960
REMARK  Name = 
REMARK  11 active torsions:
REMARK  status: ('A' for Active; 'I' for Inactive)
REMARK    1  A    between atoms: C_1  and  C_2
REMARK    2  A    between atoms: C_2  and  C_3
REMARK    3  A    between atoms: C_2  and  N_4
REMARK    4  A    between atoms: C_5  and  C_7
REMARK    5  A    between atoms: C_10  and  N_11
REMARK    6  A    between atoms: N_11  and  C_12
REMARK    7  A    between atoms: C_12  and  C_13
REMARK    8  A    between atoms: C_13  and  C_14
REMARK    9  A    between atoms: C_13  and  C_15
REMARK   10  A    between atoms: C_13  and  C_16
REMARK   11  A    between atoms: C_20  and  C_21
REMARK                            x       y       z     vdW  Elec       q    Type
REMARK                         _______ _______ _______ _____ _____    ______ ____
ROOT
ATOM      1  N   UNL     1      47.658   7.699  14.329  0.00  0.00    +0.000 N 
ATOM      2  H   UNL     1      47.638   8.707  14.210  0.00  0.00    +0.000 HD
ENDROOT
BRANCH   1   6
ATOM      3  C   UNL     1      45.395   5.643  11.574  0.00  0.00    +0.000 A 
ATOM      4  N   UNL     1      45.362   6.992  11.491  0.00  0.00    +0.000 NA
ATOM      5  C   UNL     1      46.087   7.642  12.426  0.00  0.00    +0.000 A 
ATOM      6  C   UNL     1      46.820   7.038  13.439  0.00  0.00    +0.000 A 
ATOM      7  C   UNL     1      46.764   5.651  13.397  0.00  0.00    +0.000 A 
ATOM      8  N   UNL     1      46.063   4.928  12.497  0.00  0.00    +0.000 NA
BRANCH   3  10
ATOM      9  N   UNL     1      45.404   4.169   9.623  0.00  0.00    +0.000 N 
ATOM     10  C   UNL     1      44.625   4.892  10.513  0.00  0.00    +0.000 C 
ATOM     11  O   UNL     1      43.396   4.924  10.451  0.00  0.00    +0.000 OA
ATOM     12  H   UNL     1      46.403   4.139   9.809  0.00  0.00    +0.000 HD
BRANCH   9  14
ATOM     13  C   UNL     1      45.693   3.398   7.319  0.00  0.00    +0.000 C 
ATOM     14  C   UNL     1      44.822   3.355   8.568  0.00  0.00    +0.000 C 
ATOM     15  C   UNL     1      44.617   1.914   9.027  0.00  0.00    +0.000 C 
ENDBRANCH   9  14
ENDBRANCH   3  10
ENDBRANCH   1   6
BRANCH   1  16
ATOM     16  C   UNL     1      48.928   7.101  14.759  0.00  0.00    +0.000 C 
BRANCH  16  17
ATOM     17  C   UNL     1      49.267   7.394  16.255  0.00  0.00    +0.000 C 
ATOM     18  C   UNL     1      50.734   7.887  16.342  0.00  0.00    +0.000 C 
ATOM     19  C   UNL     1      48.358   8.521  16.799  0.00  0.00    +0.000 C 
BRANCH  17  20
ATOM     20  C   UNL     1      49.022   6.129  17.122  0.00  0.00    +0.000 A 
ATOM     21  C   UNL     1      48.171   6.145  18.243  0.00  0.00    +0.000 A 
ATOM     22  C   UNL     1      47.898   4.986  18.975  0.00  0.00    +0.000 A 
ATOM     23  C   UNL     1      48.462   3.773  18.596  0.00  0.00    +0.000 A 
ATOM     24  C   UNL     1      49.303   3.712  17.482  0.00  0.00    +0.000 A 
ATOM     25  C   UNL     1      49.601   4.886  16.769  0.00  0.00    +0.000 A 
BRANCH  24  26
ATOM     26  C   UNL     1      49.825   2.373  17.093  0.00  0.00    +0.000 C 
ATOM     27  N   UNL     1      50.838   1.840  17.839  0.00  0.00    +0.000 N 
ATOM     28  O   UNL     1      49.403   1.785  16.106  0.00  0.00    +0.000 OA
ATOM     29  H   UNL     1      51.344   2.348  18.549  0.00  0.00    +0.000 HD
ATOM     30  H   UNL     1      51.262   0.997  17.471  0.00  0.00    +0.000 HD
ENDBRANCH  24  26
ENDBRANCH  17  20
ENDBRANCH  16  17
ENDBRANCH   1  16
TORSDOF 7
ENDMDL
MODEL 6
REMARK VINA RESULT:    -6.384      3.049      4.535
REMARK INTER + INTRA:          -9.956
REMARK INTER:                  -9.189
REMARK INTRA:                  -0.767
REMARK UNBOUND:                -0.960
REMARK  Name = 
REMARK  11 active torsions:
REMARK  status: ('A' for Active; 'I' for Inactive)
REMARK    1  A    between atoms: C_1  and  C_2
REMARK    2  A    between atoms: C_2  and  C_3
REMARK    3  A    between atoms: C_2  and  N_4
REMARK    4  A    between atoms: C_5  and  C_7
REMARK    5  A    between atoms: C_10  and  N_11
REMARK    6  A    between atoms: N_11  and  C_12
REMARK    7  A    between atoms: C_12  and  C_13
REMARK    8  A    between atoms: C_13  and  C_14
REMARK    9  A    between atoms: C_13  and  C_15
REMARK   10  A    between atoms: C_13  and  C_16
REMARK   11  A    between atoms: C_20  and  C_21
REMARK                            x       y       z     vdW  Elec       q    Type
REMARK                         _______ _______ _______ _____ _____    ______ ____
ROOT
ATOM      1  N   UNL     1      45.912   4.272  13.153  0.00  0.00    +0.000 N 
ATOM      2  H   UNL     1      46.314   3.841  12.326  0.00  0.00    +0.000 HD
ENDROOT
BRANCH   1   6
ATOM      3  C   UNL     1      48.570   5.466  16.061  0.00  0.00    +0.000 A 
ATOM      4  N   UNL     1      48.427   6.293  15.001  0.00  0.00    +0.000 NA
ATOM      5  C   UNL     1      47.574   5.863  14.047  0.00  0.00    +0.000 A 
ATOM      6  C   UNL     1      46.876   4.663  14.075  0.00  0.00    +0.000 A 
ATOM      7  C   UNL     1      47.118   3.920  15.224  0.00  0.00    +0.000 A 
ATOM      8  N   UNL     1      47.955   4.280  16.220  0.00  0.00    +0.000 NA
BRANCH   3  10
ATOM      9  N   UNL     1      49.425   5.214  18.337  0.00  0.00    +0.000 N 
ATOM     10  C   UNL     1      49.488   5.944  17.160  0.00  0.00    +0.000 C 
ATOM     11  O   UNL     1      50.233   6.912  17.016  0.00  0.00    +0.000 OA
ATOM     12  H   UNL     1      48.840   4.382  18.328  0.00  0.00    +0.000 HD
BRANCH   9  14
ATOM     13  C   UNL     1      49.517   5.271  20.781  0.00  0.00    +0.000 C 
ATOM     14  C   UNL     1      50.272   5.512  19.480  0.00  0.00    +0.000 C 
ATOM     15  C   UNL     1      51.558   4.690  19.449  0.00  0.00    +0.000 C 
ENDBRANCH   9  14
ENDBRANCH   3  10
ENDBRANCH   1   6
BRANCH   1  16
ATOM     16  C   UNL     1      44.680   5.050  12.972  0.00  0.00    +0.000 C 
BRANCH  16  17
ATOM     17  C   UNL     1      44.421   5.447  11.483  0.00  0.00    +0.000 C 
ATOM     18  C   UNL     1      42.974   5.990  11.362  0.00  0.00    +0.000 C 
ATOM     19  C   UNL     1      45.386   6.576  11.056  0.00  0.00    +0.000 C 
BRANCH  17  20
ATOM     20  C   UNL     1      44.671   4.232  10.549  0.00  0.00    +0.000 A 
ATOM     21  C   UNL     1      43.982   3.014  10.707  0.00  0.00    +0.000 A 
ATOM     22  C   UNL     1      44.160   1.950   9.818  0.00  0.00    +0.000 A 
ATOM     23  C   UNL     1      45.023   2.081   8.736  0.00  0.00    +0.000 A 
ATOM     24  C   UNL     1      45.715   3.278   8.537  0.00  0.00    +0.000 A 
ATOM     25  C   UNL     1      45.560   4.333   9.452  0.00  0.00    +0.000 A 
BRANCH  24  26
ATOM     26  C   UNL     1      46.577   3.375   7.327  0.00  0.00    +0.000 C 
ATOM     27  N   UNL     1      47.466   2.365   7.090  0.00  0.00    +0.000 N 
ATOM     28  O   UNL     1      46.534   4.352   6.589  0.00  0.00    +0.000 OA
ATOM     29  H   UNL     1      47.672   1.629   7.749  0.00  0.00    +0.000 HD
ATOM     30  H   UNL     1      48.129   2.525   6.341  0.00  0.00    +0.000 HD
ENDBRANCH  24  26
ENDBRANCH  17  20
ENDBRANCH  16  17
ENDBRANCH   1  16
TORSDOF 7
ENDMDL
MODEL 7
REMARK VINA RESULT:    -6.261      3.698      8.176
REMARK INTER + INTRA:          -9.783
REMARK INTER:                  -8.731
REMARK INTRA:                  -1.051
REMARK UNBOUND:                -0.960
REMARK  Name = 
REMARK  11 active torsions:
REMARK  status: ('A' for Active; 'I' for Inactive)
REMARK    1  A    between atoms: C_1  and  C_2
REMARK    2  A    between atoms: C_2  and  C_3
REMARK    3  A    between atoms: C_2  and  N_4
REMARK    4  A    between atoms: C_5  and  C_7
REMARK    5  A    between atoms: C_10  and  N_11
REMARK    6  A    between atoms: N_11  and  C_12
REMARK    7  A    between atoms: C_12  and  C_13
REMARK    8  A    between atoms: C_13  and  C_14
REMARK    9  A    between atoms: C_13  and  C_15
REMARK   10  A    between atoms: C_13  and  C_16
REMARK   11  A    between atoms: C_20  and  C_21
REMARK                            x       y       z     vdW  Elec       q    Type
REMARK                         _______ _______ _______ _____ _____    ______ ____
ROOT
ATOM      1  N   UNL     1      49.424   7.689  14.465  0.00  0.00    +0.000 N 
ATOM      2  H   UNL     1      50.349   7.343  14.229  0.00  0.00    +0.000 HD
ENDROOT
BRANCH   1   6
ATOM      3  C   UNL     1      46.289   6.038  12.370  0.00  0.00    +0.000 A 
ATOM      4  N   UNL     1      46.617   5.435  13.536  0.00  0.00    +0.000 NA
ATOM      5  C   UNL     1      47.669   5.977  14.186  0.00  0.00    +0.000 A 
ATOM      6  C   UNL     1      48.418   7.059  13.743  0.00  0.00    +0.000 A 
ATOM      7  C   UNL     1      47.963   7.576  12.537  0.00  0.00    +0.000 A 
ATOM      8  N   UNL     1      46.922   7.092  11.826  0.00  0.00    +0.000 NA
BRANCH   3  10
ATOM      9  N   UNL     1      45.166   4.124  11.345  0.00  0.00    +0.000 N 
ATOM     10  C   UNL     1      45.090   5.475  11.644  0.00  0.00    +0.000 C 
ATOM     11  O   UNL     1      44.121   6.171  11.344  0.00  0.00    +0.000 OA
ATOM     12  H   UNL     1      45.970   3.619  11.708  0.00  0.00    +0.000 HD
BRANCH   9  14
ATOM     13  C   UNL     1      44.626   2.494   9.602  0.00  0.00    +0.000 C 
ATOM     14  C   UNL     1      44.082   3.413  10.687  0.00  0.00    +0.000 C 
ATOM     15  C   UNL     1      43.248   2.620  11.690  0.00  0.00    +0.000 C 
ENDBRANCH   9  14
ENDBRANCH   3  10
ENDBRANCH   1   6
BRANCH   1  16
ATOM     16  C   UNL     1      49.204   8.123  15.850  0.00  0.00    +0.000 C 
BRANCH  16  17
ATOM     17  C   UNL     1      50.111   7.373  16.877  0.00  0.00    +0.000 C 
ATOM     18  C   UNL     1      51.493   7.118  16.222  0.00  0.00    +0.000 C 
ATOM     19  C   UNL     1      50.338   8.252  18.130  0.00  0.00    +0.000 C 
BRANCH  17  20
ATOM     20  C   UNL     1      49.430   6.057  17.340  0.00  0.00    +0.000 A 
ATOM     21  C   UNL     1      48.179   6.050  17.985  0.00  0.00    +0.000 A 
ATOM     22  C   UNL     1      47.539   4.857  18.333  0.00  0.00    +0.000 A 
ATOM     23  C   UNL     1      48.129   3.635  18.033  0.00  0.00    +0.000 A 
ATOM     24  C   UNL     1      49.364   3.599  17.382  0.00  0.00    +0.000 A 
ATOM     25  C   UNL     1      50.020   4.800  17.064  0.00  0.00    +0.000 A 
BRANCH  24  26
ATOM     26  C   UNL     1      49.914   2.259  17.034  0.00  0.00    +0.000 C 
ATOM     27  N   UNL     1      50.887   1.738  17.838  0.00  0.00    +0.000 N 
ATOM     28  O   UNL     1      49.548   1.659  16.031  0.00  0.00    +0.000 OA
ATOM     29  H   UNL     1      51.352   2.255  18.569  0.00  0.00    +0.000 HD
ATOM     30  H   UNL     1      51.335   0.894  17.501  0.00  0.00    +0.000 HD
ENDBRANCH  24  26
ENDBRANCH  17  20
ENDBRANCH  16  17
ENDBRANCH   1  16
TORSDOF 7
ENDMDL
MODEL 8
REMARK VINA RESULT:    -6.202      2.701      3.390
REMARK INTER + INTRA:          -9.701
REMARK INTER:                  -8.909
REMARK INTRA:                  -0.791
REMARK UNBOUND:                -0.960
REMARK  Name = 
REMARK  11 active torsions:
REMARK  status: ('A' for Active; 'I' for Inactive)
REMARK    1  A    between atoms: C_1  and  C_2
REMARK    2  A    between atoms: C_2  and  C_3
REMARK    3  A    between atoms: C_2  and  N_4
REMARK    4  A    between atoms: C_5  and  C_7
REMARK    5  A    between atoms: C_10  and  N_11
REMARK    6  A    between atoms: N_11  and  C_12
REMARK    7  A    between atoms: C_12  and  C_13
REMARK    8  A    between atoms: C_13  and  C_14
REMARK    9  A    between atoms: C_13  and  C_15
REMARK   10  A    between atoms: C_13  and  C_16
REMARK   11  A    between atoms: C_20  and  C_21
REMARK                            x       y       z     vdW  Elec       q    Type
REMARK                         _______ _______ _______ _____ _____    ______ ____
ROOT
ATOM      1  N   UNL     1      45.990   4.438  13.117  0.00  0.00    +0.000 N 
ATOM      2  H   UNL     1      46.472   4.083  12.297  0.00  0.00    +0.000 HD
ENDROOT
BRANCH   1   6
ATOM      3  C   UNL     1      48.773   5.898  15.775  0.00  0.00    +0.000 A 
ATOM      4  N   UNL     1      48.069   4.815  16.176  0.00  0.00    +0.000 NA
ATOM      5  C   UNL     1      47.141   4.376  15.299  0.00  0.00    +0.000 A 
ATOM      6  C   UNL     1      46.861   4.954  14.069  0.00  0.00    +0.000 A 
ATOM      7  C   UNL     1      47.663   6.054  13.790  0.00  0.00    +0.000 A 
ATOM      8  N   UNL     1      48.610   6.554  14.613  0.00  0.00    +0.000 NA
BRANCH   3  10
ATOM      9  N   UNL     1      50.714   7.325  16.192  0.00  0.00    +0.000 N 
ATOM     10  C   UNL     1      49.845   6.383  16.722  0.00  0.00    +0.000 C 
ATOM     11  O   UNL     1      49.935   5.969  17.877  0.00  0.00    +0.000 OA
ATOM     12  H   UNL     1      50.505   7.664  15.257  0.00  0.00    +0.000 HD
BRANCH   9  14
ATOM     13  C   UNL     1      52.963   8.282  16.092  0.00  0.00    +0.000 C 
ATOM     14  C   UNL     1      51.776   7.929  16.979  0.00  0.00    +0.000 C 
ATOM     15  C   UNL     1      51.281   9.165  17.726  0.00  0.00    +0.000 C 
ENDBRANCH   9  14
ENDBRANCH   3  10
ENDBRANCH   1   6
BRANCH   1  16
ATOM     16  C   UNL     1      44.661   5.027  12.909  0.00  0.00    +0.000 C 
BRANCH  16  17
ATOM     17  C   UNL     1      44.391   5.419  11.421  0.00  0.00    +0.000 C 
ATOM     18  C   UNL     1      42.932   5.926  11.301  0.00  0.00    +0.000 C 
ATOM     19  C   UNL     1      45.329   6.572  10.994  0.00  0.00    +0.000 C 
BRANCH  17  20
ATOM     20  C   UNL     1      44.671   4.211  10.486  0.00  0.00    +0.000 A 
ATOM     21  C   UNL     1      43.999   2.982  10.632  0.00  0.00    +0.000 A 
ATOM     22  C   UNL     1      44.202   1.924   9.742  0.00  0.00    +0.000 A 
ATOM     23  C   UNL     1      45.075   2.071   8.670  0.00  0.00    +0.000 A 
ATOM     24  C   UNL     1      45.751   3.279   8.483  0.00  0.00    +0.000 A 
ATOM     25  C   UNL     1      45.570   4.329   9.399  0.00  0.00    +0.000 A 
BRANCH  24  26
ATOM     26  C   UNL     1      46.625   3.394   7.282  0.00  0.00    +0.000 C 
ATOM     27  N   UNL     1      47.577   2.433   7.089  0.00  0.00    +0.000 N 
ATOM     28  O   UNL     1      46.535   4.345   6.516  0.00  0.00    +0.000 OA
ATOM     29  H   UNL     1      47.816   1.730   7.772  0.00  0.00    +0.000 HD
ATOM     30  H   UNL     1      48.241   2.611   6.344  0.00  0.00    +0.000 HD
ENDBRANCH  24  26
ENDBRANCH  17  20
ENDBRANCH  16  17
ENDBRANCH   1  16
TORSDOF 7
ENDMDL
MODEL 9
REMARK VINA RESULT:    -6.164      4.426      8.508
REMARK INTER + INTRA:          -9.646
REMARK INTER:                  -8.863
REMARK INTRA:                  -0.783
REMARK UNBOUND:                -0.960
REMARK  Name = 
REMARK  11 active torsions:
REMARK  status: ('A' for Active; 'I' for Inactive)
REMARK    1  A    between atoms: C_1  and  C_2
REMARK    2  A    between atoms: C_2  and  C_3
REMARK    3  A    between atoms: C_2  and  N_4
REMARK    4  A    between atoms: C_5  and  C_7
REMARK    5  A    between atoms: C_10  and  N_11
REMARK    6  A    between atoms: N_11  and  C_12
REMARK    7  A    between atoms: C_12  and  C_13
REMARK    8  A    between atoms: C_13  and  C_14
REMARK    9  A    between atoms: C_13  and  C_15
REMARK   10  A    between atoms: C_13  and  C_16
REMARK   11  A    between atoms: C_20  and  C_21
REMARK                            x       y       z     vdW  Elec       q    Type
REMARK                         _______ _______ _______ _____ _____    ______ ____
ROOT
ATOM      1  N   UNL     1      49.382   6.886  16.239  0.00  0.00    +0.000 N 
ATOM      2  H   UNL     1      50.235   6.339  16.295  0.00  0.00    +0.000 HD
ENDROOT
BRANCH   1   6
ATOM      3  C   UNL     1      46.801   5.942  13.175  0.00  0.00    +0.000 A 
ATOM      4  N   UNL     1      46.901   5.039  14.176  0.00  0.00    +0.000 NA
ATOM      5  C   UNL     1      47.778   5.358  15.152  0.00  0.00    +0.000 A 
ATOM      6  C   UNL     1      48.567   6.500  15.182  0.00  0.00    +0.000 A 
ATOM      7  C   UNL     1      48.354   7.336  14.093  0.00  0.00    +0.000 A 
ATOM      8  N   UNL     1      47.498   7.088  13.078  0.00  0.00    +0.000 NA
BRANCH   3  10
ATOM      9  N   UNL     1      44.789   4.749  12.463  0.00  0.00    +0.000 N 
ATOM     10  C   UNL     1      45.796   5.627  12.092  0.00  0.00    +0.000 C 
ATOM     11  O   UNL     1      45.872   6.117  10.966  0.00  0.00    +0.000 OA
ATOM     12  H   UNL     1      44.766   4.465  13.439  0.00  0.00    +0.000 HD
BRANCH   9  14
ATOM     13  C   UNL     1      43.340   2.910  11.753  0.00  0.00    +0.000 C 
ATOM     14  C   UNL     1      43.716   4.372  11.556  0.00  0.00    +0.000 C 
ATOM     15  C   UNL     1      42.494   5.268  11.740  0.00  0.00    +0.000 C 
ENDBRANCH   9  14
ENDBRANCH   3  10
ENDBRANCH   1   6
BRANCH   1  16
ATOM     16  C   UNL     1      48.807   7.361  17.503  0.00  0.00    +0.000 C 
BRANCH  16  17
ATOM     17  C   UNL     1      48.916   6.313  18.657  0.00  0.00    +0.000 C 
ATOM     18  C   UNL     1      49.075   7.072  20.000  0.00  0.00    +0.000 C 
ATOM     19  C   UNL     1      47.620   5.474  18.740  0.00  0.00    +0.000 C 
BRANCH  17  20
ATOM     20  C   UNL     1      50.095   5.338  18.391  0.00  0.00    +0.000 A 
ATOM     21  C   UNL     1      51.412   5.633  18.790  0.00  0.00    +0.000 A 
ATOM     22  C   UNL     1      52.455   4.720  18.612  0.00  0.00    +0.000 A 
ATOM     23  C   UNL     1      52.204   3.478  18.041  0.00  0.00    +0.000 A 
ATOM     24  C   UNL     1      50.908   3.141  17.644  0.00  0.00    +0.000 A 
ATOM     25  C   UNL     1      49.869   4.075  17.793  0.00  0.00    +0.000 A 
BRANCH  24  26
ATOM     26  C   UNL     1      50.695   1.773  17.096  0.00  0.00    +0.000 C 
ATOM     27  N   UNL     1      51.371   0.738  17.676  0.00  0.00    +0.000 N 
ATOM     28  O   UNL     1      49.979   1.580  16.121  0.00  0.00    +0.000 OA
ATOM     29  H   UNL     1      52.104   0.855  18.360  0.00  0.00    +0.000 HD
ATOM     30  H   UNL     1      51.312  -0.153  17.198  0.00  0.00    +0.000 HD
ENDBRANCH  24  26
ENDBRANCH  17  20
ENDBRANCH  16  17
ENDBRANCH   1  16
TORSDOF 7
ENDMDL
