MODEL 1
REMARK VINA RESULT:    -9.004      0.000      0.000
REMARK INTER + INTRA:         -13.007
REMARK INTER:                 -12.163
REMARK INTRA:                  -0.844
REMARK UNBOUND:                -0.844
REMARK  Name = 
REMARK  6 active torsions:
REMARK  status: ('A' for Active; 'I' for Inactive)
REMARK    1  A    between atoms: C_2  and  C_4
REMARK    2  A    between atoms: N_8  and  C_9
REMARK    3  A    between atoms: C_9  and  C_10
REMARK    4  A    between atoms: C_10  and  C_11
REMARK    5  A    between atoms: C_15  and  O_16
REMARK    6  A    between atoms: O_16  and  C_17
REMARK                            x       y       z     vdW  Elec       q    Type
REMARK                         _______ _______ _______ _____ _____    ______ ____
ROOT
ATOM      1  C   UNL     1      46.463   2.512   7.711  0.00  0.00    +0.000 A 
ATOM      2  C   UNL     1      45.610   1.879   8.609  0.00  0.00    +0.000 A 
ATOM      3  C   UNL     1      44.697   2.644   9.335  0.00  0.00    +0.000 A 
ATOM      4  C   UNL     1      44.663   4.027   9.168  0.00  0.00    +0.000 A 
ATOM      5  N   UNL     1      43.725   4.840   9.785  0.00  0.00    +0.000 N 
ATOM      6  N   UNL     1      45.509   4.654   8.327  0.00  0.00    +0.000 NA
ATOM      7  C   UNL     1      46.392   3.893   7.625  0.00  0.00    +0.000 A 
ATOM      8  H   UNL     1      44.011   5.803   9.616  0.00  0.00    +0.000 HD
ENDROOT
BRANCH   1  10
ATOM      9  N   UNL     1      48.543   2.441   6.465  0.00  0.00    +0.000 N 
ATOM     10  C   UNL     1      47.416   1.774   6.862  0.00  0.00    +0.000 C 
ATOM     11  O   UNL     1      47.230   0.601   6.558  0.00  0.00    +0.000 OA
ATOM     12  H   UNL     1      49.243   1.894   5.979  0.00  0.00    +0.000 HD
ATOM     13  H   UNL     1      48.846   3.300   6.902  0.00  0.00    +0.000 HD
ENDBRANCH   1  10
BRANCH   5  14
ATOM     14  C   UNL     1      43.309   4.523  11.144  0.00  0.00    +0.000 C 
BRANCH  14  15
ATOM     15  C   UNL     1      43.552   5.712  12.080  0.00  0.00    +0.000 C 
BRANCH  15  16
ATOM     16  C   UNL     1      44.965   5.702  12.615  0.00  0.00    +0.000 A 
ATOM     17  C   UNL     1      45.838   6.761  12.336  0.00  0.00    +0.000 A 
ATOM     18  C   UNL     1      47.122   6.780  12.885  0.00  0.00    +0.000 A 
ATOM     19  C   UNL     1      47.551   5.741  13.715  0.00  0.00    +0.000 A 
ATOM     20  C   UNL     1      46.695   4.679  13.991  0.00  0.00    +0.000 A 
ATOM     21  C   UNL     1      45.405   4.666  13.450  0.00  0.00    +0.000 A 
BRANCH  20  22
ATOM     22  O   UNL     1      46.994   3.626  14.818  0.00  0.00    +0.000 OA
BRANCH  22  23
ATOM     23  C   UNL     1      47.843   3.851  15.968  0.00  0.00    +0.000 C 
ATOM     24  C   UNL     1      48.485   2.604  16.619  0.00  0.00    +0.000 C 
ATOM     25  C   UNL     1      48.001   3.089  17.992  0.00  0.00    +0.000 C 
ATOM     26  C   UNL     1      47.063   4.074  17.286  0.00  0.00    +0.000 C 
ENDBRANCH  22  23
ENDBRANCH  20  22
ENDBRANCH  15  16
ENDBRANCH  14  15
ENDBRANCH   5  14
TORSDOF 6
ENDMDL
MODEL 2
REMARK VINA RESULT:    -7.975      1.920      3.546
REMARK INTER + INTRA:         -11.616
REMARK INTER:                 -10.644
REMARK INTRA:                  -0.972
REMARK UNBOUND:                -0.844
REMARK  Name = 
REMARK  6 active torsions:
REMARK  status: ('A' for Active; 'I' for Inactive)
REMARK    1  A    between atoms: C_2  and  C_4
REMARK    2  A    between atoms: N_8  and  C_9
REMARK    3  A    between atoms: C_9  and  C_10
REMARK    4  A    between atoms: C_10  and  C_11
REMARK    5  A    between atoms: C_15  and  O_16
REMARK    6  A    between atoms: O_16  and  C_17
REMARK                            x       y       z     vdW  Elec       q    Type
REMARK                         _______ _______ _______ _____ _____    ______ ____
ROOT
ATOM      1  C   UNL     1      46.199   2.075   8.019  0.00  0.00    +0.000 A 
ATOM      2  C   UNL     1      45.319   1.755   9.048  0.00  0.00    +0.000 A 
ATOM      3  C   UNL     1      44.516   2.758   9.591  0.00  0.00    +0.000 A 
ATOM      4  C   UNL     1      44.617   4.063   9.115  0.00  0.00    +0.000 A 
ATOM      5  N   UNL     1      43.790   5.090   9.542  0.00  0.00    +0.000 N 
ATOM      6  N   UNL     1      45.492   4.390   8.143  0.00  0.00    +0.000 NA
ATOM      7  C   UNL     1      46.267   3.401   7.622  0.00  0.00    +0.000 A 
ATOM      8  H   UNL     1      44.167   5.954   9.155  0.00  0.00    +0.000 HD
ENDROOT
BRANCH   1  10
ATOM      9  N   UNL     1      46.782  -0.248   7.628  0.00  0.00    +0.000 N 
ATOM     10  C   UNL     1      47.041   1.066   7.348  0.00  0.00    +0.000 C 
ATOM     11  O   UNL     1      47.908   1.387   6.544  0.00  0.00    +0.000 OA
ATOM     12  H   UNL     1      47.286  -0.934   7.080  0.00  0.00    +0.000 HD
ATOM     13  H   UNL     1      45.925  -0.547   8.073  0.00  0.00    +0.000 HD
ENDBRANCH   1  10
BRANCH   5  14
ATOM     14  C   UNL     1      43.393   5.133  10.942  0.00  0.00    +0.000 C 
BRANCH  14  15
ATOM     15  C   UNL     1      44.045   6.322  11.658  0.00  0.00    +0.000 C 
BRANCH  15  16
ATOM     16  C   UNL     1      45.208   5.871  12.509  0.00  0.00    +0.000 A 
ATOM     17  C   UNL     1      45.122   4.695  13.266  0.00  0.00    +0.000 A 
ATOM     18  C   UNL     1      46.221   4.247  14.002  0.00  0.00    +0.000 A 
ATOM     19  C   UNL     1      47.418   4.968  13.994  0.00  0.00    +0.000 A 
ATOM     20  C   UNL     1      47.512   6.142  13.252  0.00  0.00    +0.000 A 
ATOM     21  C   UNL     1      46.414   6.585  12.508  0.00  0.00    +0.000 A 
BRANCH  20  22
ATOM     22  O   UNL     1      48.644   6.910  13.142  0.00  0.00    +0.000 OA
BRANCH  22  23
ATOM     23  C   UNL     1      48.816   7.749  11.976  0.00  0.00    +0.000 C 
ATOM     24  C   UNL     1      50.246   7.859  11.397  0.00  0.00    +0.000 C 
ATOM     25  C   UNL     1      50.107   9.387  11.382  0.00  0.00    +0.000 C 
ATOM     26  C   UNL     1      48.887   9.261  12.300  0.00  0.00    +0.000 C 
ENDBRANCH  22  23
ENDBRANCH  20  22
ENDBRANCH  15  16
ENDBRANCH  14  15
ENDBRANCH   5  14
TORSDOF 6
ENDMDL
MODEL 3
REMARK VINA RESULT:    -7.637      2.353      4.425
REMARK INTER + INTRA:         -11.160
REMARK INTER:                 -10.402
REMARK INTRA:                  -0.758
REMARK UNBOUND:                -0.844
REMARK  Name = 
REMARK  6 active torsions:
REMARK  status: ('A' for Active; 'I' for Inactive)
REMARK    1  A    between atoms: C_2  and  C_4
REMARK    2  A    between atoms: N_8  and  C_9
REMARK    3  A    between atoms: C_9  and  C_10
REMARK    4  A    between atoms: C_10  and  C_11
REMARK    5  A    between atoms: C_15  and  O_16
REMARK    6  A    between atoms: O_16  and  C_17
REMARK                            x       y       z     vdW  Elec       q    Type
REMARK                         _______ _______ _______ _____ _____    ______ ____
ROOT
ATOM      1  C   UNL     1      46.377   2.972   7.424  0.00  0.00    +0.000 A 
ATOM      2  C   UNL     1      46.006   4.199   7.964  0.00  0.00    +0.000 A 
ATOM      3  C   UNL     1      45.270   4.225   9.149  0.00  0.00    +0.000 A 
ATOM      4  C   UNL     1      44.902   3.031   9.764  0.00  0.00    +0.000 A 
ATOM      5  N   UNL     1      44.251   2.980  10.987  0.00  0.00    +0.000 N 
ATOM      6  N   UNL     1      45.226   1.836   9.230  0.00  0.00    +0.000 NA
ATOM      7  C   UNL     1      45.945   1.828   8.075  0.00  0.00    +0.000 A 
ATOM      8  H   UNL     1      43.972   2.011  11.133  0.00  0.00    +0.000 HD
ENDROOT
BRANCH   1  10
ATOM      9  N   UNL     1      48.526   2.546   6.381  0.00  0.00    +0.000 N 
ATOM     10  C   UNL     1      47.204   2.854   6.208  0.00  0.00    +0.000 C 
ATOM     11  O   UNL     1      46.722   2.985   5.089  0.00  0.00    +0.000 OA
ATOM     12  H   UNL     1      49.058   2.356   5.541  0.00  0.00    +0.000 HD
ATOM     13  H   UNL     1      48.887   2.184   7.252  0.00  0.00    +0.000 HD
ENDBRANCH   1  10
BRANCH   5  14
ATOM     14  C   UNL     1      43.247   3.990  11.290  0.00  0.00    +0.000 C 
BRANCH  14  15
ATOM     15  C   UNL     1      43.420   4.519  12.718  0.00  0.00    +0.000 C 
BRANCH  15  16
ATOM     16  C   UNL     1      44.748   5.220  12.880  0.00  0.00    +0.000 A 
ATOM     17  C   UNL     1      45.827   4.567  13.489  0.00  0.00    +0.000 A 
ATOM     18  C   UNL     1      47.072   5.194  13.580  0.00  0.00    +0.000 A 
ATOM     19  C   UNL     1      47.253   6.481  13.068  0.00  0.00    +0.000 A 
ATOM     20  C   UNL     1      46.186   7.143  12.469  0.00  0.00    +0.000 A 
ATOM     21  C   UNL     1      44.942   6.511  12.369  0.00  0.00    +0.000 A 
BRANCH  20  22
ATOM     22  O   UNL     1      46.256   8.391  11.902  0.00  0.00    +0.000 OA
BRANCH  22  23
ATOM     23  C   UNL     1      45.137   9.296  12.046  0.00  0.00    +0.000 C 
ATOM     24  C   UNL     1      44.113   9.333  10.888  0.00  0.00    +0.000 C 
ATOM     25  C   UNL     1      44.208  10.864  10.870  0.00  0.00    +0.000 C 
ATOM     26  C   UNL     1      45.480  10.769  11.721  0.00  0.00    +0.000 C 
ENDBRANCH  22  23
ENDBRANCH  20  22
ENDBRANCH  15  16
ENDBRANCH  14  15
ENDBRANCH   5  14
TORSDOF 6
ENDMDL
MODEL 4
REMARK VINA RESULT:    -7.629      2.773      3.426
REMARK INTER + INTRA:         -11.149
REMARK INTER:                 -10.098
REMARK INTRA:                  -1.051
REMARK UNBOUND:                -0.844
REMARK  Name = 
REMARK  6 active torsions:
REMARK  status: ('A' for Active; 'I' for Inactive)
REMARK    1  A    between atoms: C_2  and  C_4
REMARK    2  A    between atoms: N_8  and  C_9
REMARK    3  A    between atoms: C_9  and  C_10
REMARK    4  A    between atoms: C_10  and  C_11
REMARK    5  A    between atoms: C_15  and  O_16
REMARK    6  A    between atoms: O_16  and  C_17
REMARK                            x       y       z     vdW  Elec       q    Type
REMARK                         _______ _______ _______ _____ _____    ______ ____
ROOT
ATOM      1  C   UNL     1      46.492   2.778   7.341  0.00  0.00    +0.000 A 
ATOM      2  C   UNL     1      46.003   3.946   7.916  0.00  0.00    +0.000 A 
ATOM      3  C   UNL     1      45.267   3.865   9.098  0.00  0.00    +0.000 A 
ATOM      4  C   UNL     1      45.015   2.622   9.675  0.00  0.00    +0.000 A 
ATOM      5  N   UNL     1      44.370   2.472  10.893  0.00  0.00    +0.000 N 
ATOM      6  N   UNL     1      45.454   1.482   9.107  0.00  0.00    +0.000 NA
ATOM      7  C   UNL     1      46.172   1.578   7.956  0.00  0.00    +0.000 A 
ATOM      8  H   UNL     1      44.186   1.476  11.009  0.00  0.00    +0.000 HD
ENDROOT
BRANCH   1  10
ATOM      9  N   UNL     1      48.668   2.551   6.291  0.00  0.00    +0.000 N 
ATOM     10  C   UNL     1      47.329   2.778   6.126  0.00  0.00    +0.000 C 
ATOM     11  O   UNL     1      46.842   2.932   5.012  0.00  0.00    +0.000 OA
ATOM     12  H   UNL     1      49.214   2.440   5.446  0.00  0.00    +0.000 HD
ATOM     13  H   UNL     1      49.051   2.170   7.145  0.00  0.00    +0.000 HD
ENDBRANCH   1  10
BRANCH   5  14
ATOM     14  C   UNL     1      43.273   3.370  11.222  0.00  0.00    +0.000 C 
BRANCH  14  15
ATOM     15  C   UNL     1      43.551   4.113  12.534  0.00  0.00    +0.000 C 
BRANCH  15  16
ATOM     16  C   UNL     1      44.156   5.472  12.271  0.00  0.00    +0.000 A 
ATOM     17  C   UNL     1      43.502   6.393  11.443  0.00  0.00    +0.000 A 
ATOM     18  C   UNL     1      44.031   7.671  11.253  0.00  0.00    +0.000 A 
ATOM     19  C   UNL     1      45.221   8.044  11.885  0.00  0.00    +0.000 A 
ATOM     20  C   UNL     1      45.883   7.134  12.703  0.00  0.00    +0.000 A 
ATOM     21  C   UNL     1      45.347   5.857  12.900  0.00  0.00    +0.000 A 
BRANCH  20  22
ATOM     22  O   UNL     1      47.035   7.400  13.399  0.00  0.00    +0.000 OA
BRANCH  22  23
ATOM     23  C   UNL     1      48.303   6.958  12.862  0.00  0.00    +0.000 C 
ATOM     24  C   UNL     1      49.580   7.450  13.582  0.00  0.00    +0.000 C 
ATOM     25  C   UNL     1      50.162   7.880  12.229  0.00  0.00    +0.000 C 
ATOM     26  C   UNL     1      48.763   7.753  11.615  0.00  0.00    +0.000 C 
ENDBRANCH  22  23
ENDBRANCH  20  22
ENDBRANCH  15  16
ENDBRANCH  14  15
ENDBRANCH   5  14
TORSDOF 6
ENDMDL
MODEL 5
REMARK VINA RESULT:    -7.520      2.873      5.117
REMARK INTER + INTRA:         -11.002
REMARK INTER:                 -10.494
REMARK INTRA:                  -0.508
REMARK UNBOUND:                -0.844
REMARK  Name = 
REMARK  6 active torsions:
REMARK  status: ('A' for Active; 'I' for Inactive)
REMARK    1  A    between atoms: C_2  and  C_4
REMARK    2  A    between atoms: N_8  and  C_9
REMARK    3  A    between atoms: C_9  and  C_10
REMARK    4  A    between atoms: C_10  and  C_11
REMARK    5  A    between atoms: C_15  and  O_16
REMARK    6  A    between atoms: O_16  and  C_17
REMARK                            x       y       z     vdW  Elec       q    Type
REMARK                         _______ _______ _______ _____ _____    ______ ____
ROOT
ATOM      1  C   UNL     1      46.253   2.042   7.960  0.00  0.00    +0.000 A 
ATOM      2  C   UNL     1      45.344   1.732   8.966  0.00  0.00    +0.000 A 
ATOM      3  C   UNL     1      44.571   2.752   9.522  0.00  0.00    +0.000 A 
ATOM      4  C   UNL     1      44.730   4.063   9.078  0.00  0.00    +0.000 A 
ATOM      5  N   UNL     1      43.935   5.111   9.518  0.00  0.00    +0.000 N 
ATOM      6  N   UNL     1      45.633   4.379   8.129  0.00  0.00    +0.000 NA
ATOM      7  C   UNL     1      46.377   3.374   7.596  0.00  0.00    +0.000 A 
ATOM      8  H   UNL     1      44.351   5.969   9.157  0.00  0.00    +0.000 HD
ENDROOT
BRANCH   1  10
ATOM      9  N   UNL     1      46.794  -0.290   7.571  0.00  0.00    +0.000 N 
ATOM     10  C   UNL     1      47.066   1.018   7.278  0.00  0.00    +0.000 C 
ATOM     11  O   UNL     1      47.921   1.322   6.454  0.00  0.00    +0.000 OA
ATOM     12  H   UNL     1      47.277  -0.987   7.017  0.00  0.00    +0.000 HD
ATOM     13  H   UNL     1      45.943  -0.575   8.035  0.00  0.00    +0.000 HD
ENDBRANCH   1  10
BRANCH   5  14
ATOM     14  C   UNL     1      43.517   5.136  10.912  0.00  0.00    +0.000 C 
BRANCH  14  15
ATOM     15  C   UNL     1      44.718   4.947  11.846  0.00  0.00    +0.000 C 
BRANCH  15  16
ATOM     16  C   UNL     1      45.295   6.279  12.264  0.00  0.00    +0.000 A 
ATOM     17  C   UNL     1      46.459   6.336  13.042  0.00  0.00    +0.000 A 
ATOM     18  C   UNL     1      47.026   7.569  13.373  0.00  0.00    +0.000 A 
ATOM     19  C   UNL     1      46.437   8.758  12.935  0.00  0.00    +0.000 A 
ATOM     20  C   UNL     1      45.276   8.713  12.169  0.00  0.00    +0.000 A 
ATOM     21  C   UNL     1      44.714   7.478  11.830  0.00  0.00    +0.000 A 
BRANCH  20  22
ATOM     22  O   UNL     1      44.633   9.811  11.656  0.00  0.00    +0.000 OA
BRANCH  22  23
ATOM     23  C   UNL     1      43.671   9.631  10.591  0.00  0.00    +0.000 C 
ATOM     24  C   UNL     1      43.747  10.620   9.404  0.00  0.00    +0.000 C 
ATOM     25  C   UNL     1      42.237  10.863   9.529  0.00  0.00    +0.000 C 
ATOM     26  C   UNL     1      42.270  10.204  10.912  0.00  0.00    +0.000 C 
ENDBRANCH  22  23
ENDBRANCH  20  22
ENDBRANCH  15  16
ENDBRANCH  14  15
ENDBRANCH   5  14
TORSDOF 6
ENDMDL
MODEL 6
REMARK VINA RESULT:    -7.268      3.275      7.912
REMARK INTER + INTRA:         -10.662
REMARK INTER:                  -9.794
REMARK INTRA:                  -0.868
REMARK UNBOUND:                -0.844
REMARK  Name = 
REMARK  6 active torsions:
REMARK  status: ('A' for Active; 'I' for Inactive)
REMARK    1  A    between atoms: C_2  and  C_4
REMARK    2  A    between atoms: N_8  and  C_9
REMARK    3  A    between atoms: C_9  and  C_10
REMARK    4  A    between atoms: C_10  and  C_11
REMARK    5  A    between atoms: C_15  and  O_16
REMARK    6  A    between atoms: O_16  and  C_17
REMARK                            x       y       z     vdW  Elec       q    Type
REMARK                         _______ _______ _______ _____ _____    ______ ____
ROOT
ATOM      1  C   UNL     1      48.361   4.029  16.642  0.00  0.00    +0.000 A 
ATOM      2  C   UNL     1      47.418   3.572  15.729  0.00  0.00    +0.000 A 
ATOM      3  C   UNL     1      47.012   4.414  14.692  0.00  0.00    +0.000 A 
ATOM      4  C   UNL     1      47.539   5.700  14.597  0.00  0.00    +0.000 A 
ATOM      5  N   UNL     1      47.253   6.558  13.546  0.00  0.00    +0.000 N 
ATOM      6  N   UNL     1      48.428   6.164  15.498  0.00  0.00    +0.000 NA
ATOM      7  C   UNL     1      48.814   5.331  16.501  0.00  0.00    +0.000 A 
ATOM      8  H   UNL     1      47.640   7.467  13.793  0.00  0.00    +0.000 HD
ENDROOT
BRANCH   1  10
ATOM      9  N   UNL     1      48.249   3.255  18.939  0.00  0.00    +0.000 N 
ATOM     10  C   UNL     1      48.888   3.185  17.732  0.00  0.00    +0.000 C 
ATOM     11  O   UNL     1      49.832   2.424  17.555  0.00  0.00    +0.000 OA
ATOM     12  H   UNL     1      48.544   2.592  19.645  0.00  0.00    +0.000 HD
ATOM     13  H   UNL     1      47.331   3.665  19.042  0.00  0.00    +0.000 HD
ENDBRANCH   1  10
BRANCH   5  14
ATOM     14  C   UNL     1      45.907   6.562  12.991  0.00  0.00    +0.000 C 
BRANCH  14  15
ATOM     15  C   UNL     1      45.949   6.528  11.459  0.00  0.00    +0.000 C 
BRANCH  15  16
ATOM     16  C   UNL     1      45.382   5.232  10.929  0.00  0.00    +0.000 A 
ATOM     17  C   UNL     1      44.602   4.408  11.751  0.00  0.00    +0.000 A 
ATOM     18  C   UNL     1      44.027   3.243  11.240  0.00  0.00    +0.000 A 
ATOM     19  C   UNL     1      44.226   2.884   9.904  0.00  0.00    +0.000 A 
ATOM     20  C   UNL     1      45.006   3.691   9.081  0.00  0.00    +0.000 A 
ATOM     21  C   UNL     1      45.573   4.862   9.591  0.00  0.00    +0.000 A 
BRANCH  20  22
ATOM     22  O   UNL     1      45.239   3.457   7.749  0.00  0.00    +0.000 OA
BRANCH  22  23
ATOM     23  C   UNL     1      46.602   3.314   7.286  0.00  0.00    +0.000 C 
ATOM     24  C   UNL     1      46.813   3.177   5.760  0.00  0.00    +0.000 C 
ATOM     25  C   UNL     1      47.705   1.953   6.008  0.00  0.00    +0.000 C 
ATOM     26  C   UNL     1      47.167   1.882   7.441  0.00  0.00    +0.000 C 
ENDBRANCH  22  23
ENDBRANCH  20  22
ENDBRANCH  15  16
ENDBRANCH  14  15
ENDBRANCH   5  14
TORSDOF 6
ENDMDL
MODEL 7
REMARK VINA RESULT:    -7.182      2.587      3.018
REMARK INTER + INTRA:         -10.545
REMARK INTER:                 -10.014
REMARK INTRA:                  -0.531
REMARK UNBOUND:                -0.844
REMARK  Name = 
REMARK  6 active torsions:
REMARK  status: ('A' for Active; 'I' for Inactive)
REMARK    1  A    between atoms: C_2  and  C_4
REMARK    2  A    between atoms: N_8  and  C_9
REMARK    3  A    between atoms: C_9  and  C_10
REMARK    4  A    between atoms: C_10  and  C_11
REMARK    5  A    between atoms: C_15  and  O_16
REMARK    6  A    between atoms: O_16  and  C_17
REMARK                            x       y       z     vdW  Elec       q    Type
REMARK                         _______ _______ _______ _____ _____    ______ ____
ROOT
ATOM      1  C   UNL     1      46.265   2.018   7.964  0.00  0.00    +0.000 A 
ATOM      2  C   UNL     1      45.430   1.703   9.030  0.00  0.00    +0.000 A 
ATOM      3  C   UNL     1      44.635   2.705   9.590  0.00  0.00    +0.000 A 
ATOM      4  C   UNL     1      44.701   4.003   9.089  0.00  0.00    +0.000 A 
ATOM      5  N   UNL     1      43.877   5.026   9.533  0.00  0.00    +0.000 N 
ATOM      6  N   UNL     1      45.533   4.325   8.079  0.00  0.00    +0.000 NA
ATOM      7  C   UNL     1      46.299   3.338   7.543  0.00  0.00    +0.000 A 
ATOM      8  H   UNL     1      44.228   5.889   9.118  0.00  0.00    +0.000 HD
ENDROOT
BRANCH   1  10
ATOM      9  N   UNL     1      46.853  -0.304   7.577  0.00  0.00    +0.000 N 
ATOM     10  C   UNL     1      47.093   1.009   7.276  0.00  0.00    +0.000 C 
ATOM     11  O   UNL     1      47.931   1.328   6.442  0.00  0.00    +0.000 OA
ATOM     12  H   UNL     1      47.345  -0.992   7.020  0.00  0.00    +0.000 HD
ATOM     13  H   UNL     1      46.014  -0.606   8.052  0.00  0.00    +0.000 HD
ENDBRANCH   1  10
BRANCH   5  14
ATOM     14  C   UNL     1      43.534   5.087  10.946  0.00  0.00    +0.000 C 
BRANCH  14  15
ATOM     15  C   UNL     1      44.791   5.264  11.806  0.00  0.00    +0.000 C 
BRANCH  15  16
ATOM     16  C   UNL     1      45.144   6.725  11.957  0.00  0.00    +0.000 A 
ATOM     17  C   UNL     1      44.321   7.716  11.406  0.00  0.00    +0.000 A 
ATOM     18  C   UNL     1      44.615   9.067  11.603  0.00  0.00    +0.000 A 
ATOM     19  C   UNL     1      45.735   9.445  12.348  0.00  0.00    +0.000 A 
ATOM     20  C   UNL     1      46.564   8.469  12.893  0.00  0.00    +0.000 A 
ATOM     21  C   UNL     1      46.263   7.116  12.704  0.00  0.00    +0.000 A 
BRANCH  20  22
ATOM     22  O   UNL     1      47.666   8.722  13.670  0.00  0.00    +0.000 OA
BRANCH  22  23
ATOM     23  C   UNL     1      48.308   7.626  14.362  0.00  0.00    +0.000 C 
ATOM     24  C   UNL     1      48.769   7.888  15.815  0.00  0.00    +0.000 C 
ATOM     25  C   UNL     1      50.148   7.313  15.467  0.00  0.00    +0.000 C 
ATOM     26  C   UNL     1      49.796   7.434  13.980  0.00  0.00    +0.000 C 
ENDBRANCH  22  23
ENDBRANCH  20  22
ENDBRANCH  15  16
ENDBRANCH  14  15
ENDBRANCH   5  14
TORSDOF 6
ENDMDL
MODEL 8
REMARK VINA RESULT:    -6.577      4.100      8.761
REMARK INTER + INTRA:          -9.728
REMARK INTER:                  -9.313
REMARK INTRA:                  -0.415
REMARK UNBOUND:                -0.844
REMARK  Name = 
REMARK  6 active torsions:
REMARK  status: ('A' for Active; 'I' for Inactive)
REMARK    1  A    between atoms: C_2  and  C_4
REMARK    2  A    between atoms: N_8  and  C_9
REMARK    3  A    between atoms: C_9  and  C_10
REMARK    4  A    between atoms: C_10  and  C_11
REMARK    5  A    between atoms: C_15  and  O_16
REMARK    6  A    between atoms: O_16  and  C_17
REMARK                            x       y       z     vdW  Elec       q    Type
REMARK                         _______ _______ _______ _____ _____    ______ ____
ROOT
ATOM      1  C   UNL     1      48.770   4.775  18.851  0.00  0.00    +0.000 A 
ATOM      2  C   UNL     1      48.180   3.786  18.072  0.00  0.00    +0.000 A 
ATOM      3  C   UNL     1      47.846   4.073  16.747  0.00  0.00    +0.000 A 
ATOM      4  C   UNL     1      48.089   5.343  16.230  0.00  0.00    +0.000 A 
ATOM      5  N   UNL     1      47.868   5.673  14.902  0.00  0.00    +0.000 N 
ATOM      6  N   UNL     1      48.628   6.319  16.988  0.00  0.00    +0.000 NA
ATOM      7  C   UNL     1      48.950   6.023  18.276  0.00  0.00    +0.000 A 
ATOM      8  H   UNL     1      47.982   6.683  14.825  0.00  0.00    +0.000 HD
ENDROOT
BRANCH   1  10
ATOM      9  N   UNL     1      50.531   4.746  20.520  0.00  0.00    +0.000 N 
ATOM     10  C   UNL     1      49.208   4.540  20.240  0.00  0.00    +0.000 C 
ATOM     11  O   UNL     1      48.415   4.214  21.115  0.00  0.00    +0.000 OA
ATOM     12  H   UNL     1      50.800   4.693  21.494  0.00  0.00    +0.000 HD
ATOM     13  H   UNL     1      51.143   5.254  19.896  0.00  0.00    +0.000 HD
ENDBRANCH   1  10
BRANCH   5  14
ATOM     14  C   UNL     1      46.714   5.104  14.221  0.00  0.00    +0.000 C 
BRANCH  14  15
ATOM     15  C   UNL     1      46.119   6.106  13.226  0.00  0.00    +0.000 C 
BRANCH  15  16
ATOM     16  C   UNL     1      45.289   5.403  12.178  0.00  0.00    +0.000 A 
ATOM     17  C   UNL     1      44.034   4.873  12.502  0.00  0.00    +0.000 A 
ATOM     18  C   UNL     1      43.242   4.280  11.517  0.00  0.00    +0.000 A 
ATOM     19  C   UNL     1      43.694   4.207  10.197  0.00  0.00    +0.000 A 
ATOM     20  C   UNL     1      44.943   4.723   9.865  0.00  0.00    +0.000 A 
ATOM     21  C   UNL     1      45.731   5.325  10.850  0.00  0.00    +0.000 A 
BRANCH  20  22
ATOM     22  O   UNL     1      45.472   4.738   8.599  0.00  0.00    +0.000 OA
BRANCH  22  23
ATOM     23  C   UNL     1      45.462   3.523   7.815  0.00  0.00    +0.000 C 
ATOM     24  C   UNL     1      45.687   2.196   8.576  0.00  0.00    +0.000 C 
ATOM     25  C   UNL     1      46.754   1.802   7.546  0.00  0.00    +0.000 C 
ATOM     26  C   UNL     1      46.787   3.255   7.061  0.00  0.00    +0.000 C 
ENDBRANCH  22  23
ENDBRANCH  20  22
ENDBRANCH  15  16
ENDBRANCH  14  15
ENDBRANCH   5  14
TORSDOF 6
ENDMDL
MODEL 9
REMARK VINA RESULT:    -6.136      4.160      7.587
REMARK INTER + INTRA:          -9.132
REMARK INTER:                  -8.417
REMARK INTRA:                  -0.715
REMARK UNBOUND:                -0.844
REMARK  Name = 
REMARK  6 active torsions:
REMARK  status: ('A' for Active; 'I' for Inactive)
REMARK    1  A    between atoms: C_2  and  C_4
REMARK    2  A    between atoms: N_8  and  C_9
REMARK    3  A    between atoms: C_9  and  C_10
REMARK    4  A    between atoms: C_10  and  C_11
REMARK    5  A    between atoms: C_15  and  O_16
REMARK    6  A    between atoms: O_16  and  C_17
REMARK                            x       y       z     vdW  Elec       q    Type
REMARK                         _______ _______ _______ _____ _____    ______ ____
ROOT
ATOM      1  C   UNL     1      51.064   8.523  12.109  0.00  0.00    +0.000 A 
ATOM      2  C   UNL     1      50.217   7.748  11.325  0.00  0.00    +0.000 A 
ATOM      3  C   UNL     1      48.872   7.638  11.682  0.00  0.00    +0.000 A 
ATOM      4  C   UNL     1      48.402   8.286  12.822  0.00  0.00    +0.000 A 
ATOM      5  N   UNL     1      47.065   8.297  13.187  0.00  0.00    +0.000 N 
ATOM      6  N   UNL     1      49.223   9.011  13.608  0.00  0.00    +0.000 NA
ATOM      7  C   UNL     1      50.530   9.110  13.245  0.00  0.00    +0.000 A 
ATOM      8  H   UNL     1      47.016   8.706  14.119  0.00  0.00    +0.000 HD
ENDROOT
BRANCH   1  10
ATOM      9  N   UNL     1      53.414   8.233  12.637  0.00  0.00    +0.000 N 
ATOM     10  C   UNL     1      52.484   8.741  11.772  0.00  0.00    +0.000 C 
ATOM     11  O   UNL     1      52.818   9.314  10.742  0.00  0.00    +0.000 OA
ATOM     12  H   UNL     1      54.382   8.286  12.342  0.00  0.00    +0.000 HD
ATOM     13  H   UNL     1      53.181   7.545  13.340  0.00  0.00    +0.000 HD
ENDBRANCH   1  10
BRANCH   5  14
ATOM     14  C   UNL     1      46.268   7.098  12.969  0.00  0.00    +0.000 C 
BRANCH  14  15
ATOM     15  C   UNL     1      45.201   7.339  11.896  0.00  0.00    +0.000 C 
BRANCH  15  16
ATOM     16  C   UNL     1      44.906   6.072  11.129  0.00  0.00    +0.000 A 
ATOM     17  C   UNL     1      43.852   5.235  11.518  0.00  0.00    +0.000 A 
ATOM     18  C   UNL     1      43.540   4.098  10.770  0.00  0.00    +0.000 A 
ATOM     19  C   UNL     1      44.280   3.780   9.627  0.00  0.00    +0.000 A 
ATOM     20  C   UNL     1      45.334   4.599   9.237  0.00  0.00    +0.000 A 
ATOM     21  C   UNL     1      45.639   5.743   9.981  0.00  0.00    +0.000 A 
BRANCH  20  22
ATOM     22  O   UNL     1      46.103   4.406   8.117  0.00  0.00    +0.000 OA
BRANCH  22  23
ATOM     23  C   UNL     1      45.913   3.208   7.329  0.00  0.00    +0.000 C 
ATOM     24  C   UNL     1      46.709   1.953   7.758  0.00  0.00    +0.000 C 
ATOM     25  C   UNL     1      47.174   1.769   6.307  0.00  0.00    +0.000 C 
ATOM     26  C   UNL     1      46.714   3.199   6.004  0.00  0.00    +0.000 C 
ENDBRANCH  22  23
ENDBRANCH  20  22
ENDBRANCH  15  16
ENDBRANCH  14  15
ENDBRANCH   5  14
TORSDOF 6
ENDMDL
