MODEL 1
REMARK VINA RESULT:    -7.732      0.000      0.000
REMARK INTER + INTRA:          -9.568
REMARK INTER:                  -9.314
REMARK INTRA:                  -0.255
REMARK UNBOUND:                -0.255
REMARK  Name = 
REMARK  4 active torsions:
REMARK  status: ('A' for Active; 'I' for Inactive)
REMARK    1  A    between atoms: N_1  and  C_2
REMARK    2  A    between atoms: C_2  and  C_3
REMARK    3  A    between atoms: C_6  and  C_7
REMARK    4  A    between atoms: C_7  and  N_8
REMARK                            x       y       z     vdW  Elec       q    Type
REMARK                         _______ _______ _______ _____ _____    ______ ____
ROOT
ATOM      1  C   UNL     1      43.904   4.650   9.892  0.00  0.00    +0.000 C 
ENDROOT
BRANCH   1   2
ATOM      2  N   UNL     1      44.565   4.541  11.180  0.00  0.00    +0.000 N 
ATOM      3  N   UNL     1      44.150   3.587  12.041  0.00  0.00    +0.000 NA
ATOM      4  C   UNL     1      45.037   3.653  13.035  0.00  0.00    +0.000 A 
ATOM      5  C   UNL     1      45.992   4.672  12.846  0.00  0.00    +0.000 A 
ATOM      6  C   UNL     1      47.113   5.140  13.548  0.00  0.00    +0.000 A 
ATOM      7  C   UNL     1      47.818   6.222  13.024  0.00  0.00    +0.000 A 
ATOM      8  F   UNL     1      48.915   6.656  13.660  0.00  0.00    +0.000 F 
ATOM      9  C   UNL     1      47.414   6.861  11.855  0.00  0.00    +0.000 A 
ATOM     10  C   UNL     1      46.297   6.409  11.143  0.00  0.00    +0.000 A 
ATOM     11  C   UNL     1      45.621   5.289  11.650  0.00  0.00    +0.000 A 
ENDBRANCH   1   2
BRANCH   1  15
ATOM     12  C   UNL     1      46.863   2.174   7.805  0.00  0.00    +0.000 C 
ATOM     13  C   UNL     1      45.629   1.488   8.408  0.00  0.00    +0.000 C 
ATOM     14  C   UNL     1      44.900   2.401   9.392  0.00  0.00    +0.000 C 
ATOM     15  C   UNL     1      44.505   3.758   8.782  0.00  0.00    +0.000 C 
ATOM     16  C   UNL     1      45.713   4.415   8.088  0.00  0.00    +0.000 C 
ATOM     17  C   UNL     1      46.431   3.477   7.117  0.00  0.00    +0.000 C 
BRANCH  12  18
ATOM     18  C   UNL     1      47.591   1.208   6.853  0.00  0.00    +0.000 C 
BRANCH  18  19
ATOM     19  N   UNL     1      48.391   1.911   5.855  0.00  0.00    +0.000 NA
ATOM     20  H   UNL     1      48.215   1.511   4.934  0.00  0.00    +0.000 HD
ATOM     21  H   UNL     1      49.382   1.772   6.044  0.00  0.00    +0.000 HD
ENDBRANCH  18  19
ENDBRANCH  12  18
ENDBRANCH   1  15
TORSDOF 4
ENDMDL
MODEL 2
REMARK VINA RESULT:    -7.542      1.585      2.088
REMARK INTER + INTRA:          -9.340
REMARK INTER:                  -8.876
REMARK INTRA:                  -0.464
REMARK UNBOUND:                -0.255
REMARK  Name = 
REMARK  4 active torsions:
REMARK  status: ('A' for Active; 'I' for Inactive)
REMARK    1  A    between atoms: N_1  and  C_2
REMARK    2  A    between atoms: C_2  and  C_3
REMARK    3  A    between atoms: C_6  and  C_7
REMARK    4  A    between atoms: C_7  and  N_8
REMARK                            x       y       z     vdW  Elec       q    Type
REMARK                         _______ _______ _______ _____ _____    ______ ____
ROOT
ATOM      1  C   UNL     1      44.575   3.298  10.488  0.00  0.00    +0.000 C 
ENDROOT
BRANCH   1   2
ATOM      2  N   UNL     1      45.003   4.055  11.651  0.00  0.00    +0.000 N 
ATOM      3  N   UNL     1      45.475   3.382  12.722  0.00  0.00    +0.000 NA
ATOM      4  C   UNL     1      45.912   4.347  13.532  0.00  0.00    +0.000 A 
ATOM      5  C   UNL     1      45.683   5.638  13.015  0.00  0.00    +0.000 A 
ATOM      6  C   UNL     1      45.954   6.949  13.433  0.00  0.00    +0.000 A 
ATOM      7  C   UNL     1      45.540   8.002  12.619  0.00  0.00    +0.000 A 
ATOM      8  F   UNL     1      45.825   9.260  12.983  0.00  0.00    +0.000 F 
ATOM      9  C   UNL     1      44.839   7.781  11.437  0.00  0.00    +0.000 A 
ATOM     10  C   UNL     1      44.559   6.479  11.005  0.00  0.00    +0.000 A 
ATOM     11  C   UNL     1      45.022   5.423  11.804  0.00  0.00    +0.000 A 
ENDBRANCH   1   2
BRANCH   1  15
ATOM     12  C   UNL     1      46.366   2.650   6.536  0.00  0.00    +0.000 C 
ATOM     13  C   UNL     1      46.592   4.001   7.230  0.00  0.00    +0.000 C 
ATOM     14  C   UNL     1      45.629   4.204   8.397  0.00  0.00    +0.000 C 
ATOM     15  C   UNL     1      45.679   3.064   9.431  0.00  0.00    +0.000 C 
ATOM     16  C   UNL     1      45.550   1.695   8.738  0.00  0.00    +0.000 C 
ATOM     17  C   UNL     1      46.518   1.522   7.566  0.00  0.00    +0.000 C 
BRANCH  12  18
ATOM     18  C   UNL     1      47.327   2.503   5.342  0.00  0.00    +0.000 C 
BRANCH  18  19
ATOM     19  N   UNL     1      48.562   1.817   5.707  0.00  0.00    +0.000 NA
ATOM     20  H   UNL     1      49.295   2.056   5.040  0.00  0.00    +0.000 HD
ATOM     21  H   UNL     1      48.432   0.808   5.640  0.00  0.00    +0.000 HD
ENDBRANCH  18  19
ENDBRANCH  12  18
ENDBRANCH   1  15
TORSDOF 4
ENDMDL
MODEL 3
REMARK VINA RESULT:    -7.199      1.492      2.190
REMARK INTER + INTRA:          -8.927
REMARK INTER:                  -8.672
REMARK INTRA:                  -0.255
REMARK UNBOUND:                -0.255
REMARK  Name = 
REMARK  4 active torsions:
REMARK  status: ('A' for Active; 'I' for Inactive)
REMARK    1  A    between atoms: N_1  and  C_2
REMARK    2  A    between atoms: C_2  and  C_3
REMARK    3  A    between atoms: C_6  and  C_7
REMARK    4  A    between atoms: C_7  and  N_8
REMARK                            x       y       z     vdW  Elec       q    Type
REMARK                         _______ _______ _______ _____ _____    ______ ____
ROOT
ATOM      1  C   UNL     1      44.179   3.529  10.535  0.00  0.00    +0.000 C 
ENDROOT
BRANCH   1   2
ATOM      2  N   UNL     1      44.080   4.914  10.957  0.00  0.00    +0.000 N 
ATOM      3  N   UNL     1      42.923   5.575  10.740  0.00  0.00    +0.000 NA
ATOM      4  C   UNL     1      43.103   6.739  11.364  0.00  0.00    +0.000 A 
ATOM      5  C   UNL     1      44.384   6.855  11.943  0.00  0.00    +0.000 A 
ATOM      6  C   UNL     1      45.059   7.823  12.701  0.00  0.00    +0.000 A 
ATOM      7  C   UNL     1      46.373   7.564  13.086  0.00  0.00    +0.000 A 
ATOM      8  F   UNL     1      47.019   8.459  13.845  0.00  0.00    +0.000 F 
ATOM      9  C   UNL     1      47.030   6.397  12.705  0.00  0.00    +0.000 A 
ATOM     10  C   UNL     1      46.372   5.422  11.947  0.00  0.00    +0.000 A 
ATOM     11  C   UNL     1      45.034   5.667  11.604  0.00  0.00    +0.000 A 
ENDBRANCH   1   2
BRANCH   1  15
ATOM     12  C   UNL     1      46.358   2.658   6.828  0.00  0.00    +0.000 C 
ATOM     13  C   UNL     1      46.546   4.035   7.482  0.00  0.00    +0.000 C 
ATOM     14  C   UNL     1      45.471   4.313   8.531  0.00  0.00    +0.000 C 
ATOM     15  C   UNL     1      45.381   3.221   9.613  0.00  0.00    +0.000 C 
ATOM     16  C   UNL     1      45.289   1.825   8.971  0.00  0.00    +0.000 C 
ATOM     17  C   UNL     1      46.370   1.576   7.917  0.00  0.00    +0.000 C 
BRANCH  12  18
ATOM     18  C   UNL     1      47.435   2.435   5.751  0.00  0.00    +0.000 C 
BRANCH  18  19
ATOM     19  N   UNL     1      48.787   2.535   6.291  0.00  0.00    +0.000 NA
ATOM     20  H   UNL     1      49.309   1.691   6.061  0.00  0.00    +0.000 HD
ATOM     21  H   UNL     1      48.752   2.582   7.308  0.00  0.00    +0.000 HD
ENDBRANCH  18  19
ENDBRANCH  12  18
ENDBRANCH   1  15
TORSDOF 4
ENDMDL
MODEL 4
REMARK VINA RESULT:    -6.954      2.766      6.016
REMARK INTER + INTRA:          -8.632
REMARK INTER:                  -8.299
REMARK INTRA:                  -0.332
REMARK UNBOUND:                -0.255
REMARK  Name = 
REMARK  4 active torsions:
REMARK  status: ('A' for Active; 'I' for Inactive)
REMARK    1  A    between atoms: N_1  and  C_2
REMARK    2  A    between atoms: C_2  and  C_3
REMARK    3  A    between atoms: C_6  and  C_7
REMARK    4  A    between atoms: C_7  and  N_8
REMARK                            x       y       z     vdW  Elec       q    Type
REMARK                         _______ _______ _______ _____ _____    ______ ____
ROOT
ATOM      1  C   UNL     1      43.444   5.540  10.855  0.00  0.00    +0.000 C 
ENDROOT
BRANCH   1   2
ATOM      2  N   UNL     1      43.922   4.222  10.482  0.00  0.00    +0.000 N 
ATOM      3  N   UNL     1      43.423   3.146  11.128  0.00  0.00    +0.000 NA
ATOM      4  C   UNL     1      43.939   2.112  10.463  0.00  0.00    +0.000 A 
ATOM      5  C   UNL     1      44.805   2.509   9.423  0.00  0.00    +0.000 A 
ATOM      6  C   UNL     1      45.563   1.853   8.442  0.00  0.00    +0.000 A 
ATOM      7  C   UNL     1      46.332   2.626   7.574  0.00  0.00    +0.000 A 
ATOM      8  F   UNL     1      47.032   2.018   6.606  0.00  0.00    +0.000 F 
ATOM      9  C   UNL     1      46.390   4.012   7.685  0.00  0.00    +0.000 A 
ATOM     10  C   UNL     1      45.641   4.683   8.658  0.00  0.00    +0.000 A 
ATOM     11  C   UNL     1      44.831   3.903   9.498  0.00  0.00    +0.000 A 
ENDBRANCH   1   2
BRANCH   1  15
ATOM     12  C   UNL     1      46.898   7.571  12.642  0.00  0.00    +0.000 C 
ATOM     13  C   UNL     1      45.634   8.393  12.352  0.00  0.00    +0.000 C 
ATOM     14  C   UNL     1      44.680   7.652  11.418  0.00  0.00    +0.000 C 
ATOM     15  C   UNL     1      44.294   6.253  11.932  0.00  0.00    +0.000 C 
ATOM     16  C   UNL     1      45.549   5.449  12.319  0.00  0.00    +0.000 C 
ATOM     17  C   UNL     1      46.493   6.219  13.245  0.00  0.00    +0.000 C 
BRANCH  12  18
ATOM     18  C   UNL     1      47.850   8.370  13.550  0.00  0.00    +0.000 C 
BRANCH  18  19
ATOM     19  N   UNL     1      47.181   8.873  14.746  0.00  0.00    +0.000 NA
ATOM     20  H   UNL     1      46.322   9.352  14.480  0.00  0.00    +0.000 HD
ATOM     21  H   UNL     1      47.767   9.569  15.205  0.00  0.00    +0.000 HD
ENDBRANCH  18  19
ENDBRANCH  12  18
ENDBRANCH   1  15
TORSDOF 4
ENDMDL
MODEL 5
REMARK VINA RESULT:    -6.899      2.944      5.736
REMARK INTER + INTRA:          -8.565
REMARK INTER:                  -8.176
REMARK INTRA:                  -0.389
REMARK UNBOUND:                -0.255
REMARK  Name = 
REMARK  4 active torsions:
REMARK  status: ('A' for Active; 'I' for Inactive)
REMARK    1  A    between atoms: N_1  and  C_2
REMARK    2  A    between atoms: C_2  and  C_3
REMARK    3  A    between atoms: C_6  and  C_7
REMARK    4  A    between atoms: C_7  and  N_8
REMARK                            x       y       z     vdW  Elec       q    Type
REMARK                         _______ _______ _______ _____ _____    ______ ____
ROOT
ATOM      1  C   UNL     1      43.820   5.876  12.276  0.00  0.00    +0.000 C 
ENDROOT
BRANCH   1   2
ATOM      2  N   UNL     1      43.957   4.572  11.653  0.00  0.00    +0.000 N 
ATOM      3  N   UNL     1      43.386   3.506  12.252  0.00  0.00    +0.000 NA
ATOM      4  C   UNL     1      43.561   2.519  11.372  0.00  0.00    +0.000 A 
ATOM      5  C   UNL     1      44.280   2.927  10.231  0.00  0.00    +0.000 A 
ATOM      6  C   UNL     1      44.704   2.318   9.040  0.00  0.00    +0.000 A 
ATOM      7  C   UNL     1      45.434   3.081   8.131  0.00  0.00    +0.000 A 
ATOM      8  F   UNL     1      45.813   2.527   6.971  0.00  0.00    +0.000 F 
ATOM      9  C   UNL     1      45.779   4.403   8.396  0.00  0.00    +0.000 A 
ATOM     10  C   UNL     1      45.366   5.026   9.579  0.00  0.00    +0.000 A 
ATOM     11  C   UNL     1      44.589   4.268  10.468  0.00  0.00    +0.000 A 
ENDBRANCH   1   2
BRANCH   1  15
ATOM     12  C   UNL     1      48.081   6.851  12.650  0.00  0.00    +0.000 C 
ATOM     13  C   UNL     1      47.083   7.998  12.435  0.00  0.00    +0.000 C 
ATOM     14  C   UNL     1      45.723   7.484  11.968  0.00  0.00    +0.000 C 
ATOM     15  C   UNL     1      45.118   6.426  12.909  0.00  0.00    +0.000 C 
ATOM     16  C   UNL     1      46.142   5.317  13.212  0.00  0.00    +0.000 C 
ATOM     17  C   UNL     1      47.498   5.859  13.667  0.00  0.00    +0.000 C 
BRANCH  12  18
ATOM     18  C   UNL     1      49.448   7.415  13.080  0.00  0.00    +0.000 C 
BRANCH  18  19
ATOM     19  N   UNL     1      49.857   6.931  14.395  0.00  0.00    +0.000 NA
ATOM     20  H   UNL     1      49.396   7.480  15.118  0.00  0.00    +0.000 HD
ATOM     21  H   UNL     1      50.858   7.074  14.521  0.00  0.00    +0.000 HD
ENDBRANCH  18  19
ENDBRANCH  12  18
ENDBRANCH   1  15
TORSDOF 4
ENDMDL
MODEL 6
REMARK VINA RESULT:    -6.062      3.280      6.140
REMARK INTER + INTRA:          -7.557
REMARK INTER:                  -7.181
REMARK INTRA:                  -0.376
REMARK UNBOUND:                -0.255
REMARK  Name = 
REMARK  4 active torsions:
REMARK  status: ('A' for Active; 'I' for Inactive)
REMARK    1  A    between atoms: N_1  and  C_2
REMARK    2  A    between atoms: C_2  and  C_3
REMARK    3  A    between atoms: C_6  and  C_7
REMARK    4  A    between atoms: C_7  and  N_8
REMARK                            x       y       z     vdW  Elec       q    Type
REMARK                         _______ _______ _______ _____ _____    ______ ____
ROOT
ATOM      1  C   UNL     1      45.164   7.498  12.007  0.00  0.00    +0.000 C 
ENDROOT
BRANCH   1   2
ATOM      2  N   UNL     1      44.725   6.116  12.061  0.00  0.00    +0.000 N 
ATOM      3  N   UNL     1      44.124   5.671  13.185  0.00  0.00    +0.000 NA
ATOM      4  C   UNL     1      43.719   4.443  12.860  0.00  0.00    +0.000 A 
ATOM      5  C   UNL     1      44.094   4.072  11.553  0.00  0.00    +0.000 A 
ATOM      6  C   UNL     1      43.910   2.947  10.737  0.00  0.00    +0.000 A 
ATOM      7  C   UNL     1      44.469   2.956   9.460  0.00  0.00    +0.000 A 
ATOM      8  F   UNL     1      44.270   1.906   8.652  0.00  0.00    +0.000 F 
ATOM      9  C   UNL     1      45.227   4.030   9.002  0.00  0.00    +0.000 A 
ATOM     10  C   UNL     1      45.421   5.161   9.803  0.00  0.00    +0.000 A 
ATOM     11  C   UNL     1      44.815   5.166  11.069  0.00  0.00    +0.000 A 
ENDBRANCH   1   2
BRANCH   1  15
ATOM     12  C   UNL     1      49.475   8.265  12.292  0.00  0.00    +0.000 C 
ATOM     13  C   UNL     1      48.504   9.403  12.639  0.00  0.00    +0.000 C 
ATOM     14  C   UNL     1      47.087   9.106  12.151  0.00  0.00    +0.000 C 
ATOM     15  C   UNL     1      46.537   7.764  12.668  0.00  0.00    +0.000 C 
ATOM     16  C   UNL     1      47.543   6.627  12.414  0.00  0.00    +0.000 C 
ATOM     17  C   UNL     1      48.956   6.955  12.902  0.00  0.00    +0.000 C 
BRANCH  12  18
ATOM     18  C   UNL     1      50.896   8.623  12.764  0.00  0.00    +0.000 C 
BRANCH  18  19
ATOM     19  N   UNL     1      51.350   7.764  13.853  0.00  0.00    +0.000 NA
ATOM     20  H   UNL     1      52.363   7.832  13.941  0.00  0.00    +0.000 HD
ATOM     21  H   UNL     1      51.146   6.789  13.635  0.00  0.00    +0.000 HD
ENDBRANCH  18  19
ENDBRANCH  12  18
ENDBRANCH   1  15
TORSDOF 4
ENDMDL
MODEL 7
REMARK VINA RESULT:    -5.905      4.481      7.535
REMARK INTER + INTRA:          -7.368
REMARK INTER:                  -6.927
REMARK INTRA:                  -0.441
REMARK UNBOUND:                -0.255
REMARK  Name = 
REMARK  4 active torsions:
REMARK  status: ('A' for Active; 'I' for Inactive)
REMARK    1  A    between atoms: N_1  and  C_2
REMARK    2  A    between atoms: C_2  and  C_3
REMARK    3  A    between atoms: C_6  and  C_7
REMARK    4  A    between atoms: C_7  and  N_8
REMARK                            x       y       z     vdW  Elec       q    Type
REMARK                         _______ _______ _______ _____ _____    ______ ____
ROOT
ATOM      1  C   UNL     1      47.320   3.918  14.370  0.00  0.00    +0.000 C 
ENDROOT
BRANCH   1   2
ATOM      2  N   UNL     1      46.305   4.693  13.680  0.00  0.00    +0.000 N 
ATOM      3  N   UNL     1      45.058   4.187  13.585  0.00  0.00    +0.000 NA
ATOM      4  C   UNL     1      44.354   5.183  13.046  0.00  0.00    +0.000 A 
ATOM      5  C   UNL     1      45.145   6.311  12.748  0.00  0.00    +0.000 A 
ATOM      6  C   UNL     1      44.914   7.587  12.213  0.00  0.00    +0.000 A 
ATOM      7  C   UNL     1      46.001   8.445  12.053  0.00  0.00    +0.000 A 
ATOM      8  F   UNL     1      45.793   9.681  11.581  0.00  0.00    +0.000 F 
ATOM      9  C   UNL     1      47.297   8.050  12.375  0.00  0.00    +0.000 A 
ATOM     10  C   UNL     1      47.546   6.781  12.909  0.00  0.00    +0.000 A 
ATOM     11  C   UNL     1      46.441   5.940  13.112  0.00  0.00    +0.000 A 
ENDBRANCH   1   2
BRANCH   1  15
ATOM     12  C   UNL     1      49.023   4.410  18.383  0.00  0.00    +0.000 C 
ATOM     13  C   UNL     1      48.361   5.624  17.714  0.00  0.00    +0.000 C 
ATOM     14  C   UNL     1      48.151   5.399  16.218  0.00  0.00    +0.000 C 
ATOM     15  C   UNL     1      47.354   4.121  15.903  0.00  0.00    +0.000 C 
ATOM     16  C   UNL     1      47.949   2.910  16.644  0.00  0.00    +0.000 C 
ATOM     17  C   UNL     1      48.159   3.165  18.138  0.00  0.00    +0.000 C 
BRANCH  12  18
ATOM     18  C   UNL     1      49.254   4.693  19.879  0.00  0.00    +0.000 C 
BRANCH  18  19
ATOM     19  N   UNL     1      48.437   3.841  20.736  0.00  0.00    +0.000 NA
ATOM     20  H   UNL     1      47.826   3.264  20.160  0.00  0.00    +0.000 HD
ATOM     21  H   UNL     1      47.827   4.415  21.316  0.00  0.00    +0.000 HD
ENDBRANCH  18  19
ENDBRANCH  12  18
ENDBRANCH   1  15
TORSDOF 4
ENDMDL
MODEL 8
REMARK VINA RESULT:    -5.642      3.270      5.288
REMARK INTER + INTRA:          -7.050
REMARK INTER:                  -6.617
REMARK INTRA:                  -0.433
REMARK UNBOUND:                -0.255
REMARK  Name = 
REMARK  4 active torsions:
REMARK  status: ('A' for Active; 'I' for Inactive)
REMARK    1  A    between atoms: N_1  and  C_2
REMARK    2  A    between atoms: C_2  and  C_3
REMARK    3  A    between atoms: C_6  and  C_7
REMARK    4  A    between atoms: C_7  and  N_8
REMARK                            x       y       z     vdW  Elec       q    Type
REMARK                         _______ _______ _______ _____ _____    ______ ____
ROOT
ATOM      1  C   UNL     1      47.140   6.912  13.373  0.00  0.00    +0.000 C 
ENDROOT
BRANCH   1   2
ATOM      2  N   UNL     1      47.549   8.132  12.702  0.00  0.00    +0.000 N 
ATOM      3  N   UNL     1      46.692   9.176  12.679  0.00  0.00    +0.000 NA
ATOM      4  C   UNL     1      47.410  10.160  12.136  0.00  0.00    +0.000 A 
ATOM      5  C   UNL     1      48.706   9.750  11.765  0.00  0.00    +0.000 A 
ATOM      6  C   UNL     1      49.831  10.367  11.197  0.00  0.00    +0.000 A 
ATOM      7  C   UNL     1      50.963   9.590  10.962  0.00  0.00    +0.000 A 
ATOM      8  F   UNL     1      52.060  10.171  10.456  0.00  0.00    +0.000 F 
ATOM      9  C   UNL     1      50.985   8.226  11.240  0.00  0.00    +0.000 A 
ATOM     10  C   UNL     1      49.872   7.594  11.806  0.00  0.00    +0.000 A 
ATOM     11  C   UNL     1      48.752   8.391  12.086  0.00  0.00    +0.000 A 
ENDBRANCH   1   2
BRANCH   1  15
ATOM     12  C   UNL     1      44.958   3.770  11.225  0.00  0.00    +0.000 C 
ATOM     13  C   UNL     1      44.691   3.952  12.726  0.00  0.00    +0.000 C 
ATOM     14  C   UNL     1      45.764   4.813  13.391  0.00  0.00    +0.000 C 
ATOM     15  C   UNL     1      45.945   6.184  12.715  0.00  0.00    +0.000 C 
ATOM     16  C   UNL     1      46.117   6.024  11.194  0.00  0.00    +0.000 C 
ATOM     17  C   UNL     1      45.037   5.149  10.556  0.00  0.00    +0.000 C 
BRANCH  12  18
ATOM     18  C   UNL     1      43.879   2.864  10.604  0.00  0.00    +0.000 C 
BRANCH  18  19
ATOM     19  N   UNL     1      43.046   2.222  11.616  0.00  0.00    +0.000 NA
ATOM     20  H   UNL     1      43.230   1.220  11.621  0.00  0.00    +0.000 HD
ATOM     21  H   UNL     1      42.062   2.332  11.377  0.00  0.00    +0.000 HD
ENDBRANCH  18  19
ENDBRANCH  12  18
ENDBRANCH   1  15
TORSDOF 4
ENDMDL
MODEL 9
REMARK VINA RESULT:    -5.635      3.983      5.731
REMARK INTER + INTRA:          -7.043
REMARK INTER:                  -6.961
REMARK INTRA:                  -0.081
REMARK UNBOUND:                -0.255
REMARK  Name = 
REMARK  4 active torsions:
REMARK  status: ('A' for Active; 'I' for Inactive)
REMARK    1  A    between atoms: N_1  and  C_2
REMARK    2  A    between atoms: C_2  and  C_3
REMARK    3  A    between atoms: C_6  and  C_7
REMARK    4  A    between atoms: C_7  and  N_8
REMARK                            x       y       z     vdW  Elec       q    Type
REMARK                         _______ _______ _______ _____ _____    ______ ____
ROOT
ATOM      1  C   UNL     1      47.532   5.282  14.617  0.00  0.00    +0.000 C 
ENDROOT
BRANCH   1   2
ATOM      2  N   UNL     1      47.590   4.683  15.937  0.00  0.00    +0.000 N 
ATOM      3  N   UNL     1      46.837   3.591  16.186  0.00  0.00    +0.000 NA
ATOM      4  C   UNL     1      47.226   3.210  17.403  0.00  0.00    +0.000 A 
ATOM      5  C   UNL     1      48.189   4.074  17.963  0.00  0.00    +0.000 A 
ATOM      6  C   UNL     1      48.920   4.123  19.159  0.00  0.00    +0.000 A 
ATOM      7  C   UNL     1      49.797   5.187  19.356  0.00  0.00    +0.000 A 
ATOM      8  F   UNL     1      50.533   5.229  20.475  0.00  0.00    +0.000 F 
ATOM      9  C   UNL     1      49.931   6.207  18.418  0.00  0.00    +0.000 A 
ATOM     10  C   UNL     1      49.210   6.176  17.220  0.00  0.00    +0.000 A 
ATOM     11  C   UNL     1      48.364   5.076  17.006  0.00  0.00    +0.000 A 
ENDBRANCH   1   2
BRANCH   1  15
ATOM     12  C   UNL     1      44.918   4.572  11.166  0.00  0.00    +0.000 C 
ATOM     13  C   UNL     1      45.234   3.395  12.101  0.00  0.00    +0.000 C 
ATOM     14  C   UNL     1      46.416   3.702  13.017  0.00  0.00    +0.000 C 
ATOM     15  C   UNL     1      46.230   4.993  13.835  0.00  0.00    +0.000 C 
ATOM     16  C   UNL     1      45.818   6.162  12.922  0.00  0.00    +0.000 C 
ATOM     17  C   UNL     1      44.639   5.824  12.008  0.00  0.00    +0.000 C 
BRANCH  12  18
ATOM     18  C   UNL     1      43.749   4.205  10.233  0.00  0.00    +0.000 C 
BRANCH  18  19
ATOM     19  N   UNL     1      44.091   4.375   8.825  0.00  0.00    +0.000 NA
ATOM     20  H   UNL     1      44.992   3.937   8.638  0.00  0.00    +0.000 HD
ATOM     21  H   UNL     1      44.203   5.365   8.611  0.00  0.00    +0.000 HD
ENDBRANCH  18  19
ENDBRANCH  12  18
ENDBRANCH   1  15
TORSDOF 4
ENDMDL
