MODEL 1
REMARK VINA RESULT:    -8.879      0.000      0.000
REMARK INTER + INTRA:         -13.043
REMARK INTER:                 -11.993
REMARK INTRA:                  -1.050
REMARK UNBOUND:                -1.050
REMARK  Name = 
REMARK  6 active torsions:
REMARK  status: ('A' for Active; 'I' for Inactive)
REMARK    1  A    between atoms: C_2  and  C_4
REMARK    2  A    between atoms: C_7  and  O_8
REMARK    3  A    between atoms: O_8  and  C_9
REMARK    4  A    between atoms: C_9  and  C_10
REMARK    5  A    between atoms: C_10  and  C_13
REMARK    6  A    between atoms: C_17  and  N_18
REMARK                            x       y       z     vdW  Elec       q    Type
REMARK                         _______ _______ _______ _____ _____    ______ ____
ROOT
ATOM      1  C   UNL     1      43.629   4.673  12.384  0.00  0.00    +0.000 C 
ATOM      2  F   UNL     1      42.679   5.511  12.894  0.00  0.00    +0.000 F 
ATOM      3  F   UNL     1      43.403   3.462  12.978  0.00  0.00    +0.000 F 
ENDROOT
BRANCH   1   4
ATOM      4  C   UNL     1      45.038   5.178  12.646  0.00  0.00    +0.000 A 
ATOM      5  C   UNL     1      45.628   6.093  11.765  0.00  0.00    +0.000 A 
ATOM      6  C   UNL     1      46.883   6.619  12.045  0.00  0.00    +0.000 A 
ATOM      7  C   UNL     1      47.544   6.251  13.219  0.00  0.00    +0.000 A 
ATOM      8  C   UNL     1      46.990   5.348  14.138  0.00  0.00    +0.000 A 
ATOM      9  C   UNL     1      45.740   4.799  13.812  0.00  0.00    +0.000 A 
BRANCH   8  10
ATOM     10  N   UNL     1      47.657   5.029  15.299  0.00  0.00    +0.000 N 
ATOM     11  C   UNL     1      47.543   3.702  15.924  0.00  0.00    +0.000 C 
ATOM     12  C   UNL     1      47.244   3.876  17.419  0.00  0.00    +0.000 C 
ATOM     13  O   UNL     1      48.251   4.680  18.061  0.00  0.00    +0.000 OA
ATOM     14  C   UNL     1      48.318   5.983  17.450  0.00  0.00    +0.000 C 
ATOM     15  C   UNL     1      48.644   5.903  15.945  0.00  0.00    +0.000 C 
ENDBRANCH   8  10
ENDBRANCH   1   4
BRANCH   1  16
ATOM     16  C   UNL     1      43.409   4.530  10.870  0.00  0.00    +0.000 C 
BRANCH  16  17
ATOM     17  O   UNL     1      43.469   3.155  10.444  0.00  0.00    +0.000 OA
BRANCH  17  21
ATOM     18  C   UNL     1      46.405   2.640   7.596  0.00  0.00    +0.000 A 
ATOM     19  C   UNL     1      45.904   3.920   7.843  0.00  0.00    +0.000 A 
ATOM     20  C   UNL     1      44.900   4.084   8.803  0.00  0.00    +0.000 A 
ATOM     21  C   UNL     1      44.440   2.964   9.478  0.00  0.00    +0.000 A 
ATOM     22  N   UNL     1      44.896   1.714   9.243  0.00  0.00    +0.000 NA
ATOM     23  C   UNL     1      45.857   1.577   8.302  0.00  0.00    +0.000 A 
BRANCH  18  25
ATOM     24  N   UNL     1      47.505   3.090   5.477  0.00  0.00    +0.000 N 
ATOM     25  C   UNL     1      47.480   2.351   6.625  0.00  0.00    +0.000 C 
ATOM     26  O   UNL     1      48.346   1.519   6.860  0.00  0.00    +0.000 OA
ATOM     27  H   UNL     1      48.325   2.972   4.894  0.00  0.00    +0.000 HD
ATOM     28  H   UNL     1      46.983   3.949   5.374  0.00  0.00    +0.000 HD
ENDBRANCH  18  25
ENDBRANCH  17  21
ENDBRANCH  16  17
ENDBRANCH   1  16
TORSDOF 6
ENDMDL
MODEL 2
REMARK VINA RESULT:    -8.595      1.353      1.753
REMARK INTER + INTRA:         -12.659
REMARK INTER:                 -11.827
REMARK INTRA:                  -0.832
REMARK UNBOUND:                -1.050
REMARK  Name = 
REMARK  6 active torsions:
REMARK  status: ('A' for Active; 'I' for Inactive)
REMARK    1  A    between atoms: C_2  and  C_4
REMARK    2  A    between atoms: C_7  and  O_8
REMARK    3  A    between atoms: O_8  and  C_9
REMARK    4  A    between atoms: C_9  and  C_10
REMARK    5  A    between atoms: C_10  and  C_13
REMARK    6  A    between atoms: C_17  and  N_18
REMARK                            x       y       z     vdW  Elec       q    Type
REMARK                         _______ _______ _______ _____ _____    ______ ____
ROOT
ATOM      1  C   UNL     1      43.094   4.922  12.251  0.00  0.00    +0.000 C 
ATOM      2  F   UNL     1      41.924   5.579  11.996  0.00  0.00    +0.000 F 
ATOM      3  F   UNL     1      42.894   4.267  13.434  0.00  0.00    +0.000 F 
ENDROOT
BRANCH   1   4
ATOM      4  C   UNL     1      44.280   5.870  12.323  0.00  0.00    +0.000 A 
ATOM      5  C   UNL     1      44.198   7.138  11.735  0.00  0.00    +0.000 A 
ATOM      6  C   UNL     1      45.248   8.037  11.870  0.00  0.00    +0.000 A 
ATOM      7  C   UNL     1      46.375   7.682  12.614  0.00  0.00    +0.000 A 
ATOM      8  C   UNL     1      46.499   6.429  13.231  0.00  0.00    +0.000 A 
ATOM      9  C   UNL     1      45.443   5.524  13.045  0.00  0.00    +0.000 A 
BRANCH   8  10
ATOM     10  N   UNL     1      47.613   6.123  13.980  0.00  0.00    +0.000 N 
ATOM     11  C   UNL     1      47.628   4.999  14.929  0.00  0.00    +0.000 C 
ATOM     12  C   UNL     1      48.188   5.485  16.272  0.00  0.00    +0.000 C 
ATOM     13  O   UNL     1      49.498   6.062  16.112  0.00  0.00    +0.000 OA
ATOM     14  C   UNL     1      49.446   7.179  15.204  0.00  0.00    +0.000 C 
ATOM     15  C   UNL     1      48.918   6.772  13.813  0.00  0.00    +0.000 C 
ENDBRANCH   8  10
ENDBRANCH   1   4
BRANCH   1  16
ATOM     16  C   UNL     1      43.335   3.883  11.144  0.00  0.00    +0.000 C 
BRANCH  16  17
ATOM     17  O   UNL     1      43.589   4.504   9.868  0.00  0.00    +0.000 OA
BRANCH  17  21
ATOM     18  C   UNL     1      46.496   2.477   7.761  0.00  0.00    +0.000 A 
ATOM     19  C   UNL     1      45.657   1.772   8.626  0.00  0.00    +0.000 A 
ATOM     20  C   UNL     1      44.681   2.469   9.346  0.00  0.00    +0.000 A 
ATOM     21  C   UNL     1      44.581   3.841   9.169  0.00  0.00    +0.000 A 
ATOM     22  N   UNL     1      45.393   4.547   8.353  0.00  0.00    +0.000 NA
ATOM     23  C   UNL     1      46.338   3.854   7.677  0.00  0.00    +0.000 A 
BRANCH  18  25
ATOM     24  N   UNL     1      48.411   2.673   6.279  0.00  0.00    +0.000 N 
ATOM     25  C   UNL     1      47.544   1.845   6.933  0.00  0.00    +0.000 C 
ATOM     26  O   UNL     1      47.665   0.629   6.876  0.00  0.00    +0.000 OA
ATOM     27  H   UNL     1      49.201   2.221   5.833  0.00  0.00    +0.000 HD
ATOM     28  H   UNL     1      48.509   3.650   6.514  0.00  0.00    +0.000 HD
ENDBRANCH  18  25
ENDBRANCH  17  21
ENDBRANCH  16  17
ENDBRANCH   1  16
TORSDOF 6
ENDMDL
MODEL 3
REMARK VINA RESULT:    -8.359      2.302      3.217
REMARK INTER + INTRA:         -12.341
REMARK INTER:                 -11.343
REMARK INTRA:                  -0.998
REMARK UNBOUND:                -1.050
REMARK  Name = 
REMARK  6 active torsions:
REMARK  status: ('A' for Active; 'I' for Inactive)
REMARK    1  A    between atoms: C_2  and  C_4
REMARK    2  A    between atoms: C_7  and  O_8
REMARK    3  A    between atoms: O_8  and  C_9
REMARK    4  A    between atoms: C_9  and  C_10
REMARK    5  A    between atoms: C_10  and  C_13
REMARK    6  A    between atoms: C_17  and  N_18
REMARK                            x       y       z     vdW  Elec       q    Type
REMARK                         _______ _______ _______ _____ _____    ______ ____
ROOT
ATOM      1  C   UNL     1      43.569   5.434  12.019  0.00  0.00    +0.000 C 
ATOM      2  F   UNL     1      43.344   6.619  11.378  0.00  0.00    +0.000 F 
ATOM      3  F   UNL     1      42.582   5.338  12.961  0.00  0.00    +0.000 F 
ENDROOT
BRANCH   1   4
ATOM      4  C   UNL     1      44.954   5.373  12.643  0.00  0.00    +0.000 A 
ATOM      5  C   UNL     1      45.423   4.170  13.185  0.00  0.00    +0.000 A 
ATOM      6  C   UNL     1      46.718   4.089  13.681  0.00  0.00    +0.000 A 
ATOM      7  C   UNL     1      47.558   5.203  13.615  0.00  0.00    +0.000 A 
ATOM      8  C   UNL     1      47.137   6.426  13.071  0.00  0.00    +0.000 A 
ATOM      9  C   UNL     1      45.812   6.494  12.615  0.00  0.00    +0.000 A 
BRANCH   8  10
ATOM     10  N   UNL     1      48.001   7.495  12.998  0.00  0.00    +0.000 N 
ATOM     11  C   UNL     1      48.540   8.146  14.202  0.00  0.00    +0.000 C 
ATOM     12  C   UNL     1      48.363   9.664  14.074  0.00  0.00    +0.000 C 
ATOM     13  O   UNL     1      48.989  10.162  12.877  0.00  0.00    +0.000 OA
ATOM     14  C   UNL     1      48.419   9.533  11.714  0.00  0.00    +0.000 C 
ATOM     15  C   UNL     1      48.579   7.999  11.747  0.00  0.00    +0.000 C 
ENDBRANCH   8  10
ENDBRANCH   1   4
BRANCH   1  16
ATOM     16  C   UNL     1      43.407   4.284  11.014  0.00  0.00    +0.000 C 
BRANCH  16  17
ATOM     17  O   UNL     1      43.602   4.724   9.655  0.00  0.00    +0.000 OA
BRANCH  17  21
ATOM     18  C   UNL     1      46.545   2.545   7.760  0.00  0.00    +0.000 A 
ATOM     19  C   UNL     1      45.628   1.890   8.586  0.00  0.00    +0.000 A 
ATOM     20  C   UNL     1      44.640   2.638   9.234  0.00  0.00    +0.000 A 
ATOM     21  C   UNL     1      44.607   4.009   9.028  0.00  0.00    +0.000 A 
ATOM     22  N   UNL     1      45.492   4.667   8.250  0.00  0.00    +0.000 NA
ATOM     23  C   UNL     1      46.448   3.926   7.644  0.00  0.00    +0.000 A 
BRANCH  18  25
ATOM     24  N   UNL     1      48.449   2.631   6.254  0.00  0.00    +0.000 N 
ATOM     25  C   UNL     1      47.614   1.857   7.008  0.00  0.00    +0.000 C 
ATOM     26  O   UNL     1      47.780   0.648   7.097  0.00  0.00    +0.000 OA
ATOM     27  H   UNL     1      49.254   2.158   5.860  0.00  0.00    +0.000 HD
ATOM     28  H   UNL     1      48.510   3.633   6.368  0.00  0.00    +0.000 HD
ENDBRANCH  18  25
ENDBRANCH  17  21
ENDBRANCH  16  17
ENDBRANCH   1  16
TORSDOF 6
ENDMDL
MODEL 4
REMARK VINA RESULT:    -7.505      2.894      3.575
REMARK INTER + INTRA:         -11.187
REMARK INTER:                 -10.403
REMARK INTRA:                  -0.784
REMARK UNBOUND:                -1.050
REMARK  Name = 
REMARK  6 active torsions:
REMARK  status: ('A' for Active; 'I' for Inactive)
REMARK    1  A    between atoms: C_2  and  C_4
REMARK    2  A    between atoms: C_7  and  O_8
REMARK    3  A    between atoms: O_8  and  C_9
REMARK    4  A    between atoms: C_9  and  C_10
REMARK    5  A    between atoms: C_10  and  C_13
REMARK    6  A    between atoms: C_17  and  N_18
REMARK                            x       y       z     vdW  Elec       q    Type
REMARK                         _______ _______ _______ _____ _____    ______ ____
ROOT
ATOM      1  C   UNL     1      44.898   5.634  12.044  0.00  0.00    +0.000 C 
ATOM      2  F   UNL     1      44.023   5.550  13.089  0.00  0.00    +0.000 F 
ATOM      3  F   UNL     1      45.734   4.560  12.182  0.00  0.00    +0.000 F 
ENDROOT
BRANCH   1   4
ATOM      4  C   UNL     1      45.662   6.948  12.039  0.00  0.00    +0.000 A 
ATOM      5  C   UNL     1      44.965   8.161  11.974  0.00  0.00    +0.000 A 
ATOM      6  C   UNL     1      45.654   9.365  12.053  0.00  0.00    +0.000 A 
ATOM      7  C   UNL     1      47.041   9.361  12.221  0.00  0.00    +0.000 A 
ATOM      8  C   UNL     1      47.781   8.173  12.303  0.00  0.00    +0.000 A 
ATOM      9  C   UNL     1      47.067   6.971  12.179  0.00  0.00    +0.000 A 
BRANCH   8  10
ATOM     10  N   UNL     1      49.144   8.207  12.496  0.00  0.00    +0.000 N 
ATOM     11  C   UNL     1      49.748   8.847  13.675  0.00  0.00    +0.000 C 
ATOM     12  C   UNL     1      50.876   9.779  13.218  0.00  0.00    +0.000 C 
ATOM     13  O   UNL     1      51.857   9.067  12.439  0.00  0.00    +0.000 OA
ATOM     14  C   UNL     1      51.244   8.481  11.276  0.00  0.00    +0.000 C 
ATOM     15  C   UNL     1      50.111   7.502  11.647  0.00  0.00    +0.000 C 
ENDBRANCH   8  10
ENDBRANCH   1   4
BRANCH   1  16
ATOM     16  C   UNL     1      44.120   5.489  10.727  0.00  0.00    +0.000 C 
BRANCH  16  17
ATOM     17  O   UNL     1      43.772   4.117  10.455  0.00  0.00    +0.000 OA
BRANCH  17  21
ATOM     18  C   UNL     1      46.408   2.460   7.752  0.00  0.00    +0.000 A 
ATOM     19  C   UNL     1      46.236   3.846   7.784  0.00  0.00    +0.000 A 
ATOM     20  C   UNL     1      45.332   4.399   8.696  0.00  0.00    +0.000 A 
ATOM     21  C   UNL     1      44.638   3.545   9.540  0.00  0.00    +0.000 A 
ATOM     22  N   UNL     1      44.773   2.202   9.515  0.00  0.00    +0.000 NA
ATOM     23  C   UNL     1      45.643   1.688   8.616  0.00  0.00    +0.000 A 
BRANCH  18  25
ATOM     24  N   UNL     1      48.432   2.476   6.409  0.00  0.00    +0.000 N 
ATOM     25  C   UNL     1      47.350   1.767   6.850  0.00  0.00    +0.000 C 
ATOM     26  O   UNL     1      47.200   0.591   6.550  0.00  0.00    +0.000 OA
ATOM     27  H   UNL     1      49.133   1.944   5.908  0.00  0.00    +0.000 HD
ATOM     28  H   UNL     1      48.727   3.339   6.842  0.00  0.00    +0.000 HD
ENDBRANCH  18  25
ENDBRANCH  17  21
ENDBRANCH  16  17
ENDBRANCH   1  16
TORSDOF 6
ENDMDL
MODEL 5
REMARK VINA RESULT:    -7.109      1.972      8.100
REMARK INTER + INTRA:         -10.652
REMARK INTER:                 -10.032
REMARK INTRA:                  -0.620
REMARK UNBOUND:                -1.050
REMARK  Name = 
REMARK  6 active torsions:
REMARK  status: ('A' for Active; 'I' for Inactive)
REMARK    1  A    between atoms: C_2  and  C_4
REMARK    2  A    between atoms: C_7  and  O_8
REMARK    3  A    between atoms: O_8  and  C_9
REMARK    4  A    between atoms: C_9  and  C_10
REMARK    5  A    between atoms: C_10  and  C_13
REMARK    6  A    between atoms: C_17  and  N_18
REMARK                            x       y       z     vdW  Elec       q    Type
REMARK                         _______ _______ _______ _____ _____    ______ ____
ROOT
ATOM      1  C   UNL     1      45.745   6.478  12.487  0.00  0.00    +0.000 C 
ATOM      2  F   UNL     1      44.906   7.212  13.277  0.00  0.00    +0.000 F 
ATOM      3  F   UNL     1      46.096   7.308  11.459  0.00  0.00    +0.000 F 
ENDROOT
BRANCH   1   4
ATOM      4  C   UNL     1      45.090   5.202  11.985  0.00  0.00    +0.000 A 
ATOM      5  C   UNL     1      44.043   4.621  12.713  0.00  0.00    +0.000 A 
ATOM      6  C   UNL     1      43.387   3.502  12.215  0.00  0.00    +0.000 A 
ATOM      7  C   UNL     1      43.759   2.973  10.978  0.00  0.00    +0.000 A 
ATOM      8  C   UNL     1      44.793   3.525  10.207  0.00  0.00    +0.000 A 
ATOM      9  C   UNL     1      45.467   4.630  10.751  0.00  0.00    +0.000 A 
BRANCH   8  10
ATOM     10  N   UNL     1      45.114   2.994   8.979  0.00  0.00    +0.000 N 
ATOM     11  C   UNL     1      45.126   1.543   8.737  0.00  0.00    +0.000 C 
ATOM     12  C   UNL     1      46.438   1.161   8.040  0.00  0.00    +0.000 C 
ATOM     13  O   UNL     1      46.614   1.904   6.819  0.00  0.00    +0.000 OA
ATOM     14  C   UNL     1      46.632   3.318   7.091  0.00  0.00    +0.000 C 
ATOM     15  C   UNL     1      45.331   3.795   7.770  0.00  0.00    +0.000 C 
ENDBRANCH   8  10
ENDBRANCH   1   4
BRANCH   1  16
ATOM     16  C   UNL     1      47.006   6.125  13.291  0.00  0.00    +0.000 C 
BRANCH  16  17
ATOM     17  O   UNL     1      46.985   4.760  13.754  0.00  0.00    +0.000 OA
BRANCH  17  21
ATOM     18  C   UNL     1      48.207   4.543  17.687  0.00  0.00    +0.000 A 
ATOM     19  C   UNL     1      48.598   5.632  16.904  0.00  0.00    +0.000 A 
ATOM     20  C   UNL     1      48.189   5.692  15.568  0.00  0.00    +0.000 A 
ATOM     21  C   UNL     1      47.403   4.664  15.070  0.00  0.00    +0.000 A 
ATOM     22  N   UNL     1      47.028   3.592  15.801  0.00  0.00    +0.000 NA
ATOM     23  C   UNL     1      47.446   3.548  17.086  0.00  0.00    +0.000 A 
BRANCH  18  25
ATOM     24  N   UNL     1      48.317   3.170  19.688  0.00  0.00    +0.000 N 
ATOM     25  C   UNL     1      48.558   4.385  19.113  0.00  0.00    +0.000 C 
ATOM     26  O   UNL     1      49.091   5.289  19.742  0.00  0.00    +0.000 OA
ATOM     27  H   UNL     1      48.692   3.042  20.620  0.00  0.00    +0.000 HD
ATOM     28  H   UNL     1      48.136   2.339  19.143  0.00  0.00    +0.000 HD
ENDBRANCH  18  25
ENDBRANCH  17  21
ENDBRANCH  16  17
ENDBRANCH   1  16
TORSDOF 6
ENDMDL
MODEL 6
REMARK VINA RESULT:    -7.057      3.462      5.334
REMARK INTER + INTRA:         -10.582
REMARK INTER:                  -9.999
REMARK INTRA:                  -0.583
REMARK UNBOUND:                -1.050
REMARK  Name = 
REMARK  6 active torsions:
REMARK  status: ('A' for Active; 'I' for Inactive)
REMARK    1  A    between atoms: C_2  and  C_4
REMARK    2  A    between atoms: C_7  and  O_8
REMARK    3  A    between atoms: O_8  and  C_9
REMARK    4  A    between atoms: C_9  and  C_10
REMARK    5  A    between atoms: C_10  and  C_13
REMARK    6  A    between atoms: C_17  and  N_18
REMARK                            x       y       z     vdW  Elec       q    Type
REMARK                         _______ _______ _______ _____ _____    ______ ____
ROOT
ATOM      1  C   UNL     1      44.851   5.147  12.177  0.00  0.00    +0.000 C 
ATOM      2  F   UNL     1      44.197   4.877  13.345  0.00  0.00    +0.000 F 
ATOM      3  F   UNL     1      45.935   4.315  12.166  0.00  0.00    +0.000 F 
ENDROOT
BRANCH   1   4
ATOM      4  C   UNL     1      45.258   6.608  12.073  0.00  0.00    +0.000 A 
ATOM      5  C   UNL     1      46.577   6.987  12.352  0.00  0.00    +0.000 A 
ATOM      6  C   UNL     1      46.973   8.308  12.178  0.00  0.00    +0.000 A 
ATOM      7  C   UNL     1      46.059   9.250  11.702  0.00  0.00    +0.000 A 
ATOM      8  C   UNL     1      44.731   8.916  11.398  0.00  0.00    +0.000 A 
ATOM      9  C   UNL     1      44.345   7.586  11.621  0.00  0.00    +0.000 A 
BRANCH   8  10
ATOM     10  N   UNL     1      43.864   9.865  10.904  0.00  0.00    +0.000 N 
ATOM     11  C   UNL     1      42.622  10.225  11.605  0.00  0.00    +0.000 C 
ATOM     12  C   UNL     1      41.457  10.203  10.607  0.00  0.00    +0.000 C 
ATOM     13  O   UNL     1      41.711  11.078   9.492  0.00  0.00    +0.000 OA
ATOM     14  C   UNL     1      42.913  10.681   8.806  0.00  0.00    +0.000 C 
ATOM     15  C   UNL     1      44.146  10.703   9.733  0.00  0.00    +0.000 C 
ENDBRANCH   8  10
ENDBRANCH   1   4
BRANCH   1  16
ATOM     16  C   UNL     1      43.936   4.785  10.997  0.00  0.00    +0.000 C 
BRANCH  16  17
ATOM     17  O   UNL     1      44.428   5.314   9.750  0.00  0.00    +0.000 OA
BRANCH  17  21
ATOM     18  C   UNL     1      46.560   2.469   7.661  0.00  0.00    +0.000 A 
ATOM     19  C   UNL     1      45.663   2.065   8.653  0.00  0.00    +0.000 A 
ATOM     20  C   UNL     1      44.953   3.037   9.365  0.00  0.00    +0.000 A 
ATOM     21  C   UNL     1      45.165   4.372   9.054  0.00  0.00    +0.000 A 
ATOM     22  N   UNL     1      46.039   4.787   8.113  0.00  0.00    +0.000 NA
ATOM     23  C   UNL     1      46.725   3.831   7.446  0.00  0.00    +0.000 A 
BRANCH  18  25
ATOM     24  N   UNL     1      48.380   2.053   6.107  0.00  0.00    +0.000 N 
ATOM     25  C   UNL     1      47.345   1.533   6.830  0.00  0.00    +0.000 C 
ATOM     26  O   UNL     1      47.113   0.332   6.829  0.00  0.00    +0.000 OA
ATOM     27  H   UNL     1      48.987   1.377   5.658  0.00  0.00    +0.000 HD
ATOM     28  H   UNL     1      48.762   2.969   6.290  0.00  0.00    +0.000 HD
ENDBRANCH  18  25
ENDBRANCH  17  21
ENDBRANCH  16  17
ENDBRANCH   1  16
TORSDOF 6
ENDMDL
MODEL 7
REMARK VINA RESULT:    -6.659      3.398      7.758
REMARK INTER + INTRA:         -10.044
REMARK INTER:                  -9.124
REMARK INTRA:                  -0.920
REMARK UNBOUND:                -1.050
REMARK  Name = 
REMARK  6 active torsions:
REMARK  status: ('A' for Active; 'I' for Inactive)
REMARK    1  A    between atoms: C_2  and  C_4
REMARK    2  A    between atoms: C_7  and  O_8
REMARK    3  A    between atoms: O_8  and  C_9
REMARK    4  A    between atoms: C_9  and  C_10
REMARK    5  A    between atoms: C_10  and  C_13
REMARK    6  A    between atoms: C_17  and  N_18
REMARK                            x       y       z     vdW  Elec       q    Type
REMARK                         _______ _______ _______ _____ _____    ______ ____
ROOT
ATOM      1  C   UNL     1      49.061   8.232  12.203  0.00  0.00    +0.000 C 
ATOM      2  F   UNL     1      49.328   9.562  12.359  0.00  0.00    +0.000 F 
ATOM      3  F   UNL     1      49.712   7.863  11.058  0.00  0.00    +0.000 F 
ENDROOT
BRANCH   1   4
ATOM      4  C   UNL     1      47.570   7.952  12.121  0.00  0.00    +0.000 A 
ATOM      5  C   UNL     1      46.654   9.008  12.215  0.00  0.00    +0.000 A 
ATOM      6  C   UNL     1      45.295   8.767  12.059  0.00  0.00    +0.000 A 
ATOM      7  C   UNL     1      44.847   7.474  11.784  0.00  0.00    +0.000 A 
ATOM      8  C   UNL     1      45.725   6.386  11.670  0.00  0.00    +0.000 A 
ATOM      9  C   UNL     1      47.088   6.648  11.873  0.00  0.00    +0.000 A 
BRANCH   8  10
ATOM     10  N   UNL     1      45.250   5.129  11.371  0.00  0.00    +0.000 N 
ATOM     11  C   UNL     1      45.170   4.635   9.988  0.00  0.00    +0.000 C 
ATOM     12  C   UNL     1      43.776   4.041   9.747  0.00  0.00    +0.000 C 
ATOM     13  O   UNL     1      43.482   3.001  10.700  0.00  0.00    +0.000 OA
ATOM     14  C   UNL     1      43.535   3.521  12.041  0.00  0.00    +0.000 C 
ATOM     15  C   UNL     1      44.918   4.116  12.379  0.00  0.00    +0.000 C 
ENDBRANCH   8  10
ENDBRANCH   1   4
BRANCH   1  16
ATOM     16  C   UNL     1      49.664   7.459  13.386  0.00  0.00    +0.000 C 
BRANCH  16  17
ATOM     17  O   UNL     1      49.109   7.885  14.647  0.00  0.00    +0.000 OA
BRANCH  17  21
ATOM     18  C   UNL     1      47.999   4.714  17.038  0.00  0.00    +0.000 A 
ATOM     19  C   UNL     1      48.555   5.855  17.622  0.00  0.00    +0.000 A 
ATOM     20  C   UNL     1      48.940   6.921  16.803  0.00  0.00    +0.000 A 
ATOM     21  C   UNL     1      48.750   6.805  15.434  0.00  0.00    +0.000 A 
ATOM     22  N   UNL     1      48.232   5.707  14.845  0.00  0.00    +0.000 NA
ATOM     23  C   UNL     1      47.879   4.682  15.655  0.00  0.00    +0.000 A 
BRANCH  18  25
ATOM     24  N   UNL     1      48.266   3.177  18.899  0.00  0.00    +0.000 N 
ATOM     25  C   UNL     1      47.535   3.540  17.805  0.00  0.00    +0.000 C 
ATOM     26  O   UNL     1      46.508   2.946  17.504  0.00  0.00    +0.000 OA
ATOM     27  H   UNL     1      47.855   2.460  19.486  0.00  0.00    +0.000 HD
ATOM     28  H   UNL     1      48.946   3.790  19.325  0.00  0.00    +0.000 HD
ENDBRANCH  18  25
ENDBRANCH  17  21
ENDBRANCH  16  17
ENDBRANCH   1  16
TORSDOF 6
ENDMDL
MODEL 8
REMARK VINA RESULT:    -6.627      3.860      6.072
REMARK INTER + INTRA:         -10.001
REMARK INTER:                  -9.327
REMARK INTRA:                  -0.674
REMARK UNBOUND:                -1.050
REMARK  Name = 
REMARK  6 active torsions:
REMARK  status: ('A' for Active; 'I' for Inactive)
REMARK    1  A    between atoms: C_2  and  C_4
REMARK    2  A    between atoms: C_7  and  O_8
REMARK    3  A    between atoms: O_8  and  C_9
REMARK    4  A    between atoms: C_9  and  C_10
REMARK    5  A    between atoms: C_10  and  C_13
REMARK    6  A    between atoms: C_17  and  N_18
REMARK                            x       y       z     vdW  Elec       q    Type
REMARK                         _______ _______ _______ _____ _____    ______ ____
ROOT
ATOM      1  C   UNL     1      48.126   2.917  16.773  0.00  0.00    +0.000 C 
ATOM      2  F   UNL     1      47.129   2.417  17.561  0.00  0.00    +0.000 F 
ATOM      3  F   UNL     1      48.636   1.839  16.104  0.00  0.00    +0.000 F 
ENDROOT
BRANCH   1   4
ATOM      4  C   UNL     1      49.193   3.635  17.584  0.00  0.00    +0.000 A 
ATOM      5  C   UNL     1      50.543   3.310  17.406  0.00  0.00    +0.000 A 
ATOM      6  C   UNL     1      51.525   4.021  18.085  0.00  0.00    +0.000 A 
ATOM      7  C   UNL     1      51.163   5.074  18.926  0.00  0.00    +0.000 A 
ATOM      8  C   UNL     1      49.826   5.444  19.129  0.00  0.00    +0.000 A 
ATOM      9  C   UNL     1      48.851   4.685  18.464  0.00  0.00    +0.000 A 
BRANCH   8  10
ATOM     10  N   UNL     1      49.507   6.506  19.945  0.00  0.00    +0.000 N 
ATOM     11  C   UNL     1      48.444   6.418  20.959  0.00  0.00    +0.000 C 
ATOM     12  C   UNL     1      47.523   7.637  20.827  0.00  0.00    +0.000 C 
ATOM     13  O   UNL     1      48.265   8.866  20.941  0.00  0.00    +0.000 OA
ATOM     14  C   UNL     1      49.275   8.939  19.917  0.00  0.00    +0.000 C 
ATOM     15  C   UNL     1      50.267   7.760  19.994  0.00  0.00    +0.000 C 
ENDBRANCH   8  10
ENDBRANCH   1   4
BRANCH   1  16
ATOM     16  C   UNL     1      47.517   3.890  15.753  0.00  0.00    +0.000 C 
BRANCH  16  17
ATOM     17  O   UNL     1      47.522   3.346  14.418  0.00  0.00    +0.000 OA
BRANCH  17  21
ATOM     18  C   UNL     1      44.404   4.825  12.161  0.00  0.00    +0.000 A 
ATOM     19  C   UNL     1      45.130   5.691  12.983  0.00  0.00    +0.000 A 
ATOM     20  C   UNL     1      46.179   5.179  13.754  0.00  0.00    +0.000 A 
ATOM     21  C   UNL     1      46.461   3.824  13.670  0.00  0.00    +0.000 A 
ATOM     22  N   UNL     1      45.763   2.964  12.898  0.00  0.00    +0.000 NA
ATOM     23  C   UNL     1      44.744   3.479  12.171  0.00  0.00    +0.000 A 
BRANCH  18  25
ATOM     24  N   UNL     1      42.257   5.923  11.873  0.00  0.00    +0.000 N 
ATOM     25  C   UNL     1      43.294   5.256  11.287  0.00  0.00    +0.000 C 
ATOM     26  O   UNL     1      43.326   5.071  10.078  0.00  0.00    +0.000 OA
ATOM     27  H   UNL     1      41.579   6.329  11.238  0.00  0.00    +0.000 HD
ATOM     28  H   UNL     1      42.324   6.324  12.797  0.00  0.00    +0.000 HD
ENDBRANCH  18  25
ENDBRANCH  17  21
ENDBRANCH  16  17
ENDBRANCH   1  16
TORSDOF 6
ENDMDL
MODEL 9
REMARK VINA RESULT:    -6.499      4.119      6.319
REMARK INTER + INTRA:          -9.828
REMARK INTER:                  -9.098
REMARK INTRA:                  -0.730
REMARK UNBOUND:                -1.050
REMARK  Name = 
REMARK  6 active torsions:
REMARK  status: ('A' for Active; 'I' for Inactive)
REMARK    1  A    between atoms: C_2  and  C_4
REMARK    2  A    between atoms: C_7  and  O_8
REMARK    3  A    between atoms: O_8  and  C_9
REMARK    4  A    between atoms: C_9  and  C_10
REMARK    5  A    between atoms: C_10  and  C_13
REMARK    6  A    between atoms: C_17  and  N_18
REMARK                            x       y       z     vdW  Elec       q    Type
REMARK                         _______ _______ _______ _____ _____    ______ ____
ROOT
ATOM      1  C   UNL     1      47.968   3.165  16.871  0.00  0.00    +0.000 C 
ATOM      2  F   UNL     1      47.093   2.464  17.650  0.00  0.00    +0.000 F 
ATOM      3  F   UNL     1      48.402   2.279  15.924  0.00  0.00    +0.000 F 
ENDROOT
BRANCH   1   4
ATOM      4  C   UNL     1      49.120   3.741  17.677  0.00  0.00    +0.000 A 
ATOM      5  C   UNL     1      48.861   4.618  18.739  0.00  0.00    +0.000 A 
ATOM      6  C   UNL     1      49.905   5.081  19.529  0.00  0.00    +0.000 A 
ATOM      7  C   UNL     1      51.209   4.652  19.278  0.00  0.00    +0.000 A 
ATOM      8  C   UNL     1      51.518   3.767  18.235  0.00  0.00    +0.000 A 
ATOM      9  C   UNL     1      50.452   3.346  17.425  0.00  0.00    +0.000 A 
BRANCH   8  10
ATOM     10  N   UNL     1      52.812   3.343  18.033  0.00  0.00    +0.000 N 
ATOM     11  C   UNL     1      53.164   1.916  17.973  0.00  0.00    +0.000 C 
ATOM     12  C   UNL     1      54.366   1.656  18.890  0.00  0.00    +0.000 C 
ATOM     13  O   UNL     1      55.482   2.494  18.534  0.00  0.00    +0.000 OA
ATOM     14  C   UNL     1      55.119   3.883  18.634  0.00  0.00    +0.000 C 
ATOM     15  C   UNL     1      53.930   4.240  17.718  0.00  0.00    +0.000 C 
ENDBRANCH   8  10
ENDBRANCH   1   4
BRANCH   1  16
ATOM     16  C   UNL     1      47.211   4.305  16.172  0.00  0.00    +0.000 C 
BRANCH  16  17
ATOM     17  O   UNL     1      47.789   4.631  14.892  0.00  0.00    +0.000 OA
BRANCH  17  21
ATOM     18  C   UNL     1      45.056   4.379  11.814  0.00  0.00    +0.000 A 
ATOM     19  C   UNL     1      45.497   5.633  12.242  0.00  0.00    +0.000 A 
ATOM     20  C   UNL     1      46.415   5.710  13.294  0.00  0.00    +0.000 A 
ATOM     21  C   UNL     1      46.858   4.531  13.874  0.00  0.00    +0.000 A 
ATOM     22  N   UNL     1      46.433   3.308  13.490  0.00  0.00    +0.000 NA
ATOM     23  C   UNL     1      45.535   3.258  12.480  0.00  0.00    +0.000 A 
BRANCH  18  25
ATOM     24  N   UNL     1      44.383   4.806   9.520  0.00  0.00    +0.000 N 
ATOM     25  C   UNL     1      44.109   4.175  10.699  0.00  0.00    +0.000 C 
ATOM     26  O   UNL     1      43.145   3.428  10.809  0.00  0.00    +0.000 OA
ATOM     27  H   UNL     1      43.801   4.543   8.733  0.00  0.00    +0.000 HD
ATOM     28  H   UNL     1      45.289   5.200   9.314  0.00  0.00    +0.000 HD
ENDBRANCH  18  25
ENDBRANCH  17  21
ENDBRANCH  16  17
ENDBRANCH   1  16
TORSDOF 6
ENDMDL
