MODEL 1
REMARK VINA RESULT:    -7.226      0.000      0.000
REMARK INTER + INTRA:          -9.495
REMARK INTER:                  -8.916
REMARK INTRA:                  -0.579
REMARK UNBOUND:                -0.579
REMARK  Name = 
REMARK  5 active torsions:
REMARK  status: ('A' for Active; 'I' for Inactive)
REMARK    1  A    between atoms: C_1  and  C_2
REMARK    2  A    between atoms: C_2  and  C_3
REMARK    3  A    between atoms: C_3  and  N_4
REMARK    4  A    between atoms: C_3  and  C_14
REMARK    5  A    between atoms: C_8  and  C_9
REMARK                            x       y       z     vdW  Elec       q    Type
REMARK                         _______ _______ _______ _____ _____    ______ ____
ROOT
ATOM      1  N   UNL     1      44.459   5.004  10.166  0.00  0.00    +0.000 N 
ATOM      2  C   UNL     1      45.230   4.133   9.356  0.00  0.00    +0.000 A 
ATOM      3  C   UNL     1      45.994   4.721   8.337  0.00  0.00    +0.000 A 
ATOM      4  C   UNL     1      46.632   3.902   7.393  0.00  0.00    +0.000 A 
ATOM      5  C   UNL     1      46.610   2.528   7.537  0.00  0.00    +0.000 A 
ATOM      6  C   UNL     1      45.896   2.033   8.626  0.00  0.00    +0.000 A 
ATOM      7  N   UNL     1      45.179   2.804   9.507  0.00  0.00    +0.000 NA
ATOM      8  H   UNL     1      44.957   5.881  10.212  0.00  0.00    +0.000 HD
ENDROOT
BRANCH   5   9
ATOM      9  C   UNL     1      47.340   1.707   6.540  0.00  0.00    +0.000 C 
ATOM     10  N   UNL     1      48.283   2.299   5.752  0.00  0.00    +0.000 N 
ATOM     11  O   UNL     1      47.107   0.513   6.400  0.00  0.00    +0.000 OA
ATOM     12  H   UNL     1      48.453   3.303   5.704  0.00  0.00    +0.000 HD
ATOM     13  H   UNL     1      48.664   1.727   5.017  0.00  0.00    +0.000 HD
ENDBRANCH   5   9
BRANCH   1  14
ATOM     14  C   UNL     1      44.084   4.543  11.524  0.00  0.00    +0.000 C 
BRANCH  14  15
ATOM     15  C   UNL     1      45.032   5.239  12.561  0.00  0.00    +0.000 C 
ATOM     16  C   UNL     1      45.738   6.462  11.950  0.00  0.00    +0.000 C 
ATOM     17  C   UNL     1      46.744   7.100  12.897  0.00  0.00    +0.000 C 
ATOM     18  C   UNL     1      47.753   6.080  13.397  0.00  0.00    +0.000 C 
ATOM     19  C   UNL     1      47.052   4.936  14.113  0.00  0.00    +0.000 C 
ATOM     20  C   UNL     1      46.047   4.254  13.193  0.00  0.00    +0.000 C 
ENDBRANCH  14  15
BRANCH  14  22
ATOM     21  C   UNL     1      42.184   6.349  11.655  0.00  0.00    +0.000 C 
ATOM     22  C   UNL     1      42.598   4.903  11.844  0.00  0.00    +0.000 C 
ENDBRANCH  14  22
ENDBRANCH   1  14
TORSDOF 4
ENDMDL
MODEL 2
REMARK VINA RESULT:    -6.617      3.569      6.539
REMARK INTER + INTRA:          -8.744
REMARK INTER:                  -8.152
REMARK INTRA:                  -0.591
REMARK UNBOUND:                -0.579
REMARK  Name = 
REMARK  5 active torsions:
REMARK  status: ('A' for Active; 'I' for Inactive)
REMARK    1  A    between atoms: C_1  and  C_2
REMARK    2  A    between atoms: C_2  and  C_3
REMARK    3  A    between atoms: C_3  and  N_4
REMARK    4  A    between atoms: C_3  and  C_14
REMARK    5  A    between atoms: C_8  and  C_9
REMARK                            x       y       z     vdW  Elec       q    Type
REMARK                         _______ _______ _______ _____ _____    ______ ____
ROOT
ATOM      1  N   UNL     1      45.386   5.156  11.271  0.00  0.00    +0.000 N 
ATOM      2  C   UNL     1      45.794   6.499  11.476  0.00  0.00    +0.000 A 
ATOM      3  C   UNL     1      47.160   6.722  11.701  0.00  0.00    +0.000 A 
ATOM      4  C   UNL     1      47.596   7.999  12.087  0.00  0.00    +0.000 A 
ATOM      5  C   UNL     1      46.706   9.054  12.127  0.00  0.00    +0.000 A 
ATOM      6  C   UNL     1      45.382   8.759  11.808  0.00  0.00    +0.000 A 
ATOM      7  N   UNL     1      44.909   7.501  11.524  0.00  0.00    +0.000 NA
ATOM      8  H   UNL     1      46.159   4.679  10.830  0.00  0.00    +0.000 HD
ENDROOT
BRANCH   5   9
ATOM      9  C   UNL     1      47.225  10.395  12.496  0.00  0.00    +0.000 C 
ATOM     10  N   UNL     1      46.451  11.494  12.268  0.00  0.00    +0.000 N 
ATOM     11  O   UNL     1      48.336  10.537  12.991  0.00  0.00    +0.000 OA
ATOM     12  H   UNL     1      45.575  11.491  11.746  0.00  0.00    +0.000 HD
ATOM     13  H   UNL     1      46.893  12.384  12.428  0.00  0.00    +0.000 HD
ENDBRANCH   5   9
BRANCH   1  14
ATOM     14  C   UNL     1      44.128   4.916  10.526  0.00  0.00    +0.000 C 
BRANCH  14  15
ATOM     15  C   UNL     1      44.435   3.939   9.339  0.00  0.00    +0.000 C 
ATOM     16  C   UNL     1      44.701   2.508   9.839  0.00  0.00    +0.000 C 
ATOM     17  C   UNL     1      45.104   1.556   8.722  0.00  0.00    +0.000 C 
ATOM     18  C   UNL     1      46.294   2.093   7.944  0.00  0.00    +0.000 C 
ATOM     19  C   UNL     1      45.976   3.454   7.346  0.00  0.00    +0.000 C 
ATOM     20  C   UNL     1      45.585   4.447   8.434  0.00  0.00    +0.000 C 
ENDBRANCH  14  15
BRANCH  14  22
ATOM     21  C   UNL     1      43.061   4.702  12.916  0.00  0.00    +0.000 C 
ATOM     22  C   UNL     1      43.041   4.289  11.457  0.00  0.00    +0.000 C 
ENDBRANCH  14  22
ENDBRANCH   1  14
TORSDOF 4
ENDMDL
MODEL 3
REMARK VINA RESULT:    -6.533      3.529      6.680
REMARK INTER + INTRA:          -8.640
REMARK INTER:                  -8.158
REMARK INTRA:                  -0.482
REMARK UNBOUND:                -0.579
REMARK  Name = 
REMARK  5 active torsions:
REMARK  status: ('A' for Active; 'I' for Inactive)
REMARK    1  A    between atoms: C_1  and  C_2
REMARK    2  A    between atoms: C_2  and  C_3
REMARK    3  A    between atoms: C_3  and  N_4
REMARK    4  A    between atoms: C_3  and  C_14
REMARK    5  A    between atoms: C_8  and  C_9
REMARK                            x       y       z     vdW  Elec       q    Type
REMARK                         _______ _______ _______ _____ _____    ______ ____
ROOT
ATOM      1  N   UNL     1      45.408   4.875  11.668  0.00  0.00    +0.000 N 
ATOM      2  C   UNL     1      46.108   5.941  12.289  0.00  0.00    +0.000 A 
ATOM      3  C   UNL     1      47.330   5.628  12.902  0.00  0.00    +0.000 A 
ATOM      4  C   UNL     1      47.977   6.597  13.684  0.00  0.00    +0.000 A 
ATOM      5  C   UNL     1      47.477   7.884  13.750  0.00  0.00    +0.000 A 
ATOM      6  C   UNL     1      46.302   8.127  13.042  0.00  0.00    +0.000 A 
ATOM      7  N   UNL     1      45.595   7.175  12.351  0.00  0.00    +0.000 NA
ATOM      8  H   UNL     1      46.103   4.221  11.337  0.00  0.00    +0.000 HD
ENDROOT
BRANCH   5   9
ATOM      9  C   UNL     1      48.223   8.885  14.552  0.00  0.00    +0.000 C 
ATOM     10  N   UNL     1      47.664   9.370  15.698  0.00  0.00    +0.000 N 
ATOM     11  O   UNL     1      49.323   9.292  14.204  0.00  0.00    +0.000 OA
ATOM     12  H   UNL     1      46.707   9.192  15.999  0.00  0.00    +0.000 HD
ATOM     13  H   UNL     1      48.157  10.127  16.141  0.00  0.00    +0.000 HD
ENDBRANCH   5   9
BRANCH   1  14
ATOM     14  C   UNL     1      44.445   5.206  10.591  0.00  0.00    +0.000 C 
BRANCH  14  15
ATOM     15  C   UNL     1      44.655   4.195   9.411  0.00  0.00    +0.000 C 
ATOM     16  C   UNL     1      44.839   2.757   9.926  0.00  0.00    +0.000 C 
ATOM     17  C   UNL     1      45.148   1.765   8.814  0.00  0.00    +0.000 C 
ATOM     18  C   UNL     1      46.351   2.210   7.997  0.00  0.00    +0.000 C 
ATOM     19  C   UNL     1      46.107   3.582   7.387  0.00  0.00    +0.000 C 
ATOM     20  C   UNL     1      45.813   4.613   8.470  0.00  0.00    +0.000 C 
ENDBRANCH  14  15
BRANCH  14  22
ATOM     21  C   UNL     1      42.778   5.043  12.612  0.00  0.00    +0.000 C 
ATOM     22  C   UNL     1      42.976   5.112  11.110  0.00  0.00    +0.000 C 
ENDBRANCH  14  22
ENDBRANCH   1  14
TORSDOF 4
ENDMDL
MODEL 4
REMARK VINA RESULT:    -6.318      3.042      6.055
REMARK INTER + INTRA:          -8.375
REMARK INTER:                  -9.031
REMARK INTRA:                   0.656
REMARK UNBOUND:                -0.579
REMARK  Name = 
REMARK  5 active torsions:
REMARK  status: ('A' for Active; 'I' for Inactive)
REMARK    1  A    between atoms: C_1  and  C_2
REMARK    2  A    between atoms: C_2  and  C_3
REMARK    3  A    between atoms: C_3  and  N_4
REMARK    4  A    between atoms: C_3  and  C_14
REMARK    5  A    between atoms: C_8  and  C_9
REMARK                            x       y       z     vdW  Elec       q    Type
REMARK                         _______ _______ _______ _____ _____    ______ ____
ROOT
ATOM      1  N   UNL     1      45.445   5.696  10.415  0.00  0.00    +0.000 N 
ATOM      2  C   UNL     1      45.824   5.387  11.746  0.00  0.00    +0.000 A 
ATOM      3  C   UNL     1      46.682   6.292  12.390  0.00  0.00    +0.000 A 
ATOM      4  C   UNL     1      47.233   5.953  13.635  0.00  0.00    +0.000 A 
ATOM      5  C   UNL     1      46.841   4.793  14.276  0.00  0.00    +0.000 A 
ATOM      6  C   UNL     1      45.921   3.994  13.599  0.00  0.00    +0.000 A 
ATOM      7  N   UNL     1      45.442   4.250  12.339  0.00  0.00    +0.000 NA
ATOM      8  H   UNL     1      45.431   6.703  10.339  0.00  0.00    +0.000 HD
ENDROOT
BRANCH   5   9
ATOM      9  C   UNL     1      47.417   4.503  15.612  0.00  0.00    +0.000 C 
ATOM     10  N   UNL     1      48.023   5.506  16.308  0.00  0.00    +0.000 N 
ATOM     11  O   UNL     1      47.369   3.380  16.099  0.00  0.00    +0.000 OA
ATOM     12  H   UNL     1      48.226   6.433  15.936  0.00  0.00    +0.000 HD
ATOM     13  H   UNL     1      48.496   5.231  17.153  0.00  0.00    +0.000 HD
ENDBRANCH   5   9
BRANCH   1  14
ATOM     14  C   UNL     1      44.185   5.114   9.896  0.00  0.00    +0.000 C 
BRANCH  14  15
ATOM     15  C   UNL     1      44.548   3.962   8.895  0.00  0.00    +0.000 C 
ATOM     16  C   UNL     1      44.587   2.594   9.598  0.00  0.00    +0.000 C 
ATOM     17  C   UNL     1      45.037   1.468   8.678  0.00  0.00    +0.000 C 
ATOM     18  C   UNL     1      46.374   1.788   8.030  0.00  0.00    +0.000 C 
ATOM     19  C   UNL     1      46.289   3.079   7.231  0.00  0.00    +0.000 C 
ATOM     20  C   UNL     1      45.860   4.240   8.120  0.00  0.00    +0.000 C 
ENDBRANCH  14  15
BRANCH  14  22
ATOM     21  C   UNL     1      42.275   5.472  11.662  0.00  0.00    +0.000 C 
ATOM     22  C   UNL     1      43.314   4.544  11.061  0.00  0.00    +0.000 C 
ENDBRANCH  14  22
ENDBRANCH   1  14
TORSDOF 4
ENDMDL
MODEL 5
REMARK VINA RESULT:    -6.148      3.312      6.223
REMARK INTER + INTRA:          -8.165
REMARK INTER:                  -8.651
REMARK INTRA:                   0.486
REMARK UNBOUND:                -0.579
REMARK  Name = 
REMARK  5 active torsions:
REMARK  status: ('A' for Active; 'I' for Inactive)
REMARK    1  A    between atoms: C_1  and  C_2
REMARK    2  A    between atoms: C_2  and  C_3
REMARK    3  A    between atoms: C_3  and  N_4
REMARK    4  A    between atoms: C_3  and  C_14
REMARK    5  A    between atoms: C_8  and  C_9
REMARK                            x       y       z     vdW  Elec       q    Type
REMARK                         _______ _______ _______ _____ _____    ______ ____
ROOT
ATOM      1  N   UNL     1      44.084   5.251  10.252  0.00  0.00    +0.000 N 
ATOM      2  C   UNL     1      44.902   6.035  11.105  0.00  0.00    +0.000 A 
ATOM      3  C   UNL     1      44.440   7.320  11.425  0.00  0.00    +0.000 A 
ATOM      4  C   UNL     1      45.283   8.205  12.114  0.00  0.00    +0.000 A 
ATOM      5  C   UNL     1      46.512   7.774  12.578  0.00  0.00    +0.000 A 
ATOM      6  C   UNL     1      46.855   6.456  12.285  0.00  0.00    +0.000 A 
ATOM      7  N   UNL     1      46.094   5.600  11.529  0.00  0.00    +0.000 NA
ATOM      8  H   UNL     1      43.128   5.525  10.428  0.00  0.00    +0.000 HD
ENDROOT
BRANCH   5   9
ATOM      9  C   UNL     1      47.348   8.734  13.341  0.00  0.00    +0.000 C 
ATOM     10  N   UNL     1      47.156   8.861  14.685  0.00  0.00    +0.000 N 
ATOM     11  O   UNL     1      48.198   9.420  12.790  0.00  0.00    +0.000 OA
ATOM     12  H   UNL     1      46.392   8.434  15.206  0.00  0.00    +0.000 HD
ATOM     13  H   UNL     1      47.666   9.604  15.133  0.00  0.00    +0.000 HD
ENDBRANCH   5   9
BRANCH   1  14
ATOM     14  C   UNL     1      44.226   3.777  10.311  0.00  0.00    +0.000 C 
BRANCH  14  15
ATOM     15  C   UNL     1      45.429   3.360   9.396  0.00  0.00    +0.000 C 
ATOM     16  C   UNL     1      45.583   4.311   8.197  0.00  0.00    +0.000 C 
ATOM     17  C   UNL     1      46.677   3.875   7.232  0.00  0.00    +0.000 C 
ATOM     18  C   UNL     1      46.463   2.442   6.769  0.00  0.00    +0.000 C 
ATOM     19  C   UNL     1      46.440   1.493   7.956  0.00  0.00    +0.000 C 
ATOM     20  C   UNL     1      45.343   1.881   8.941  0.00  0.00    +0.000 C 
ENDBRANCH  14  15
BRANCH  14  22
ATOM     21  C   UNL     1      43.403   3.583  12.797  0.00  0.00    +0.000 C 
ATOM     22  C   UNL     1      44.489   3.302  11.775  0.00  0.00    +0.000 C 
ENDBRANCH  14  22
ENDBRANCH   1  14
TORSDOF 4
ENDMDL
MODEL 6
REMARK VINA RESULT:    -5.767      3.740      6.661
REMARK INTER + INTRA:          -7.695
REMARK INTER:                  -7.128
REMARK INTRA:                  -0.567
REMARK UNBOUND:                -0.579
REMARK  Name = 
REMARK  5 active torsions:
REMARK  status: ('A' for Active; 'I' for Inactive)
REMARK    1  A    between atoms: C_1  and  C_2
REMARK    2  A    between atoms: C_2  and  C_3
REMARK    3  A    between atoms: C_3  and  N_4
REMARK    4  A    between atoms: C_3  and  C_14
REMARK    5  A    between atoms: C_8  and  C_9
REMARK                            x       y       z     vdW  Elec       q    Type
REMARK                         _______ _______ _______ _____ _____    ______ ____
ROOT
ATOM      1  N   UNL     1      45.032   4.994  12.742  0.00  0.00    +0.000 N 
ATOM      2  C   UNL     1      46.190   5.354  13.477  0.00  0.00    +0.000 A 
ATOM      3  C   UNL     1      46.589   4.484  14.503  0.00  0.00    +0.000 A 
ATOM      4  C   UNL     1      47.614   4.874  15.378  0.00  0.00    +0.000 A 
ATOM      5  C   UNL     1      48.306   6.049  15.158  0.00  0.00    +0.000 A 
ATOM      6  C   UNL     1      47.897   6.812  14.066  0.00  0.00    +0.000 A 
ATOM      7  N   UNL     1      46.834   6.505  13.253  0.00  0.00    +0.000 NA
ATOM      8  H   UNL     1      44.993   3.985  12.731  0.00  0.00    +0.000 HD
ENDROOT
BRANCH   5   9
ATOM      9  C   UNL     1      49.414   6.394  16.083  0.00  0.00    +0.000 C 
ATOM     10  N   UNL     1      49.655   7.704  16.374  0.00  0.00    +0.000 N 
ATOM     11  O   UNL     1      50.121   5.530  16.584  0.00  0.00    +0.000 OA
ATOM     12  H   UNL     1      49.208   8.494  15.910  0.00  0.00    +0.000 HD
ATOM     13  H   UNL     1      50.484   7.890  16.912  0.00  0.00    +0.000 HD
ENDBRANCH   5   9
BRANCH   1  14
ATOM     14  C   UNL     1      44.877   5.540  11.374  0.00  0.00    +0.000 C 
BRANCH  14  15
ATOM     15  C   UNL     1      45.381   4.463  10.352  0.00  0.00    +0.000 C 
ATOM     16  C   UNL     1      45.728   5.093   8.992  0.00  0.00    +0.000 C 
ATOM     17  C   UNL     1      46.123   4.062   7.944  0.00  0.00    +0.000 C 
ATOM     18  C   UNL     1      45.052   2.993   7.794  0.00  0.00    +0.000 C 
ATOM     19  C   UNL     1      44.807   2.288   9.119  0.00  0.00    +0.000 C 
ATOM     20  C   UNL     1      44.389   3.284  10.194  0.00  0.00    +0.000 C 
ENDBRANCH  14  15
BRANCH  14  22
ATOM     21  C   UNL     1      42.360   5.469  12.116  0.00  0.00    +0.000 C 
ATOM     22  C   UNL     1      43.384   5.888  11.078  0.00  0.00    +0.000 C 
ENDBRANCH  14  22
ENDBRANCH   1  14
TORSDOF 4
ENDMDL
MODEL 7
REMARK VINA RESULT:    -5.710      3.743      6.230
REMARK INTER + INTRA:          -7.625
REMARK INTER:                  -7.002
REMARK INTRA:                  -0.623
REMARK UNBOUND:                -0.579
REMARK  Name = 
REMARK  5 active torsions:
REMARK  status: ('A' for Active; 'I' for Inactive)
REMARK    1  A    between atoms: C_1  and  C_2
REMARK    2  A    between atoms: C_2  and  C_3
REMARK    3  A    between atoms: C_3  and  N_4
REMARK    4  A    between atoms: C_3  and  C_14
REMARK    5  A    between atoms: C_8  and  C_9
REMARK                            x       y       z     vdW  Elec       q    Type
REMARK                         _______ _______ _______ _____ _____    ______ ____
ROOT
ATOM      1  N   UNL     1      45.420   5.685  12.493  0.00  0.00    +0.000 N 
ATOM      2  C   UNL     1      46.669   6.355  12.537  0.00  0.00    +0.000 A 
ATOM      3  C   UNL     1      47.586   5.928  13.509  0.00  0.00    +0.000 A 
ATOM      4  C   UNL     1      48.761   6.666  13.719  0.00  0.00    +0.000 A 
ATOM      5  C   UNL     1      49.070   7.731  12.895  0.00  0.00    +0.000 A 
ATOM      6  C   UNL     1      48.141   8.033  11.902  0.00  0.00    +0.000 A 
ATOM      7  N   UNL     1      46.938   7.393  11.736  0.00  0.00    +0.000 NA
ATOM      8  H   UNL     1      45.584   4.736  12.797  0.00  0.00    +0.000 HD
ENDROOT
BRANCH   5   9
ATOM      9  C   UNL     1      50.347   8.450  13.128  0.00  0.00    +0.000 C 
ATOM     10  N   UNL     1      51.498   7.955  12.589  0.00  0.00    +0.000 N 
ATOM     11  O   UNL     1      50.392   9.471  13.802  0.00  0.00    +0.000 OA
ATOM     12  H   UNL     1      51.582   7.051  12.127  0.00  0.00    +0.000 HD
ATOM     13  H   UNL     1      52.348   8.414  12.871  0.00  0.00    +0.000 HD
ENDBRANCH   5   9
BRANCH   1  14
ATOM     14  C   UNL     1      44.663   5.705  11.220  0.00  0.00    +0.000 C 
BRANCH  14  15
ATOM     15  C   UNL     1      45.241   4.587  10.284  0.00  0.00    +0.000 C 
ATOM     16  C   UNL     1      45.771   5.173   8.964  0.00  0.00    +0.000 C 
ATOM     17  C   UNL     1      46.245   4.105   7.989  0.00  0.00    +0.000 C 
ATOM     18  C   UNL     1      45.158   3.074   7.731  0.00  0.00    +0.000 C 
ATOM     19  C   UNL     1      44.730   2.409   9.029  0.00  0.00    +0.000 C 
ATOM     20  C   UNL     1      44.228   3.443  10.030  0.00  0.00    +0.000 C 
ENDBRANCH  14  15
BRANCH  14  22
ATOM     21  C   UNL     1      42.732   5.073  12.882  0.00  0.00    +0.000 C 
ATOM     22  C   UNL     1      43.143   5.447  11.471  0.00  0.00    +0.000 C 
ENDBRANCH  14  22
ENDBRANCH   1  14
TORSDOF 4
ENDMDL
MODEL 8
REMARK VINA RESULT:    -5.557      3.337      5.442
REMARK INTER + INTRA:          -7.436
REMARK INTER:                  -6.992
REMARK INTRA:                  -0.444
REMARK UNBOUND:                -0.579
REMARK  Name = 
REMARK  5 active torsions:
REMARK  status: ('A' for Active; 'I' for Inactive)
REMARK    1  A    between atoms: C_1  and  C_2
REMARK    2  A    between atoms: C_2  and  C_3
REMARK    3  A    between atoms: C_3  and  N_4
REMARK    4  A    between atoms: C_3  and  C_14
REMARK    5  A    between atoms: C_8  and  C_9
REMARK                            x       y       z     vdW  Elec       q    Type
REMARK                         _______ _______ _______ _____ _____    ______ ____
ROOT
ATOM      1  N   UNL     1      47.013   5.652  14.805  0.00  0.00    +0.000 N 
ATOM      2  C   UNL     1      46.430   5.060  13.656  0.00  0.00    +0.000 A 
ATOM      3  C   UNL     1      46.071   5.921  12.609  0.00  0.00    +0.000 A 
ATOM      4  C   UNL     1      45.329   5.421  11.528  0.00  0.00    +0.000 A 
ATOM      5  C   UNL     1      45.061   4.069  11.436  0.00  0.00    +0.000 A 
ATOM      6  C   UNL     1      45.527   3.274  12.481  0.00  0.00    +0.000 A 
ATOM      7  N   UNL     1      46.167   3.749  13.598  0.00  0.00    +0.000 NA
ATOM      8  H   UNL     1      47.519   6.468  14.491  0.00  0.00    +0.000 HD
ENDROOT
BRANCH   5   9
ATOM      9  C   UNL     1      44.314   3.582  10.250  0.00  0.00    +0.000 C 
ATOM     10  N   UNL     1      44.129   4.419   9.189  0.00  0.00    +0.000 N 
ATOM     11  O   UNL     1      43.851   2.449  10.206  0.00  0.00    +0.000 OA
ATOM     12  H   UNL     1      44.361   5.411   9.185  0.00  0.00    +0.000 HD
ATOM     13  H   UNL     1      43.521   4.081   8.463  0.00  0.00    +0.000 HD
ENDBRANCH   5   9
BRANCH   1  14
ATOM     14  C   UNL     1      47.870   4.804  15.667  0.00  0.00    +0.000 C 
BRANCH  14  15
ATOM     15  C   UNL     1      49.000   5.704  16.277  0.00  0.00    +0.000 C 
ATOM     16  C   UNL     1      48.604   6.248  17.661  0.00  0.00    +0.000 C 
ATOM     17  C   UNL     1      49.635   7.208  18.237  0.00  0.00    +0.000 C 
ATOM     18  C   UNL     1      49.933   8.342  17.269  0.00  0.00    +0.000 C 
ATOM     19  C   UNL     1      50.445   7.797  15.946  0.00  0.00    +0.000 C 
ATOM     20  C   UNL     1      49.433   6.844  15.322  0.00  0.00    +0.000 C 
ENDBRANCH  14  15
BRANCH  14  22
ATOM     21  C   UNL     1      47.549   2.847  17.387  0.00  0.00    +0.000 C 
ATOM     22  C   UNL     1      47.035   4.156  16.816  0.00  0.00    +0.000 C 
ENDBRANCH  14  22
ENDBRANCH   1  14
TORSDOF 4
ENDMDL
MODEL 9
REMARK VINA RESULT:    -5.543      3.371      5.399
REMARK INTER + INTRA:          -7.418
REMARK INTER:                  -6.765
REMARK INTRA:                  -0.653
REMARK UNBOUND:                -0.579
REMARK  Name = 
REMARK  5 active torsions:
REMARK  status: ('A' for Active; 'I' for Inactive)
REMARK    1  A    between atoms: C_1  and  C_2
REMARK    2  A    between atoms: C_2  and  C_3
REMARK    3  A    between atoms: C_3  and  N_4
REMARK    4  A    between atoms: C_3  and  C_14
REMARK    5  A    between atoms: C_8  and  C_9
REMARK                            x       y       z     vdW  Elec       q    Type
REMARK                         _______ _______ _______ _____ _____    ______ ____
ROOT
ATOM      1  N   UNL     1      46.094   7.673  13.172  0.00  0.00    +0.000 N 
ATOM      2  C   UNL     1      45.646   6.452  12.606  0.00  0.00    +0.000 A 
ATOM      3  C   UNL     1      44.528   6.514  11.761  0.00  0.00    +0.000 A 
ATOM      4  C   UNL     1      43.932   5.324  11.318  0.00  0.00    +0.000 A 
ATOM      5  C   UNL     1      44.512   4.105  11.611  0.00  0.00    +0.000 A 
ATOM      6  C   UNL     1      45.668   4.142  12.388  0.00  0.00    +0.000 A 
ATOM      7  N   UNL     1      46.217   5.283  12.918  0.00  0.00    +0.000 NA
ATOM      8  H   UNL     1      45.876   8.402  12.508  0.00  0.00    +0.000 HD
ENDROOT
BRANCH   5   9
ATOM      9  C   UNL     1      43.869   2.878  11.080  0.00  0.00    +0.000 C 
ATOM     10  N   UNL     1      44.364   2.305   9.946  0.00  0.00    +0.000 N 
ATOM     11  O   UNL     1      42.899   2.373  11.632  0.00  0.00    +0.000 OA
ATOM     12  H   UNL     1      45.078   2.720   9.349  0.00  0.00    +0.000 HD
ATOM     13  H   UNL     1      43.824   1.545   9.565  0.00  0.00    +0.000 HD
ENDBRANCH   5   9
BRANCH   1  14
ATOM     14  C   UNL     1      47.509   7.764  13.604  0.00  0.00    +0.000 C 
BRANCH  14  15
ATOM     15  C   UNL     1      48.374   8.207  12.373  0.00  0.00    +0.000 C 
ATOM     16  C   UNL     1      49.734   7.488  12.351  0.00  0.00    +0.000 C 
ATOM     17  C   UNL     1      50.641   7.971  11.228  0.00  0.00    +0.000 C 
ATOM     18  C   UNL     1      50.820   9.480  11.275  0.00  0.00    +0.000 C 
ATOM     19  C   UNL     1      49.477  10.184  11.168  0.00  0.00    +0.000 C 
ATOM     20  C   UNL     1      48.543   9.744  12.288  0.00  0.00    +0.000 C 
ENDBRANCH  14  15
BRANCH  14  22
ATOM     21  C   UNL     1      48.650   8.448  15.867  0.00  0.00    +0.000 C 
ATOM     22  C   UNL     1      47.672   8.799  14.762  0.00  0.00    +0.000 C 
ENDBRANCH  14  22
ENDBRANCH   1  14
TORSDOF 4
ENDMDL
