MODEL 1
REMARK VINA RESULT:    -8.443      0.000      0.000
REMARK INTER + INTRA:         -11.703
REMARK INTER:                 -10.910
REMARK INTRA:                  -0.793
REMARK UNBOUND:                -0.793
REMARK  Name = 
REMARK  5 active torsions:
REMARK  status: ('A' for Active; 'I' for Inactive)
REMARK    1  A    between atoms: C_2  and  C_4
REMARK    2  A    between atoms: C_7  and  N_8
REMARK    3  A    between atoms: N_8  and  C_9
REMARK    4  A    between atoms: C_9  and  C_10
REMARK    5  A    between atoms: C_14  and  N_15
REMARK                            x       y       z     vdW  Elec       q    Type
REMARK                         _______ _______ _______ _____ _____    ______ ____
ROOT
ATOM      1  N   UNL     1      43.532   4.721   9.698  0.00  0.00    +0.000 N 
ATOM      2  H   UNL     1      42.667   4.716   9.159  0.00  0.00    +0.000 HD
ENDROOT
BRANCH   1   6
ATOM      3  C   UNL     1      46.399   2.266   7.817  0.00  0.00    +0.000 A 
ATOM      4  C   UNL     1      46.418   3.642   7.589  0.00  0.00    +0.000 A 
ATOM      5  C   UNL     1      45.486   4.469   8.226  0.00  0.00    +0.000 A 
ATOM      6  C   UNL     1      44.544   3.954   9.124  0.00  0.00    +0.000 A 
ATOM      7  C   UNL     1      44.538   2.567   9.338  0.00  0.00    +0.000 A 
ATOM      8  C   UNL     1      45.453   1.728   8.689  0.00  0.00    +0.000 A 
BRANCH   3  10
ATOM      9  N   UNL     1      48.354   1.918   6.403  0.00  0.00    +0.000 N 
ATOM     10  C   UNL     1      47.328   1.349   7.107  0.00  0.00    +0.000 C 
ATOM     11  O   UNL     1      47.202   0.133   7.164  0.00  0.00    +0.000 OA
ATOM     12  H   UNL     1      49.025   1.281   5.994  0.00  0.00    +0.000 HD
ATOM     13  H   UNL     1      48.634   2.880   6.532  0.00  0.00    +0.000 HD
ENDBRANCH   3  10
ENDBRANCH   1   6
BRANCH   1  14
ATOM     14  C   UNL     1      43.347   4.752  11.142  0.00  0.00    +0.000 C 
BRANCH  14  15
ATOM     15  C   UNL     1      44.350   5.665  11.784  0.00  0.00    +0.000 A 
ATOM     16  C   UNL     1      44.424   7.005  11.430  0.00  0.00    +0.000 A 
ATOM     17  N   UNL     1      45.312   7.871  11.955  0.00  0.00    +0.000 NA
ATOM     18  C   UNL     1      46.176   7.365  12.871  0.00  0.00    +0.000 A 
ATOM     19  C   UNL     1      46.206   6.044  13.326  0.00  0.00    +0.000 A 
ATOM     20  C   UNL     1      45.240   5.205  12.765  0.00  0.00    +0.000 A 
BRANCH  19  21
ATOM     21  N   UNL     1      47.149   5.558  14.200  0.00  0.00    +0.000 N 
ATOM     22  C   UNL     1      47.176   4.150  14.613  0.00  0.00    +0.000 C 
ATOM     23  C   UNL     1      47.464   4.100  16.123  0.00  0.00    +0.000 C 
ATOM     24  O   UNL     1      48.699   4.764  16.444  0.00  0.00    +0.000 OA
ATOM     25  C   UNL     1      48.642   6.149  16.054  0.00  0.00    +0.000 C 
ATOM     26  C   UNL     1      48.363   6.309  14.549  0.00  0.00    +0.000 C 
ENDBRANCH  19  21
ENDBRANCH  14  15
ENDBRANCH   1  14
TORSDOF 5
ENDMDL
MODEL 2
REMARK VINA RESULT:    -8.421      1.903      2.998
REMARK INTER + INTRA:         -11.675
REMARK INTER:                 -10.841
REMARK INTRA:                  -0.834
REMARK UNBOUND:                -0.793
REMARK  Name = 
REMARK  5 active torsions:
REMARK  status: ('A' for Active; 'I' for Inactive)
REMARK    1  A    between atoms: C_2  and  C_4
REMARK    2  A    between atoms: C_7  and  N_8
REMARK    3  A    between atoms: N_8  and  C_9
REMARK    4  A    between atoms: C_9  and  C_10
REMARK    5  A    between atoms: C_14  and  N_15
REMARK                            x       y       z     vdW  Elec       q    Type
REMARK                         _______ _______ _______ _____ _____    ______ ____
ROOT
ATOM      1  N   UNL     1      43.761   4.893   9.842  0.00  0.00    +0.000 N 
ATOM      2  H   UNL     1      42.961   5.235   9.311  0.00  0.00    +0.000 HD
ENDROOT
BRANCH   1   6
ATOM      3  C   UNL     1      46.367   2.261   7.824  0.00  0.00    +0.000 A 
ATOM      4  C   UNL     1      45.392   1.743   8.678  0.00  0.00    +0.000 A 
ATOM      5  C   UNL     1      44.507   2.605   9.333  0.00  0.00    +0.000 A 
ATOM      6  C   UNL     1      44.549   3.990   9.132  0.00  0.00    +0.000 A 
ATOM      7  C   UNL     1      45.539   4.493   8.274  0.00  0.00    +0.000 A 
ATOM      8  C   UNL     1      46.443   3.640   7.627  0.00  0.00    +0.000 A 
BRANCH   3  10
ATOM      9  N   UNL     1      48.421   1.991   6.539  0.00  0.00    +0.000 N 
ATOM     10  C   UNL     1      47.367   1.382   7.163  0.00  0.00    +0.000 C 
ATOM     11  O   UNL     1      47.271   0.163   7.193  0.00  0.00    +0.000 OA
ATOM     12  H   UNL     1      49.135   1.380   6.167  0.00  0.00    +0.000 HD
ATOM     13  H   UNL     1      48.664   2.958   6.702  0.00  0.00    +0.000 HD
ENDBRANCH   3  10
ENDBRANCH   1   6
BRANCH   1  14
ATOM     14  C   UNL     1      43.511   4.708  11.265  0.00  0.00    +0.000 C 
BRANCH  14  15
ATOM     15  C   UNL     1      44.794   4.788  12.040  0.00  0.00    +0.000 A 
ATOM     16  C   UNL     1      45.220   3.727  12.827  0.00  0.00    +0.000 A 
ATOM     17  N   UNL     1      46.350   3.744  13.559  0.00  0.00    +0.000 NA
ATOM     18  C   UNL     1      47.083   4.884  13.510  0.00  0.00    +0.000 A 
ATOM     19  C   UNL     1      46.779   6.020  12.754  0.00  0.00    +0.000 A 
ATOM     20  C   UNL     1      45.610   5.928  11.993  0.00  0.00    +0.000 A 
BRANCH  19  21
ATOM     21  N   UNL     1      47.511   7.183  12.793  0.00  0.00    +0.000 N 
ATOM     22  C   UNL     1      46.922   8.461  13.209  0.00  0.00    +0.000 C 
ATOM     23  C   UNL     1      47.439   9.557  12.261  0.00  0.00    +0.000 C 
ATOM     24  O   UNL     1      48.876   9.616  12.262  0.00  0.00    +0.000 OA
ATOM     25  C   UNL     1      49.433   8.362  11.827  0.00  0.00    +0.000 C 
ATOM     26  C   UNL     1      48.978   7.194  12.719  0.00  0.00    +0.000 C 
ENDBRANCH  19  21
ENDBRANCH  14  15
ENDBRANCH   1  14
TORSDOF 5
ENDMDL
MODEL 3
REMARK VINA RESULT:    -6.851      2.791      7.019
REMARK INTER + INTRA:          -9.646
REMARK INTER:                  -8.947
REMARK INTRA:                  -0.699
REMARK UNBOUND:                -0.793
REMARK  Name = 
REMARK  5 active torsions:
REMARK  status: ('A' for Active; 'I' for Inactive)
REMARK    1  A    between atoms: C_2  and  C_4
REMARK    2  A    between atoms: C_7  and  N_8
REMARK    3  A    between atoms: N_8  and  C_9
REMARK    4  A    between atoms: C_9  and  C_10
REMARK    5  A    between atoms: C_14  and  N_15
REMARK                            x       y       z     vdW  Elec       q    Type
REMARK                         _______ _______ _______ _____ _____    ______ ____
ROOT
ATOM      1  N   UNL     1      46.342   6.141  13.714  0.00  0.00    +0.000 N 
ATOM      2  H   UNL     1      46.191   6.192  14.720  0.00  0.00    +0.000 HD
ENDROOT
BRANCH   1   6
ATOM      3  C   UNL     1      49.967   7.888  12.451  0.00  0.00    +0.000 A 
ATOM      4  C   UNL     1      49.824   7.486  13.779  0.00  0.00    +0.000 A 
ATOM      5  C   UNL     1      48.635   6.884  14.204  0.00  0.00    +0.000 A 
ATOM      6  C   UNL     1      47.581   6.639  13.316  0.00  0.00    +0.000 A 
ATOM      7  C   UNL     1      47.741   7.054  11.985  0.00  0.00    +0.000 A 
ATOM      8  C   UNL     1      48.920   7.676  11.554  0.00  0.00    +0.000 A 
BRANCH   3  10
ATOM      9  N   UNL     1      52.390   8.155  12.466  0.00  0.00    +0.000 N 
ATOM     10  C   UNL     1      51.188   8.592  11.980  0.00  0.00    +0.000 C 
ATOM     11  O   UNL     1      51.131   9.509  11.172  0.00  0.00    +0.000 OA
ATOM     12  H   UNL     1      53.216   8.587  12.075  0.00  0.00    +0.000 HD
ATOM     13  H   UNL     1      52.497   7.263  12.929  0.00  0.00    +0.000 HD
ENDBRANCH   3  10
ENDBRANCH   1   6
BRANCH   1  14
ATOM     14  C   UNL     1      45.150   6.374  12.909  0.00  0.00    +0.000 C 
BRANCH  14  15
ATOM     15  C   UNL     1      44.662   5.090  12.306  0.00  0.00    +0.000 A 
ATOM     16  C   UNL     1      43.840   4.232  13.022  0.00  0.00    +0.000 A 
ATOM     17  N   UNL     1      43.383   3.058  12.545  0.00  0.00    +0.000 NA
ATOM     18  C   UNL     1      43.779   2.724  11.291  0.00  0.00    +0.000 A 
ATOM     19  C   UNL     1      44.592   3.495  10.457  0.00  0.00    +0.000 A 
ATOM     20  C   UNL     1      45.008   4.714  11.000  0.00  0.00    +0.000 A 
BRANCH  19  21
ATOM     21  N   UNL     1      45.030   3.082   9.221  0.00  0.00    +0.000 N 
ATOM     22  C   UNL     1      45.069   1.665   8.841  0.00  0.00    +0.000 C 
ATOM     23  C   UNL     1      46.384   1.408   8.086  0.00  0.00    +0.000 C 
ATOM     24  O   UNL     1      46.504   2.263   6.935  0.00  0.00    +0.000 OA
ATOM     25  C   UNL     1      46.489   3.647   7.332  0.00  0.00    +0.000 C 
ATOM     26  C   UNL     1      45.204   4.010   8.095  0.00  0.00    +0.000 C 
ENDBRANCH  19  21
ENDBRANCH  14  15
ENDBRANCH   1  14
TORSDOF 5
ENDMDL
MODEL 4
REMARK VINA RESULT:    -6.777      1.350      2.247
REMARK INTER + INTRA:          -9.551
REMARK INTER:                  -8.880
REMARK INTRA:                  -0.671
REMARK UNBOUND:                -0.793
REMARK  Name = 
REMARK  5 active torsions:
REMARK  status: ('A' for Active; 'I' for Inactive)
REMARK    1  A    between atoms: C_2  and  C_4
REMARK    2  A    between atoms: C_7  and  N_8
REMARK    3  A    between atoms: N_8  and  C_9
REMARK    4  A    between atoms: C_9  and  C_10
REMARK    5  A    between atoms: C_14  and  N_15
REMARK                            x       y       z     vdW  Elec       q    Type
REMARK                         _______ _______ _______ _____ _____    ______ ____
ROOT
ATOM      1  N   UNL     1      44.875   5.033  10.952  0.00  0.00    +0.000 N 
ATOM      2  H   UNL     1      44.921   4.474  11.803  0.00  0.00    +0.000 HD
ENDROOT
BRANCH   1   6
ATOM      3  C   UNL     1      46.330   2.982   7.567  0.00  0.00    +0.000 A 
ATOM      4  C   UNL     1      45.644   2.275   8.556  0.00  0.00    +0.000 A 
ATOM      5  C   UNL     1      45.136   2.950   9.671  0.00  0.00    +0.000 A 
ATOM      6  C   UNL     1      45.268   4.336   9.812  0.00  0.00    +0.000 A 
ATOM      7  C   UNL     1      45.966   5.029   8.810  0.00  0.00    +0.000 A 
ATOM      8  C   UNL     1      46.495   4.360   7.698  0.00  0.00    +0.000 A 
BRANCH   3  10
ATOM      9  N   UNL     1      47.265   3.057   5.317  0.00  0.00    +0.000 N 
ATOM     10  C   UNL     1      46.941   2.290   6.402  0.00  0.00    +0.000 C 
ATOM     11  O   UNL     1      47.171   1.088   6.416  0.00  0.00    +0.000 OA
ATOM     12  H   UNL     1      47.755   2.588   4.567  0.00  0.00    +0.000 HD
ATOM     13  H   UNL     1      47.321   4.065   5.361  0.00  0.00    +0.000 HD
ENDBRANCH   3  10
ENDBRANCH   1   6
BRANCH   1  14
ATOM     14  C   UNL     1      45.226   6.436  11.128  0.00  0.00    +0.000 C 
BRANCH  14  15
ATOM     15  C   UNL     1      46.453   6.569  11.983  0.00  0.00    +0.000 A 
ATOM     16  C   UNL     1      47.564   7.267  11.533  0.00  0.00    +0.000 A 
ATOM     17  N   UNL     1      48.699   7.408  12.244  0.00  0.00    +0.000 NA
ATOM     18  C   UNL     1      48.725   6.808  13.461  0.00  0.00    +0.000 A 
ATOM     19  C   UNL     1      47.678   6.087  14.040  0.00  0.00    +0.000 A 
ATOM     20  C   UNL     1      46.518   6.004  13.264  0.00  0.00    +0.000 A 
BRANCH  19  21
ATOM     21  N   UNL     1      47.775   5.432  15.245  0.00  0.00    +0.000 N 
ATOM     22  C   UNL     1      48.413   6.044  16.416  0.00  0.00    +0.000 C 
ATOM     23  C   UNL     1      49.276   4.973  17.106  0.00  0.00    +0.000 C 
ATOM     24  O   UNL     1      48.491   3.826  17.476  0.00  0.00    +0.000 OA
ATOM     25  C   UNL     1      47.894   3.226  16.311  0.00  0.00    +0.000 C 
ATOM     26  C   UNL     1      47.002   4.221  15.549  0.00  0.00    +0.000 C 
ENDBRANCH  19  21
ENDBRANCH  14  15
ENDBRANCH   1  14
TORSDOF 5
ENDMDL
MODEL 5
REMARK VINA RESULT:    -6.767      1.883      7.793
REMARK INTER + INTRA:          -9.538
REMARK INTER:                  -8.949
REMARK INTRA:                  -0.588
REMARK UNBOUND:                -0.793
REMARK  Name = 
REMARK  5 active torsions:
REMARK  status: ('A' for Active; 'I' for Inactive)
REMARK    1  A    between atoms: C_2  and  C_4
REMARK    2  A    between atoms: C_7  and  N_8
REMARK    3  A    between atoms: N_8  and  C_9
REMARK    4  A    between atoms: C_9  and  C_10
REMARK    5  A    between atoms: C_14  and  N_15
REMARK                            x       y       z     vdW  Elec       q    Type
REMARK                         _______ _______ _______ _____ _____    ______ ____
ROOT
ATOM      1  N   UNL     1      47.026   6.037  13.125  0.00  0.00    +0.000 N 
ATOM      2  H   UNL     1      47.497   5.625  12.321  0.00  0.00    +0.000 HD
ENDROOT
BRANCH   1   6
ATOM      3  C   UNL     1      48.407   4.896  16.943  0.00  0.00    +0.000 A 
ATOM      4  C   UNL     1      47.535   4.056  16.248  0.00  0.00    +0.000 A 
ATOM      5  C   UNL     1      47.089   4.413  14.972  0.00  0.00    +0.000 A 
ATOM      6  C   UNL     1      47.523   5.588  14.346  0.00  0.00    +0.000 A 
ATOM      7  C   UNL     1      48.397   6.422  15.062  0.00  0.00    +0.000 A 
ATOM      8  C   UNL     1      48.834   6.084  16.349  0.00  0.00    +0.000 A 
BRANCH   3  10
ATOM      9  N   UNL     1      49.145   3.277  18.610  0.00  0.00    +0.000 N 
ATOM     10  C   UNL     1      48.848   4.582  18.327  0.00  0.00    +0.000 C 
ATOM     11  O   UNL     1      48.967   5.454  19.177  0.00  0.00    +0.000 OA
ATOM     12  H   UNL     1      49.522   3.092  19.530  0.00  0.00    +0.000 HD
ATOM     13  H   UNL     1      49.297   2.586  17.889  0.00  0.00    +0.000 HD
ENDBRANCH   3  10
ENDBRANCH   1   6
BRANCH   1  14
ATOM     14  C   UNL     1      45.600   6.268  12.939  0.00  0.00    +0.000 C 
BRANCH  14  15
ATOM     15  C   UNL     1      44.954   5.082  12.283  0.00  0.00    +0.000 A 
ATOM     16  C   UNL     1      43.991   4.336  12.946  0.00  0.00    +0.000 A 
ATOM     17  N   UNL     1      43.388   3.253  12.421  0.00  0.00    +0.000 NA
ATOM     18  C   UNL     1      43.779   2.894  11.172  0.00  0.00    +0.000 A 
ATOM     19  C   UNL     1      44.726   3.558  10.388  0.00  0.00    +0.000 A 
ATOM     20  C   UNL     1      45.292   4.691  10.980  0.00  0.00    +0.000 A 
BRANCH  19  21
ATOM     21  N   UNL     1      45.148   3.114   9.157  0.00  0.00    +0.000 N 
ATOM     22  C   UNL     1      45.143   1.692   8.798  0.00  0.00    +0.000 C 
ATOM     23  C   UNL     1      46.447   1.384   8.043  0.00  0.00    +0.000 C 
ATOM     24  O   UNL     1      46.588   2.219   6.879  0.00  0.00    +0.000 OA
ATOM     25  C   UNL     1      46.615   3.608   7.255  0.00  0.00    +0.000 C 
ATOM     26  C   UNL     1      45.344   4.020   8.017  0.00  0.00    +0.000 C 
ENDBRANCH  19  21
ENDBRANCH  14  15
ENDBRANCH   1  14
TORSDOF 5
ENDMDL
MODEL 6
REMARK VINA RESULT:    -6.653      2.054      7.035
REMARK INTER + INTRA:          -9.390
REMARK INTER:                  -8.625
REMARK INTRA:                  -0.765
REMARK UNBOUND:                -0.793
REMARK  Name = 
REMARK  5 active torsions:
REMARK  status: ('A' for Active; 'I' for Inactive)
REMARK    1  A    between atoms: C_2  and  C_4
REMARK    2  A    between atoms: C_7  and  N_8
REMARK    3  A    between atoms: N_8  and  C_9
REMARK    4  A    between atoms: C_9  and  C_10
REMARK    5  A    between atoms: C_14  and  N_15
REMARK                            x       y       z     vdW  Elec       q    Type
REMARK                         _______ _______ _______ _____ _____    ______ ____
ROOT
ATOM      1  N   UNL     1      43.933   6.321  12.706  0.00  0.00    +0.000 N 
ATOM      2  H   UNL     1      43.328   6.869  13.317  0.00  0.00    +0.000 HD
ENDROOT
BRANCH   1   6
ATOM      3  C   UNL     1      47.964   7.313  13.446  0.00  0.00    +0.000 A 
ATOM      4  C   UNL     1      47.565   5.977  13.496  0.00  0.00    +0.000 A 
ATOM      5  C   UNL     1      46.236   5.634  13.229  0.00  0.00    +0.000 A 
ATOM      6  C   UNL     1      45.287   6.601  12.875  0.00  0.00    +0.000 A 
ATOM      7  C   UNL     1      45.706   7.940  12.834  0.00  0.00    +0.000 A 
ATOM      8  C   UNL     1      47.030   8.296  13.119  0.00  0.00    +0.000 A 
BRANCH   3  10
ATOM      9  N   UNL     1      50.334   7.425  12.886  0.00  0.00    +0.000 N 
ATOM     10  C   UNL     1      49.351   7.722  13.789  0.00  0.00    +0.000 C 
ATOM     11  O   UNL     1      49.607   8.322  14.825  0.00  0.00    +0.000 OA
ATOM     12  H   UNL     1      51.257   7.782  13.094  0.00  0.00    +0.000 HD
ATOM     13  H   UNL     1      50.133   7.161  11.932  0.00  0.00    +0.000 HD
ENDBRANCH   3  10
ENDBRANCH   1   6
BRANCH   1  14
ATOM     14  C   UNL     1      43.383   6.064  11.381  0.00  0.00    +0.000 C 
BRANCH  14  15
ATOM     15  C   UNL     1      43.594   4.630  10.992  0.00  0.00    +0.000 A 
ATOM     16  C   UNL     1      43.081   3.598  11.763  0.00  0.00    +0.000 A 
ATOM     17  N   UNL     1      43.250   2.293  11.478  0.00  0.00    +0.000 NA
ATOM     18  C   UNL     1      43.981   2.009  10.371  0.00  0.00    +0.000 A 
ATOM     19  C   UNL     1      44.545   2.946   9.500  0.00  0.00    +0.000 A 
ATOM     20  C   UNL     1      44.307   4.282   9.836  0.00  0.00    +0.000 A 
BRANCH  19  21
ATOM     21  N   UNL     1      45.342   2.613   8.431  0.00  0.00    +0.000 N 
ATOM     22  C   UNL     1      45.685   1.221   8.118  0.00  0.00    +0.000 C 
ATOM     23  C   UNL     1      47.174   1.170   7.732  0.00  0.00    +0.000 C 
ATOM     24  O   UNL     1      47.458   2.043   6.624  0.00  0.00    +0.000 OA
ATOM     25  C   UNL     1      47.138   3.406   6.960  0.00  0.00    +0.000 C 
ATOM     26  C   UNL     1      45.660   3.565   7.358  0.00  0.00    +0.000 C 
ENDBRANCH  19  21
ENDBRANCH  14  15
ENDBRANCH   1  14
TORSDOF 5
ENDMDL
MODEL 7
REMARK VINA RESULT:    -6.591      3.434      7.790
REMARK INTER + INTRA:          -9.311
REMARK INTER:                  -8.663
REMARK INTRA:                  -0.648
REMARK UNBOUND:                -0.793
REMARK  Name = 
REMARK  5 active torsions:
REMARK  status: ('A' for Active; 'I' for Inactive)
REMARK    1  A    between atoms: C_2  and  C_4
REMARK    2  A    between atoms: C_7  and  N_8
REMARK    3  A    between atoms: N_8  and  C_9
REMARK    4  A    between atoms: C_9  and  C_10
REMARK    5  A    between atoms: C_14  and  N_15
REMARK                            x       y       z     vdW  Elec       q    Type
REMARK                         _______ _______ _______ _____ _____    ______ ____
ROOT
ATOM      1  N   UNL     1      48.103   5.240  16.491  0.00  0.00    +0.000 N 
ATOM      2  H   UNL     1      47.364   5.392  17.177  0.00  0.00    +0.000 HD
ENDROOT
BRANCH   1   6
ATOM      3  C   UNL     1      51.043   2.390  17.502  0.00  0.00    +0.000 A 
ATOM      4  C   UNL     1      51.312   3.748  17.680  0.00  0.00    +0.000 A 
ATOM      5  C   UNL     1      50.336   4.701  17.370  0.00  0.00    +0.000 A 
ATOM      6  C   UNL     1      49.067   4.327  16.912  0.00  0.00    +0.000 A 
ATOM      7  C   UNL     1      48.816   2.957  16.735  0.00  0.00    +0.000 A 
ATOM      8  C   UNL     1      49.794   1.996  17.023  0.00  0.00    +0.000 A 
BRANCH   3  10
ATOM      9  N   UNL     1      51.645   0.123  18.165  0.00  0.00    +0.000 N 
ATOM     10  C   UNL     1      52.078   1.354  17.755  0.00  0.00    +0.000 C 
ATOM     11  O   UNL     1      53.269   1.578  17.583  0.00  0.00    +0.000 OA
ATOM     12  H   UNL     1      52.352  -0.595  18.253  0.00  0.00    +0.000 HD
ATOM     13  H   UNL     1      50.682  -0.170  18.080  0.00  0.00    +0.000 HD
ENDBRANCH   3  10
ENDBRANCH   1   6
BRANCH   1  14
ATOM     14  C   UNL     1      48.478   6.424  15.731  0.00  0.00    +0.000 C 
BRANCH  14  15
ATOM     15  C   UNL     1      47.896   6.369  14.348  0.00  0.00    +0.000 A 
ATOM     16  C   UNL     1      48.399   7.167  13.330  0.00  0.00    +0.000 A 
ATOM     17  N   UNL     1      47.910   7.177  12.075  0.00  0.00    +0.000 NA
ATOM     18  C   UNL     1      46.857   6.355  11.833  0.00  0.00    +0.000 A 
ATOM     19  C   UNL     1      46.261   5.494  12.758  0.00  0.00    +0.000 A 
ATOM     20  C   UNL     1      46.834   5.509  14.033  0.00  0.00    +0.000 A 
BRANCH  19  21
ATOM     21  N   UNL     1      45.148   4.735  12.489  0.00  0.00    +0.000 N 
ATOM     22  C   UNL     1      45.244   3.333  12.066  0.00  0.00    +0.000 C 
ATOM     23  C   UNL     1      44.223   3.102  10.939  0.00  0.00    +0.000 C 
ATOM     24  O   UNL     1      42.888   3.431  11.365  0.00  0.00    +0.000 OA
ATOM     25  C   UNL     1      42.810   4.816  11.752  0.00  0.00    +0.000 C 
ATOM     26  C   UNL     1      43.795   5.150  12.885  0.00  0.00    +0.000 C 
ENDBRANCH  19  21
ENDBRANCH  14  15
ENDBRANCH   1  14
TORSDOF 5
ENDMDL
MODEL 8
REMARK VINA RESULT:    -6.122      2.809      4.664
REMARK INTER + INTRA:          -8.704
REMARK INTER:                  -8.017
REMARK INTRA:                  -0.686
REMARK UNBOUND:                -0.793
REMARK  Name = 
REMARK  5 active torsions:
REMARK  status: ('A' for Active; 'I' for Inactive)
REMARK    1  A    between atoms: C_2  and  C_4
REMARK    2  A    between atoms: C_7  and  N_8
REMARK    3  A    between atoms: N_8  and  C_9
REMARK    4  A    between atoms: C_9  and  C_10
REMARK    5  A    between atoms: C_14  and  N_15
REMARK                            x       y       z     vdW  Elec       q    Type
REMARK                         _______ _______ _______ _____ _____    ______ ____
ROOT
ATOM      1  N   UNL     1      46.562   7.604  12.669  0.00  0.00    +0.000 N 
ATOM      2  H   UNL     1      46.289   7.969  13.581  0.00  0.00    +0.000 HD
ENDROOT
BRANCH   1   6
ATOM      3  C   UNL     1      44.523   4.142  11.388  0.00  0.00    +0.000 A 
ATOM      4  C   UNL     1      44.455   4.523  12.729  0.00  0.00    +0.000 A 
ATOM      5  C   UNL     1      45.107   5.683  13.160  0.00  0.00    +0.000 A 
ATOM      6  C   UNL     1      45.810   6.502  12.269  0.00  0.00    +0.000 A 
ATOM      7  C   UNL     1      45.871   6.101  10.925  0.00  0.00    +0.000 A 
ATOM      8  C   UNL     1      45.238   4.931  10.486  0.00  0.00    +0.000 A 
BRANCH   3  10
ATOM      9  N   UNL     1      44.473   2.273   9.824  0.00  0.00    +0.000 N 
ATOM     10  C   UNL     1      43.899   2.882  10.907  0.00  0.00    +0.000 C 
ATOM     11  O   UNL     1      42.928   2.390  11.465  0.00  0.00    +0.000 OA
ATOM     12  H   UNL     1      44.090   1.375   9.560  0.00  0.00    +0.000 HD
ATOM     13  H   UNL     1      45.400   2.506   9.498  0.00  0.00    +0.000 HD
ENDBRANCH   3  10
ENDBRANCH   1   6
BRANCH   1  14
ATOM     14  C   UNL     1      47.989   7.676  12.389  0.00  0.00    +0.000 C 
BRANCH  14  15
ATOM     15  C   UNL     1      48.785   7.390  13.629  0.00  0.00    +0.000 A 
ATOM     16  C   UNL     1      50.049   7.934  13.808  0.00  0.00    +0.000 A 
ATOM     17  N   UNL     1      50.819   7.702  14.887  0.00  0.00    +0.000 NA
ATOM     18  C   UNL     1      50.302   6.874  15.829  0.00  0.00    +0.000 A 
ATOM     19  C   UNL     1      49.043   6.268  15.783  0.00  0.00    +0.000 A 
ATOM     20  C   UNL     1      48.282   6.573  14.651  0.00  0.00    +0.000 A 
BRANCH  19  21
ATOM     21  N   UNL     1      48.590   5.374  16.724  0.00  0.00    +0.000 N 
ATOM     22  C   UNL     1      48.849   5.553  18.157  0.00  0.00    +0.000 C 
ATOM     23  C   UNL     1      49.218   4.183  18.751  0.00  0.00    +0.000 C 
ATOM     24  O   UNL     1      48.177   3.215  18.523  0.00  0.00    +0.000 OA
ATOM     25  C   UNL     1      47.956   3.037  17.112  0.00  0.00    +0.000 C 
ATOM     26  C   UNL     1      47.574   4.357  16.421  0.00  0.00    +0.000 C 
ENDBRANCH  19  21
ENDBRANCH  14  15
ENDBRANCH   1  14
TORSDOF 5
ENDMDL
MODEL 9
REMARK VINA RESULT:    -5.961      3.642      6.300
REMARK INTER + INTRA:          -8.496
REMARK INTER:                  -7.920
REMARK INTRA:                  -0.576
REMARK UNBOUND:                -0.793
REMARK  Name = 
REMARK  5 active torsions:
REMARK  status: ('A' for Active; 'I' for Inactive)
REMARK    1  A    between atoms: C_2  and  C_4
REMARK    2  A    between atoms: C_7  and  N_8
REMARK    3  A    between atoms: N_8  and  C_9
REMARK    4  A    between atoms: C_9  and  C_10
REMARK    5  A    between atoms: C_14  and  N_15
REMARK                            x       y       z     vdW  Elec       q    Type
REMARK                         _______ _______ _______ _____ _____    ______ ____
ROOT
ATOM      1  N   UNL     1      47.340   5.167  15.138  0.00  0.00    +0.000 N 
ATOM      2  H   UNL     1      47.450   6.159  15.345  0.00  0.00    +0.000 HD
ENDROOT
BRANCH   1   6
ATOM      3  C   UNL     1      44.994   4.291  11.744  0.00  0.00    +0.000 A 
ATOM      4  C   UNL     1      45.159   5.618  12.142  0.00  0.00    +0.000 A 
ATOM      5  C   UNL     1      45.954   5.923  13.251  0.00  0.00    +0.000 A 
ATOM      6  C   UNL     1      46.626   4.924  13.967  0.00  0.00    +0.000 A 
ATOM      7  C   UNL     1      46.445   3.595  13.556  0.00  0.00    +0.000 A 
ATOM      8  C   UNL     1      45.635   3.277  12.457  0.00  0.00    +0.000 A 
BRANCH   3  10
ATOM      9  N   UNL     1      43.898   4.869   9.645  0.00  0.00    +0.000 N 
ATOM     10  C   UNL     1      44.104   3.924  10.613  0.00  0.00    +0.000 C 
ATOM     11  O   UNL     1      43.591   2.816  10.530  0.00  0.00    +0.000 OA
ATOM     12  H   UNL     1      43.358   4.578   8.841  0.00  0.00    +0.000 HD
ATOM     13  H   UNL     1      44.486   5.685   9.550  0.00  0.00    +0.000 HD
ENDBRANCH   3  10
ENDBRANCH   1   6
BRANCH   1  14
ATOM     14  C   UNL     1      47.164   4.319  16.309  0.00  0.00    +0.000 C 
BRANCH  14  15
ATOM     15  C   UNL     1      48.457   3.650  16.675  0.00  0.00    +0.000 A 
ATOM     16  C   UNL     1      48.747   2.368  16.231  0.00  0.00    +0.000 A 
ATOM     17  N   UNL     1      49.880   1.707  16.538  0.00  0.00    +0.000 NA
ATOM     18  C   UNL     1      50.759   2.360  17.339  0.00  0.00    +0.000 A 
ATOM     19  C   UNL     1      50.600   3.652  17.846  0.00  0.00    +0.000 A 
ATOM     20  C   UNL     1      49.418   4.295  17.466  0.00  0.00    +0.000 A 
BRANCH  19  21
ATOM     21  N   UNL     1      51.483   4.246  18.717  0.00  0.00    +0.000 N 
ATOM     22  C   UNL     1      51.085   5.350  19.598  0.00  0.00    +0.000 C 
ATOM     23  C   UNL     1      52.214   6.395  19.596  0.00  0.00    +0.000 C 
ATOM     24  O   UNL     1      53.464   5.816  20.012  0.00  0.00    +0.000 OA
ATOM     25  C   UNL     1      53.848   4.753  19.121  0.00  0.00    +0.000 C 
ATOM     26  C   UNL     1      52.781   3.647  19.055  0.00  0.00    +0.000 C 
ENDBRANCH  19  21
ENDBRANCH  14  15
ENDBRANCH   1  14
TORSDOF 5
ENDMDL
