MODEL 1
REMARK VINA RESULT:    -8.169      0.000      0.000
REMARK INTER + INTRA:         -11.414
REMARK INTER:                 -10.796
REMARK INTRA:                  -0.618
REMARK UNBOUND:                -0.618
REMARK  Name = 
REMARK  6 active torsions:
REMARK  status: ('A' for Active; 'I' for Inactive)
REMARK    1  A    between atoms: N_1  and  C_2
REMARK    2  A    between atoms: C_2  and  C_3
REMARK    3  A    between atoms: C_3  and  C_4
REMARK    4  A    between atoms: C_7  and  C_8
REMARK    5  A    between atoms: C_8  and  N_9
REMARK    6  A    between atoms: C_15  and  C_16
REMARK                            x       y       z     vdW  Elec       q    Type
REMARK                         _______ _______ _______ _____ _____    ______ ____
ROOT
ATOM      1  N   UNL     1      44.626   6.052  11.639  0.00  0.00    +0.000 N 
ATOM      2  C   UNL     1      44.795   7.360  11.269  0.00  0.00    +0.000 A 
ATOM      3  N   UNL     1      45.762   7.940  11.943  0.00  0.00    +0.000 NA
ATOM      4  C   UNL     1      46.235   6.976  12.787  0.00  0.00    +0.000 A 
ATOM      5  N   UNL     1      47.263   7.129  13.650  0.00  0.00    +0.000 NA
ATOM      6  C   UNL     1      47.552   6.027  14.380  0.00  0.00    +0.000 A 
ATOM      7  C   UNL     1      46.876   4.810  14.319  0.00  0.00    +0.000 A 
ATOM      8  C   UNL     1      45.833   4.653  13.403  0.00  0.00    +0.000 A 
ATOM      9  C   UNL     1      45.531   5.782  12.636  0.00  0.00    +0.000 A 
ENDROOT
BRANCH   7  10
ATOM     10  C   UNL     1      47.303   3.712  15.215  0.00  0.00    +0.000 C 
ATOM     11  N   UNL     1      46.919   3.781  16.525  0.00  0.00    +0.000 N 
ATOM     12  O   UNL     1      48.002   2.793  14.809  0.00  0.00    +0.000 OA
ATOM     13  H   UNL     1      46.577   4.633  16.949  0.00  0.00    +0.000 HD
ATOM     14  H   UNL     1      47.319   3.084  17.142  0.00  0.00    +0.000 HD
ENDBRANCH   7  10
BRANCH   1  15
ATOM     15  C   UNL     1      43.742   5.105  10.978  0.00  0.00    +0.000 C 
BRANCH  15  19
ATOM     16  C   UNL     1      45.901   2.549   8.226  0.00  0.00    +0.000 A 
ATOM     17  C   UNL     1      44.993   2.005   9.142  0.00  0.00    +0.000 A 
ATOM     18  C   UNL     1      44.294   2.829  10.028  0.00  0.00    +0.000 A 
ATOM     19  C   UNL     1      44.478   4.219  10.007  0.00  0.00    +0.000 A 
ATOM     20  C   UNL     1      45.365   4.762   9.066  0.00  0.00    +0.000 A 
ATOM     21  C   UNL     1      46.068   3.937   8.185  0.00  0.00    +0.000 A 
BRANCH  16  22
ATOM     22  C   UNL     1      46.702   1.651   7.312  0.00  0.00    +0.000 C 
BRANCH  22  23
ATOM     23  C   UNL     1      48.019   2.285   6.857  0.00  0.00    +0.000 C 
BRANCH  23  24
ATOM     24  N   UNL     1      48.464   1.702   5.590  0.00  0.00    +0.000 NA
ATOM     25  H   UNL     1      48.211   2.323   4.822  0.00  0.00    +0.000 HD
ATOM     26  H   UNL     1      47.967   0.828   5.422  0.00  0.00    +0.000 HD
ENDBRANCH  23  24
ENDBRANCH  22  23
ENDBRANCH  16  22
ENDBRANCH  15  19
ENDBRANCH   1  15
TORSDOF 6
ENDMDL
MODEL 2
REMARK VINA RESULT:    -7.625      2.230      3.092
REMARK INTER + INTRA:         -10.694
REMARK INTER:                 -10.003
REMARK INTRA:                  -0.691
REMARK UNBOUND:                -0.618
REMARK  Name = 
REMARK  6 active torsions:
REMARK  status: ('A' for Active; 'I' for Inactive)
REMARK    1  A    between atoms: N_1  and  C_2
REMARK    2  A    between atoms: C_2  and  C_3
REMARK    3  A    between atoms: C_3  and  C_4
REMARK    4  A    between atoms: C_7  and  C_8
REMARK    5  A    between atoms: C_8  and  N_9
REMARK    6  A    between atoms: C_15  and  C_16
REMARK                            x       y       z     vdW  Elec       q    Type
REMARK                         _______ _______ _______ _____ _____    ______ ____
ROOT
ATOM      1  N   UNL     1      45.382   5.057  12.221  0.00  0.00    +0.000 N 
ATOM      2  C   UNL     1      45.093   4.318  13.338  0.00  0.00    +0.000 A 
ATOM      3  N   UNL     1      45.977   4.506  14.292  0.00  0.00    +0.000 NA
ATOM      4  C   UNL     1      46.876   5.394  13.775  0.00  0.00    +0.000 A 
ATOM      5  N   UNL     1      47.945   5.895  14.432  0.00  0.00    +0.000 NA
ATOM      6  C   UNL     1      48.690   6.765  13.710  0.00  0.00    +0.000 A 
ATOM      7  C   UNL     1      48.451   7.141  12.390  0.00  0.00    +0.000 A 
ATOM      8  C   UNL     1      47.327   6.639  11.730  0.00  0.00    +0.000 A 
ATOM      9  C   UNL     1      46.544   5.747  12.468  0.00  0.00    +0.000 A 
ENDROOT
BRANCH   7  10
ATOM     10  C   UNL     1      49.388   8.082  11.737  0.00  0.00    +0.000 C 
ATOM     11  N   UNL     1      50.692   7.691  11.616  0.00  0.00    +0.000 N 
ATOM     12  O   UNL     1      49.019   9.182  11.349  0.00  0.00    +0.000 OA
ATOM     13  H   UNL     1      51.084   6.925  12.146  0.00  0.00    +0.000 HD
ATOM     14  H   UNL     1      51.337   8.395  11.274  0.00  0.00    +0.000 HD
ENDBRANCH   7  10
BRANCH   1  15
ATOM     15  C   UNL     1      44.520   5.182  11.057  0.00  0.00    +0.000 C 
BRANCH  15  19
ATOM     16  C   UNL     1      45.862   2.655   7.805  0.00  0.00    +0.000 A 
ATOM     17  C   UNL     1      45.164   2.111   8.888  0.00  0.00    +0.000 A 
ATOM     18  C   UNL     1      44.727   2.926   9.936  0.00  0.00    +0.000 A 
ATOM     19  C   UNL     1      44.969   4.307   9.916  0.00  0.00    +0.000 A 
ATOM     20  C   UNL     1      45.642   4.852   8.812  0.00  0.00    +0.000 A 
ATOM     21  C   UNL     1      46.083   4.036   7.767  0.00  0.00    +0.000 A 
BRANCH  16  22
ATOM     22  C   UNL     1      46.387   1.764   6.703  0.00  0.00    +0.000 C 
BRANCH  22  23
ATOM     23  C   UNL     1      47.311   2.499   5.729  0.00  0.00    +0.000 C 
BRANCH  23  24
ATOM     24  N   UNL     1      48.615   1.840   5.654  0.00  0.00    +0.000 NA
ATOM     25  H   UNL     1      48.663   1.275   4.807  0.00  0.00    +0.000 HD
ATOM     26  H   UNL     1      48.717   1.190   6.433  0.00  0.00    +0.000 HD
ENDBRANCH  23  24
ENDBRANCH  22  23
ENDBRANCH  16  22
ENDBRANCH  15  19
ENDBRANCH   1  15
TORSDOF 6
ENDMDL
MODEL 3
REMARK VINA RESULT:    -7.537      2.571      3.953
REMARK INTER + INTRA:         -10.578
REMARK INTER:                  -9.997
REMARK INTRA:                  -0.581
REMARK UNBOUND:                -0.618
REMARK  Name = 
REMARK  6 active torsions:
REMARK  status: ('A' for Active; 'I' for Inactive)
REMARK    1  A    between atoms: N_1  and  C_2
REMARK    2  A    between atoms: C_2  and  C_3
REMARK    3  A    between atoms: C_3  and  C_4
REMARK    4  A    between atoms: C_7  and  C_8
REMARK    5  A    between atoms: C_8  and  N_9
REMARK    6  A    between atoms: C_15  and  C_16
REMARK                            x       y       z     vdW  Elec       q    Type
REMARK                         _______ _______ _______ _____ _____    ______ ____
ROOT
ATOM      1  N   UNL     1      44.945   5.444  11.623  0.00  0.00    +0.000 N 
ATOM      2  C   UNL     1      45.815   4.855  12.502  0.00  0.00    +0.000 A 
ATOM      3  N   UNL     1      46.420   5.740  13.262  0.00  0.00    +0.000 NA
ATOM      4  C   UNL     1      45.930   6.949  12.857  0.00  0.00    +0.000 A 
ATOM      5  N   UNL     1      46.260   8.144  13.395  0.00  0.00    +0.000 NA
ATOM      6  C   UNL     1      45.639   9.206  12.827  0.00  0.00    +0.000 A 
ATOM      7  C   UNL     1      44.744   9.150  11.761  0.00  0.00    +0.000 A 
ATOM      8  C   UNL     1      44.388   7.906  11.231  0.00  0.00    +0.000 A 
ATOM      9  C   UNL     1      45.015   6.802  11.816  0.00  0.00    +0.000 A 
ENDROOT
BRANCH   7  10
ATOM     10  C   UNL     1      44.179  10.413  11.238  0.00  0.00    +0.000 C 
ATOM     11  N   UNL     1      43.156  10.986  11.941  0.00  0.00    +0.000 N 
ATOM     12  O   UNL     1      44.588  10.913  10.198  0.00  0.00    +0.000 OA
ATOM     13  H   UNL     1      42.625  10.483  12.639  0.00  0.00    +0.000 HD
ATOM     14  H   UNL     1      42.709  11.783  11.504  0.00  0.00    +0.000 HD
ENDBRANCH   7  10
BRANCH   1  15
ATOM     15  C   UNL     1      44.021   4.729  10.757  0.00  0.00    +0.000 C 
BRANCH  15  19
ATOM     16  C   UNL     1      46.117   2.348   7.808  0.00  0.00    +0.000 A 
ATOM     17  C   UNL     1      45.333   1.735   8.792  0.00  0.00    +0.000 A 
ATOM     18  C   UNL     1      44.653   2.503   9.741  0.00  0.00    +0.000 A 
ATOM     19  C   UNL     1      44.734   3.902   9.719  0.00  0.00    +0.000 A 
ATOM     20  C   UNL     1      45.496   4.512   8.712  0.00  0.00    +0.000 A 
ATOM     21  C   UNL     1      46.179   3.744   7.766  0.00  0.00    +0.000 A 
BRANCH  16  22
ATOM     22  C   UNL     1      46.900   1.514   6.820  0.00  0.00    +0.000 C 
BRANCH  22  23
ATOM     23  C   UNL     1      48.243   2.143   6.439  0.00  0.00    +0.000 C 
BRANCH  23  24
ATOM     24  N   UNL     1      48.273   2.480   5.016  0.00  0.00    +0.000 NA
ATOM     25  H   UNL     1      47.737   3.333   4.857  0.00  0.00    +0.000 HD
ATOM     26  H   UNL     1      47.806   1.749   4.480  0.00  0.00    +0.000 HD
ENDBRANCH  23  24
ENDBRANCH  22  23
ENDBRANCH  16  22
ENDBRANCH  15  19
ENDBRANCH   1  15
TORSDOF 6
ENDMDL
MODEL 4
REMARK VINA RESULT:    -7.061      2.047      2.290
REMARK INTER + INTRA:          -9.949
REMARK INTER:                  -9.629
REMARK INTRA:                  -0.319
REMARK UNBOUND:                -0.618
REMARK  Name = 
REMARK  6 active torsions:
REMARK  status: ('A' for Active; 'I' for Inactive)
REMARK    1  A    between atoms: N_1  and  C_2
REMARK    2  A    between atoms: C_2  and  C_3
REMARK    3  A    between atoms: C_3  and  C_4
REMARK    4  A    between atoms: C_7  and  C_8
REMARK    5  A    between atoms: C_8  and  N_9
REMARK    6  A    between atoms: C_15  and  C_16
REMARK                            x       y       z     vdW  Elec       q    Type
REMARK                         _______ _______ _______ _____ _____    ______ ____
ROOT
ATOM      1  N   UNL     1      44.545   6.042  11.728  0.00  0.00    +0.000 N 
ATOM      2  C   UNL     1      43.636   6.981  11.315  0.00  0.00    +0.000 A 
ATOM      3  N   UNL     1      44.109   8.202  11.424  0.00  0.00    +0.000 NA
ATOM      4  C   UNL     1      45.367   8.052  11.931  0.00  0.00    +0.000 A 
ATOM      5  N   UNL     1      46.235   9.059  12.177  0.00  0.00    +0.000 NA
ATOM      6  C   UNL     1      47.428   8.661  12.678  0.00  0.00    +0.000 A 
ATOM      7  C   UNL     1      47.794   7.347  12.965  0.00  0.00    +0.000 A 
ATOM      8  C   UNL     1      46.899   6.312  12.680  0.00  0.00    +0.000 A 
ATOM      9  C   UNL     1      45.667   6.709  12.153  0.00  0.00    +0.000 A 
ENDROOT
BRANCH   7  10
ATOM     10  C   UNL     1      49.131   7.090  13.542  0.00  0.00    +0.000 C 
ATOM     11  N   UNL     1      50.219   7.387  12.769  0.00  0.00    +0.000 N 
ATOM     12  O   UNL     1      49.262   6.599  14.655  0.00  0.00    +0.000 OA
ATOM     13  H   UNL     1      50.155   7.540  11.772  0.00  0.00    +0.000 HD
ATOM     14  H   UNL     1      51.118   7.094  13.136  0.00  0.00    +0.000 HD
ENDBRANCH   7  10
BRANCH   1  15
ATOM     15  C   UNL     1      44.379   4.604  11.591  0.00  0.00    +0.000 C 
BRANCH  15  19
ATOM     16  C   UNL     1      45.854   3.127   7.796  0.00  0.00    +0.000 A 
ATOM     17  C   UNL     1      45.232   2.262   8.704  0.00  0.00    +0.000 A 
ATOM     18  C   UNL     1      44.752   2.739   9.927  0.00  0.00    +0.000 A 
ATOM     19  C   UNL     1      44.874   4.095  10.263  0.00  0.00    +0.000 A 
ATOM     20  C   UNL     1      45.470   4.962   9.336  0.00  0.00    +0.000 A 
ATOM     21  C   UNL     1      45.955   4.485   8.116  0.00  0.00    +0.000 A 
BRANCH  16  22
ATOM     22  C   UNL     1      46.427   2.599   6.501  0.00  0.00    +0.000 C 
BRANCH  22  23
ATOM     23  C   UNL     1      47.615   1.657   6.714  0.00  0.00    +0.000 C 
BRANCH  23  24
ATOM     24  N   UNL     1      48.618   1.843   5.665  0.00  0.00    +0.000 NA
ATOM     25  H   UNL     1      49.090   2.737   5.800  0.00  0.00    +0.000 HD
ATOM     26  H   UNL     1      48.159   1.900   4.757  0.00  0.00    +0.000 HD
ENDBRANCH  23  24
ENDBRANCH  22  23
ENDBRANCH  16  22
ENDBRANCH  15  19
ENDBRANCH   1  15
TORSDOF 6
ENDMDL
MODEL 5
REMARK VINA RESULT:    -6.853      2.627      6.709
REMARK INTER + INTRA:          -9.674
REMARK INTER:                  -9.181
REMARK INTRA:                  -0.493
REMARK UNBOUND:                -0.618
REMARK  Name = 
REMARK  6 active torsions:
REMARK  status: ('A' for Active; 'I' for Inactive)
REMARK    1  A    between atoms: N_1  and  C_2
REMARK    2  A    between atoms: C_2  and  C_3
REMARK    3  A    between atoms: C_3  and  C_4
REMARK    4  A    between atoms: C_7  and  C_8
REMARK    5  A    between atoms: C_8  and  N_9
REMARK    6  A    between atoms: C_15  and  C_16
REMARK                            x       y       z     vdW  Elec       q    Type
REMARK                         _______ _______ _______ _____ _____    ______ ____
ROOT
ATOM      1  N   UNL     1      43.882   5.102  11.074  0.00  0.00    +0.000 N 
ATOM      2  C   UNL     1      43.055   4.334  11.851  0.00  0.00    +0.000 A 
ATOM      3  N   UNL     1      43.076   3.071  11.489  0.00  0.00    +0.000 NA
ATOM      4  C   UNL     1      43.942   3.017  10.436  0.00  0.00    +0.000 A 
ATOM      5  N   UNL     1      44.290   1.895   9.768  0.00  0.00    +0.000 NA
ATOM      6  C   UNL     1      45.172   2.093   8.759  0.00  0.00    +0.000 A 
ATOM      7  C   UNL     1      45.700   3.322   8.369  0.00  0.00    +0.000 A 
ATOM      8  C   UNL     1      45.356   4.472   9.085  0.00  0.00    +0.000 A 
ATOM      9  C   UNL     1      44.454   4.279  10.135  0.00  0.00    +0.000 A 
ENDROOT
BRANCH   7  10
ATOM     10  C   UNL     1      46.630   3.364   7.220  0.00  0.00    +0.000 C 
ATOM     11  N   UNL     1      47.517   2.333   7.088  0.00  0.00    +0.000 N 
ATOM     12  O   UNL     1      46.632   4.303   6.434  0.00  0.00    +0.000 OA
ATOM     13  H   UNL     1      47.724   1.691   7.841  0.00  0.00    +0.000 HD
ATOM     14  H   UNL     1      48.220   2.441   6.365  0.00  0.00    +0.000 HD
ENDBRANCH   7  10
BRANCH   1  15
ATOM     15  C   UNL     1      44.193   6.503  11.317  0.00  0.00    +0.000 C 
BRANCH  15  19
ATOM     16  C   UNL     1      47.973   6.992  13.373  0.00  0.00    +0.000 A 
ATOM     17  C   UNL     1      47.484   7.998  12.532  0.00  0.00    +0.000 A 
ATOM     18  C   UNL     1      46.262   7.842  11.871  0.00  0.00    +0.000 A 
ATOM     19  C   UNL     1      45.497   6.681  12.048  0.00  0.00    +0.000 A 
ATOM     20  C   UNL     1      45.977   5.690  12.916  0.00  0.00    +0.000 A 
ATOM     21  C   UNL     1      47.201   5.843  13.573  0.00  0.00    +0.000 A 
BRANCH  16  22
ATOM     22  C   UNL     1      49.322   7.136  14.039  0.00  0.00    +0.000 C 
BRANCH  22  23
ATOM     23  C   UNL     1      49.243   7.087  15.567  0.00  0.00    +0.000 C 
BRANCH  23  24
ATOM     24  N   UNL     1      50.243   6.166  16.108  0.00  0.00    +0.000 NA
ATOM     25  H   UNL     1      50.989   6.035  15.426  0.00  0.00    +0.000 HD
ATOM     26  H   UNL     1      49.824   5.248  16.249  0.00  0.00    +0.000 HD
ENDBRANCH  23  24
ENDBRANCH  22  23
ENDBRANCH  16  22
ENDBRANCH  15  19
ENDBRANCH   1  15
TORSDOF 6
ENDMDL
MODEL 6
REMARK VINA RESULT:    -6.099      2.957      7.001
REMARK INTER + INTRA:          -8.678
REMARK INTER:                  -8.084
REMARK INTRA:                  -0.594
REMARK UNBOUND:                -0.618
REMARK  Name = 
REMARK  6 active torsions:
REMARK  status: ('A' for Active; 'I' for Inactive)
REMARK    1  A    between atoms: N_1  and  C_2
REMARK    2  A    between atoms: C_2  and  C_3
REMARK    3  A    between atoms: C_3  and  C_4
REMARK    4  A    between atoms: C_7  and  C_8
REMARK    5  A    between atoms: C_8  and  N_9
REMARK    6  A    between atoms: C_15  and  C_16
REMARK                            x       y       z     vdW  Elec       q    Type
REMARK                         _______ _______ _______ _____ _____    ______ ____
ROOT
ATOM      1  N   UNL     1      46.681   6.671  12.373  0.00  0.00    +0.000 N 
ATOM      2  C   UNL     1      46.248   7.969  12.445  0.00  0.00    +0.000 A 
ATOM      3  N   UNL     1      44.981   8.083  12.115  0.00  0.00    +0.000 NA
ATOM      4  C   UNL     1      44.577   6.814  11.813  0.00  0.00    +0.000 A 
ATOM      5  N   UNL     1      43.325   6.460  11.449  0.00  0.00    +0.000 NA
ATOM      6  C   UNL     1      43.165   5.138  11.203  0.00  0.00    +0.000 A 
ATOM      7  C   UNL     1      44.165   4.170  11.275  0.00  0.00    +0.000 A 
ATOM      8  C   UNL     1      45.450   4.544  11.680  0.00  0.00    +0.000 A 
ATOM      9  C   UNL     1      45.625   5.905  11.946  0.00  0.00    +0.000 A 
ENDROOT
BRANCH   7  10
ATOM     10  C   UNL     1      43.826   2.770  10.940  0.00  0.00    +0.000 C 
ATOM     11  N   UNL     1      44.491   2.192   9.896  0.00  0.00    +0.000 N 
ATOM     12  O   UNL     1      42.959   2.160  11.553  0.00  0.00    +0.000 OA
ATOM     13  H   UNL     1      45.008   2.729   9.213  0.00  0.00    +0.000 HD
ATOM     14  H   UNL     1      44.161   1.277   9.611  0.00  0.00    +0.000 HD
ENDBRANCH   7  10
BRANCH   1  15
ATOM     15  C   UNL     1      47.983   6.200  12.817  0.00  0.00    +0.000 C 
BRANCH  15  19
ATOM     16  C   UNL     1      48.016   5.391  17.072  0.00  0.00    +0.000 A 
ATOM     17  C   UNL     1      47.386   4.511  16.184  0.00  0.00    +0.000 A 
ATOM     18  C   UNL     1      47.378   4.770  14.811  0.00  0.00    +0.000 A 
ATOM     19  C   UNL     1      48.013   5.909  14.295  0.00  0.00    +0.000 A 
ATOM     20  C   UNL     1      48.669   6.770  15.186  0.00  0.00    +0.000 A 
ATOM     21  C   UNL     1      48.672   6.514  16.559  0.00  0.00    +0.000 A 
BRANCH  16  22
ATOM     22  C   UNL     1      47.971   5.142  18.562  0.00  0.00    +0.000 C 
BRANCH  22  23
ATOM     23  C   UNL     1      48.964   4.070  19.019  0.00  0.00    +0.000 C 
BRANCH  23  24
ATOM     24  N   UNL     1      48.267   2.966  19.679  0.00  0.00    +0.000 NA
ATOM     25  H   UNL     1      48.874   2.147  19.705  0.00  0.00    +0.000 HD
ATOM     26  H   UNL     1      47.452   2.696  19.129  0.00  0.00    +0.000 HD
ENDBRANCH  23  24
ENDBRANCH  22  23
ENDBRANCH  16  22
ENDBRANCH  15  19
ENDBRANCH   1  15
TORSDOF 6
ENDMDL
MODEL 7
REMARK VINA RESULT:    -5.917      3.513      7.467
REMARK INTER + INTRA:          -8.437
REMARK INTER:                  -7.906
REMARK INTRA:                  -0.531
REMARK UNBOUND:                -0.618
REMARK  Name = 
REMARK  6 active torsions:
REMARK  status: ('A' for Active; 'I' for Inactive)
REMARK    1  A    between atoms: N_1  and  C_2
REMARK    2  A    between atoms: C_2  and  C_3
REMARK    3  A    between atoms: C_3  and  C_4
REMARK    4  A    between atoms: C_7  and  C_8
REMARK    5  A    between atoms: C_8  and  N_9
REMARK    6  A    between atoms: C_15  and  C_16
REMARK                            x       y       z     vdW  Elec       q    Type
REMARK                         _______ _______ _______ _____ _____    ______ ____
ROOT
ATOM      1  N   UNL     1      47.546   5.405  15.022  0.00  0.00    +0.000 N 
ATOM      2  C   UNL     1      48.442   6.395  14.714  0.00  0.00    +0.000 A 
ATOM      3  N   UNL     1      48.268   6.851  13.494  0.00  0.00    +0.000 NA
ATOM      4  C   UNL     1      47.226   6.128  12.989  0.00  0.00    +0.000 A 
ATOM      5  N   UNL     1      46.686   6.290  11.761  0.00  0.00    +0.000 NA
ATOM      6  C   UNL     1      45.655   5.456  11.487  0.00  0.00    +0.000 A 
ATOM      7  C   UNL     1      45.154   4.474  12.339  0.00  0.00    +0.000 A 
ATOM      8  C   UNL     1      45.701   4.335  13.618  0.00  0.00    +0.000 A 
ATOM      9  C   UNL     1      46.760   5.197  13.916  0.00  0.00    +0.000 A 
ENDROOT
BRANCH   7  10
ATOM     10  C   UNL     1      44.039   3.624  11.868  0.00  0.00    +0.000 C 
ATOM     11  N   UNL     1      43.874   2.408  12.470  0.00  0.00    +0.000 N 
ATOM     12  O   UNL     1      43.309   3.978  10.951  0.00  0.00    +0.000 OA
ATOM     13  H   UNL     1      44.595   1.975  13.032  0.00  0.00    +0.000 HD
ATOM     14  H   UNL     1      43.182   1.796  12.054  0.00  0.00    +0.000 HD
ENDBRANCH   7  10
BRANCH   1  15
ATOM     15  C   UNL     1      47.385   4.806  16.338  0.00  0.00    +0.000 C 
BRANCH  15  19
ATOM     16  C   UNL     1      50.702   2.199  17.316  0.00  0.00    +0.000 A 
ATOM     17  C   UNL     1      50.700   3.535  17.730  0.00  0.00    +0.000 A 
ATOM     18  C   UNL     1      49.628   4.376  17.418  0.00  0.00    +0.000 A 
ATOM     19  C   UNL     1      48.528   3.893  16.695  0.00  0.00    +0.000 A 
ATOM     20  C   UNL     1      48.521   2.545  16.310  0.00  0.00    +0.000 A 
ATOM     21  C   UNL     1      49.595   1.706  16.617  0.00  0.00    +0.000 A 
BRANCH  16  22
ATOM     22  C   UNL     1      51.889   1.308  17.601  0.00  0.00    +0.000 C 
BRANCH  22  23
ATOM     23  C   UNL     1      53.176   2.093  17.866  0.00  0.00    +0.000 C 
BRANCH  23  24
ATOM     24  N   UNL     1      53.546   2.019  19.280  0.00  0.00    +0.000 NA
ATOM     25  H   UNL     1      53.604   2.960  19.666  0.00  0.00    +0.000 HD
ATOM     26  H   UNL     1      54.479   1.618  19.369  0.00  0.00    +0.000 HD
ENDBRANCH  23  24
ENDBRANCH  22  23
ENDBRANCH  16  22
ENDBRANCH  15  19
ENDBRANCH   1  15
TORSDOF 6
ENDMDL
MODEL 8
REMARK VINA RESULT:    -5.794      3.572      5.359
REMARK INTER + INTRA:          -8.274
REMARK INTER:                  -7.602
REMARK INTRA:                  -0.672
REMARK UNBOUND:                -0.618
REMARK  Name = 
REMARK  6 active torsions:
REMARK  status: ('A' for Active; 'I' for Inactive)
REMARK    1  A    between atoms: N_1  and  C_2
REMARK    2  A    between atoms: C_2  and  C_3
REMARK    3  A    between atoms: C_3  and  C_4
REMARK    4  A    between atoms: C_7  and  C_8
REMARK    5  A    between atoms: C_8  and  N_9
REMARK    6  A    between atoms: C_15  and  C_16
REMARK                            x       y       z     vdW  Elec       q    Type
REMARK                         _______ _______ _______ _____ _____    ______ ____
ROOT
ATOM      1  N   UNL     1      48.559   7.442  15.152  0.00  0.00    +0.000 N 
ATOM      2  C   UNL     1      48.623   8.783  15.425  0.00  0.00    +0.000 A 
ATOM      3  N   UNL     1      48.760   9.016  16.711  0.00  0.00    +0.000 NA
ATOM      4  C   UNL     1      48.780   7.782  17.295  0.00  0.00    +0.000 A 
ATOM      5  N   UNL     1      48.936   7.546  18.617  0.00  0.00    +0.000 NA
ATOM      6  C   UNL     1      48.926   6.236  18.958  0.00  0.00    +0.000 A 
ATOM      7  C   UNL     1      48.750   5.168  18.081  0.00  0.00    +0.000 A 
ATOM      8  C   UNL     1      48.618   5.422  16.713  0.00  0.00    +0.000 A 
ATOM      9  C   UNL     1      48.637   6.770  16.347  0.00  0.00    +0.000 A 
ENDROOT
BRANCH   7  10
ATOM     10  C   UNL     1      48.733   3.793  18.628  0.00  0.00    +0.000 C 
ATOM     11  N   UNL     1      48.480   3.649  19.963  0.00  0.00    +0.000 N 
ATOM     12  O   UNL     1      48.970   2.822  17.921  0.00  0.00    +0.000 OA
ATOM     13  H   UNL     1      48.542   4.417  20.617  0.00  0.00    +0.000 HD
ATOM     14  H   UNL     1      48.590   2.713  20.337  0.00  0.00    +0.000 HD
ENDBRANCH   7  10
BRANCH   1  15
ATOM     15  C   UNL     1      48.559   6.861  13.818  0.00  0.00    +0.000 C 
BRANCH  15  19
ATOM     16  C   UNL     1      44.713   5.125  12.841  0.00  0.00    +0.000 A 
ATOM     17  C   UNL     1      44.918   6.506  12.738  0.00  0.00    +0.000 A 
ATOM     18  C   UNL     1      46.160   7.066  13.050  0.00  0.00    +0.000 A 
ATOM     19  C   UNL     1      47.228   6.254  13.459  0.00  0.00    +0.000 A 
ATOM     20  C   UNL     1      47.025   4.868  13.530  0.00  0.00    +0.000 A 
ATOM     21  C   UNL     1      45.782   4.309  13.224  0.00  0.00    +0.000 A 
BRANCH  16  22
ATOM     22  C   UNL     1      43.353   4.528  12.563  0.00  0.00    +0.000 C 
BRANCH  22  23
ATOM     23  C   UNL     1      43.335   3.635  11.320  0.00  0.00    +0.000 C 
BRANCH  23  24
ATOM     24  N   UNL     1      43.017   2.253  11.679  0.00  0.00    +0.000 NA
ATOM     25  H   UNL     1      43.783   1.858  12.224  0.00  0.00    +0.000 HD
ATOM     26  H   UNL     1      42.948   1.686  10.835  0.00  0.00    +0.000 HD
ENDBRANCH  23  24
ENDBRANCH  22  23
ENDBRANCH  16  22
ENDBRANCH  15  19
ENDBRANCH   1  15
TORSDOF 6
ENDMDL
MODEL 9
REMARK VINA RESULT:    -5.676      4.181      6.352
REMARK INTER + INTRA:          -8.119
REMARK INTER:                  -7.811
REMARK INTRA:                  -0.308
REMARK UNBOUND:                -0.618
REMARK  Name = 
REMARK  6 active torsions:
REMARK  status: ('A' for Active; 'I' for Inactive)
REMARK    1  A    between atoms: N_1  and  C_2
REMARK    2  A    between atoms: C_2  and  C_3
REMARK    3  A    between atoms: C_3  and  C_4
REMARK    4  A    between atoms: C_7  and  C_8
REMARK    5  A    between atoms: C_8  and  N_9
REMARK    6  A    between atoms: C_15  and  C_16
REMARK                            x       y       z     vdW  Elec       q    Type
REMARK                         _______ _______ _______ _____ _____    ______ ____
ROOT
ATOM      1  N   UNL     1      47.245   6.954  13.035  0.00  0.00    +0.000 N 
ATOM      2  C   UNL     1      48.004   6.612  14.123  0.00  0.00    +0.000 A 
ATOM      3  N   UNL     1      47.821   5.359  14.474  0.00  0.00    +0.000 NA
ATOM      4  C   UNL     1      46.906   4.871  13.585  0.00  0.00    +0.000 A 
ATOM      5  N   UNL     1      46.445   3.601  13.557  0.00  0.00    +0.000 NA
ATOM      6  C   UNL     1      45.543   3.353  12.579  0.00  0.00    +0.000 A 
ATOM      7  C   UNL     1      45.064   4.283  11.658  0.00  0.00    +0.000 A 
ATOM      8  C   UNL     1      45.568   5.587  11.679  0.00  0.00    +0.000 A 
ATOM      9  C   UNL     1      46.508   5.852  12.678  0.00  0.00    +0.000 A 
ENDROOT
BRANCH   7  10
ATOM     10  C   UNL     1      44.050   3.851  10.671  0.00  0.00    +0.000 C 
ATOM     11  N   UNL     1      43.939   4.581   9.521  0.00  0.00    +0.000 N 
ATOM     12  O   UNL     1      43.314   2.898  10.888  0.00  0.00    +0.000 OA
ATOM     13  H   UNL     1      44.332   5.507   9.421  0.00  0.00    +0.000 HD
ATOM     14  H   UNL     1      43.163   4.339   8.915  0.00  0.00    +0.000 HD
ENDBRANCH   7  10
BRANCH   1  15
ATOM     15  C   UNL     1      47.336   8.217  12.318  0.00  0.00    +0.000 C 
BRANCH  15  19
ATOM     16  C   UNL     1      51.366   9.121  11.012  0.00  0.00    +0.000 A 
ATOM     17  C   UNL     1      50.524  10.136  11.481  0.00  0.00    +0.000 A 
ATOM     18  C   UNL     1      49.225   9.845  11.906  0.00  0.00    +0.000 A 
ATOM     19  C   UNL     1      48.745   8.527  11.883  0.00  0.00    +0.000 A 
ATOM     20  C   UNL     1      49.603   7.510  11.442  0.00  0.00    +0.000 A 
ATOM     21  C   UNL     1      50.900   7.802  11.012  0.00  0.00    +0.000 A 
BRANCH  16  22
ATOM     22  C   UNL     1      52.748   9.446  10.495  0.00  0.00    +0.000 C 
BRANCH  22  23
ATOM     23  C   UNL     1      52.783   9.669   8.981  0.00  0.00    +0.000 C 
BRANCH  23  24
ATOM     24  N   UNL     1      53.155   8.437   8.285  0.00  0.00    +0.000 NA
ATOM     25  H   UNL     1      54.080   8.138   8.593  0.00  0.00    +0.000 HD
ATOM     26  H   UNL     1      53.236   8.619   7.285  0.00  0.00    +0.000 HD
ENDBRANCH  23  24
ENDBRANCH  22  23
ENDBRANCH  16  22
ENDBRANCH  15  19
ENDBRANCH   1  15
TORSDOF 6
ENDMDL
