MODEL 1
REMARK VINA RESULT:    -8.192      0.000      0.000
REMARK INTER + INTRA:         -12.013
REMARK INTER:                 -11.305
REMARK INTRA:                  -0.708
REMARK UNBOUND:                -0.708
REMARK  Name = 
REMARK  7 active torsions:
REMARK  status: ('A' for Active; 'I' for Inactive)
REMARK    1  A    between atoms: C_2  and  C_21
REMARK    2  A    between atoms: N_3  and  C_4
REMARK    3  A    between atoms: C_4  and  C_5
REMARK    4  A    between atoms: C_8  and  C_9
REMARK    5  A    between atoms: C_9  and  C_10
REMARK    6  A    between atoms: C_10  and  O_11
REMARK    7  A    between atoms: C_10  and  C_12
REMARK                            x       y       z     vdW  Elec       q    Type
REMARK                         _______ _______ _______ _____ _____    ______ ____
ROOT
ATOM      1  C   UNL     1      47.491   6.472  13.132  0.00  0.00    +0.000 A 
ATOM      2  C   UNL     1      46.849   5.338  13.640  0.00  0.00    +0.000 A 
ATOM      3  C   UNL     1      45.840   4.696  12.916  0.00  0.00    +0.000 A 
ATOM      4  C   UNL     1      45.438   5.180  11.664  0.00  0.00    +0.000 A 
ATOM      5  C   UNL     1      46.088   6.315  11.153  0.00  0.00    +0.000 A 
ATOM      6  C   UNL     1      47.109   6.950  11.873  0.00  0.00    +0.000 A 
ENDROOT
BRANCH   1   7
ATOM      7  C   UNL     1      48.600   7.132  13.915  0.00  0.00    +0.000 C 
BRANCH   7  10
ATOM      8  O   UNL     1      50.279   6.173  15.977  0.00  0.00    +0.000 OA
ATOM      9  C   UNL     1      49.215   6.713  16.272  0.00  0.00    +0.000 C 
ATOM     10  N   UNL     1      48.313   7.131  15.329  0.00  0.00    +0.000 N 
ATOM     11  H   UNL     1      47.533   7.710  15.616  0.00  0.00    +0.000 HD
BRANCH   9  12
ATOM     12  C   UNL     1      48.823   6.908  17.676  0.00  0.00    +0.000 A 
ATOM     13  C   UNL     1      48.412   8.161  18.112  0.00  0.00    +0.000 A 
ATOM     14  S   UNL     1      47.998   8.208  19.766  0.00  0.00    +0.000 S 
ATOM     15  C   UNL     1      48.302   6.541  19.947  0.00  0.00    +0.000 A 
ATOM     16  N   UNL     1      48.102   5.919  21.139  0.00  0.00    +0.000 NA
ATOM     17  C   UNL     1      48.329   4.648  21.119  0.00  0.00    +0.000 A 
ATOM     18  N   UNL     1      48.750   3.946  20.022  0.00  0.00    +0.000 N 
ATOM     19  C   UNL     1      49.048   4.546  18.823  0.00  0.00    +0.000 A 
ATOM     20  O   UNL     1      49.566   3.911  17.912  0.00  0.00    +0.000 OA
ATOM     21  C   UNL     1      48.753   5.967  18.771  0.00  0.00    +0.000 A 
ATOM     22  H   UNL     1      48.942   2.957  20.082  0.00  0.00    +0.000 HD
ENDBRANCH   9  12
ENDBRANCH   7  10
ENDBRANCH   1   7
BRANCH   4  23
ATOM     23  C   UNL     1      44.416   4.443  10.822  0.00  0.00    +0.000 C 
BRANCH  23  24
ATOM     24  C   UNL     1      44.735   4.196   9.341  0.00  0.00    +0.000 C 
BRANCH  24  25
ATOM     25  C   UNL     1      45.256   2.784   9.007  0.00  0.00    +0.000 C 
ATOM     26  O   UNL     1      44.767   1.809   9.589  0.00  0.00    +0.000 OA
ATOM     27  N   UNL     1      46.202   2.630   8.018  0.00  0.00    +0.000 N 
ATOM     28  C   UNL     1      46.823   3.648   7.188  0.00  0.00    +0.000 C 
ATOM     29  C   UNL     1      47.043   2.941   5.861  0.00  0.00    +0.000 C 
ATOM     30  C   UNL     1      47.366   1.510   6.273  0.00  0.00    +0.000 C 
ATOM     31  C   UNL     1      46.568   1.299   7.557  0.00  0.00    +0.000 C 
ENDBRANCH  24  25
BRANCH  24  32
ATOM     32  O   UNL     1      43.612   4.533   8.522  0.00  0.00    +0.000 OA
ATOM     33  H   UNL     1      43.987   5.019   7.759  0.00  0.00    +0.000 HD
ENDBRANCH  24  32
ENDBRANCH  23  24
ENDBRANCH   4  23
TORSDOF 7
ENDMDL
MODEL 2
REMARK VINA RESULT:    -8.093      1.413      2.137
REMARK INTER + INTRA:         -11.877
REMARK INTER:                 -10.897
REMARK INTRA:                  -0.979
REMARK UNBOUND:                -0.708
REMARK  Name = 
REMARK  7 active torsions:
REMARK  status: ('A' for Active; 'I' for Inactive)
REMARK    1  A    between atoms: C_2  and  C_21
REMARK    2  A    between atoms: N_3  and  C_4
REMARK    3  A    between atoms: C_4  and  C_5
REMARK    4  A    between atoms: C_8  and  C_9
REMARK    5  A    between atoms: C_9  and  C_10
REMARK    6  A    between atoms: C_10  and  O_11
REMARK    7  A    between atoms: C_10  and  C_12
REMARK                            x       y       z     vdW  Elec       q    Type
REMARK                         _______ _______ _______ _____ _____    ______ ____
ROOT
ATOM      1  C   UNL     1      47.462   6.259  13.348  0.00  0.00    +0.000 A 
ATOM      2  C   UNL     1      46.782   5.113  13.775  0.00  0.00    +0.000 A 
ATOM      3  C   UNL     1      45.775   4.539  12.994  0.00  0.00    +0.000 A 
ATOM      4  C   UNL     1      45.414   5.103  11.763  0.00  0.00    +0.000 A 
ATOM      5  C   UNL     1      46.101   6.250  11.334  0.00  0.00    +0.000 A 
ATOM      6  C   UNL     1      47.120   6.818  12.112  0.00  0.00    +0.000 A 
ENDROOT
BRANCH   1   7
ATOM      7  C   UNL     1      48.567   6.846  14.192  0.00  0.00    +0.000 C 
BRANCH   7  10
ATOM      8  O   UNL     1      50.287   5.913  16.233  0.00  0.00    +0.000 OA
ATOM      9  C   UNL     1      49.178   6.349  16.535  0.00  0.00    +0.000 C 
ATOM     10  N   UNL     1      48.260   6.744  15.599  0.00  0.00    +0.000 N 
ATOM     11  H   UNL     1      47.431   7.243  15.901  0.00  0.00    +0.000 HD
BRANCH   9  12
ATOM     12  C   UNL     1      48.751   6.435  17.940  0.00  0.00    +0.000 A 
ATOM     13  C   UNL     1      48.901   5.338  18.778  0.00  0.00    +0.000 A 
ATOM     14  S   UNL     1      48.350   5.612  20.369  0.00  0.00    +0.000 S 
ATOM     15  C   UNL     1      47.940   7.226  20.009  0.00  0.00    +0.000 A 
ATOM     16  N   UNL     1      47.439   8.051  20.966  0.00  0.00    +0.000 NA
ATOM     17  C   UNL     1      47.216   9.258  20.564  0.00  0.00    +0.000 A 
ATOM     18  N   UNL     1      47.436   9.711  19.291  0.00  0.00    +0.000 N 
ATOM     19  C   UNL     1      47.857   8.893  18.272  0.00  0.00    +0.000 A 
ATOM     20  O   UNL     1      47.897   9.296  17.115  0.00  0.00    +0.000 OA
ATOM     21  C   UNL     1      48.182   7.538  18.682  0.00  0.00    +0.000 A 
ATOM     22  H   UNL     1      47.208  10.659  19.033  0.00  0.00    +0.000 HD
ENDBRANCH   9  12
ENDBRANCH   7  10
ENDBRANCH   1   7
BRANCH   4  23
ATOM     23  C   UNL     1      44.396   4.441  10.858  0.00  0.00    +0.000 C 
BRANCH  23  24
ATOM     24  C   UNL     1      44.769   4.213   9.387  0.00  0.00    +0.000 C 
BRANCH  24  25
ATOM     25  C   UNL     1      45.288   2.801   9.051  0.00  0.00    +0.000 C 
ATOM     26  O   UNL     1      44.805   1.827   9.639  0.00  0.00    +0.000 OA
ATOM     27  N   UNL     1      46.226   2.646   8.054  0.00  0.00    +0.000 N 
ATOM     28  C   UNL     1      46.837   3.663   7.216  0.00  0.00    +0.000 C 
ATOM     29  C   UNL     1      47.047   2.953   5.889  0.00  0.00    +0.000 C 
ATOM     30  C   UNL     1      47.374   1.524   6.301  0.00  0.00    +0.000 C 
ATOM     31  C   UNL     1      46.588   1.315   7.592  0.00  0.00    +0.000 C 
ENDBRANCH  24  25
BRANCH  24  32
ATOM     32  O   UNL     1      43.681   4.575   8.530  0.00  0.00    +0.000 OA
ATOM     33  H   UNL     1      44.093   5.041   7.774  0.00  0.00    +0.000 HD
ENDBRANCH  24  32
ENDBRANCH  23  24
ENDBRANCH   4  23
TORSDOF 7
ENDMDL
MODEL 3
REMARK VINA RESULT:    -7.839      2.436      2.968
REMARK INTER + INTRA:         -11.525
REMARK INTER:                 -10.376
REMARK INTRA:                  -1.149
REMARK UNBOUND:                -0.708
REMARK  Name = 
REMARK  7 active torsions:
REMARK  status: ('A' for Active; 'I' for Inactive)
REMARK    1  A    between atoms: C_2  and  C_21
REMARK    2  A    between atoms: N_3  and  C_4
REMARK    3  A    between atoms: C_4  and  C_5
REMARK    4  A    between atoms: C_8  and  C_9
REMARK    5  A    between atoms: C_9  and  C_10
REMARK    6  A    between atoms: C_10  and  O_11
REMARK    7  A    between atoms: C_10  and  C_12
REMARK                            x       y       z     vdW  Elec       q    Type
REMARK                         _______ _______ _______ _____ _____    ______ ____
ROOT
ATOM      1  C   UNL     1      47.743   7.348  12.786  0.00  0.00    +0.000 A 
ATOM      2  C   UNL     1      47.594   6.018  13.193  0.00  0.00    +0.000 A 
ATOM      3  C   UNL     1      46.332   5.420  13.254  0.00  0.00    +0.000 A 
ATOM      4  C   UNL     1      45.180   6.142  12.916  0.00  0.00    +0.000 A 
ATOM      5  C   UNL     1      45.332   7.475  12.502  0.00  0.00    +0.000 A 
ATOM      6  C   UNL     1      46.599   8.070  12.428  0.00  0.00    +0.000 A 
ENDROOT
BRANCH   1   7
ATOM      7  C   UNL     1      49.117   7.966  12.697  0.00  0.00    +0.000 C 
BRANCH   7  10
ATOM      8  O   UNL     1      49.847   8.950  15.244  0.00  0.00    +0.000 OA
ATOM      9  C   UNL     1      50.273   7.857  14.879  0.00  0.00    +0.000 C 
ATOM     10  N   UNL     1      50.029   7.349  13.631  0.00  0.00    +0.000 N 
ATOM     11  H   UNL     1      50.263   6.383  13.437  0.00  0.00    +0.000 HD
BRANCH   9  12
ATOM     12  C   UNL     1      51.115   7.035  15.760  0.00  0.00    +0.000 A 
ATOM     13  C   UNL     1      52.495   7.196  15.747  0.00  0.00    +0.000 A 
ATOM     14  S   UNL     1      53.315   6.161  16.826  0.00  0.00    +0.000 S 
ATOM     15  C   UNL     1      51.852   5.496  17.389  0.00  0.00    +0.000 A 
ATOM     16  N   UNL     1      51.842   4.556  18.371  0.00  0.00    +0.000 NA
ATOM     17  C   UNL     1      50.662   4.175  18.731  0.00  0.00    +0.000 A 
ATOM     18  N   UNL     1      49.493   4.636  18.189  0.00  0.00    +0.000 N 
ATOM     19  C   UNL     1      49.456   5.518  17.137  0.00  0.00    +0.000 A 
ATOM     20  O   UNL     1      48.400   5.792  16.580  0.00  0.00    +0.000 OA
ATOM     21  C   UNL     1      50.755   6.028  16.732  0.00  0.00    +0.000 A 
ATOM     22  H   UNL     1      48.602   4.271  18.492  0.00  0.00    +0.000 HD
ENDBRANCH   9  12
ENDBRANCH   7  10
ENDBRANCH   1   7
BRANCH   4  23
ATOM     23  C   UNL     1      43.816   5.484  12.881  0.00  0.00    +0.000 C 
BRANCH  23  24
ATOM     24  C   UNL     1      43.227   5.100  11.517  0.00  0.00    +0.000 C 
BRANCH  24  25
ATOM     25  C   UNL     1      43.580   3.683  11.023  0.00  0.00    +0.000 C 
ATOM     26  O   UNL     1      42.936   2.719  11.452  0.00  0.00    +0.000 OA
ATOM     27  N   UNL     1      44.554   3.526  10.062  0.00  0.00    +0.000 N 
ATOM     28  C   UNL     1      45.348   4.546   9.399  0.00  0.00    +0.000 C 
ATOM     29  C   UNL     1      45.552   3.986   8.000  0.00  0.00    +0.000 C 
ATOM     30  C   UNL     1      45.663   2.484   8.235  0.00  0.00    +0.000 C 
ATOM     31  C   UNL     1      44.771   2.226   9.446  0.00  0.00    +0.000 C 
ENDBRANCH  24  25
BRANCH  24  32
ATOM     32  O   UNL     1      41.812   5.308  11.504  0.00  0.00    +0.000 OA
ATOM     33  H   UNL     1      41.644   5.889  10.733  0.00  0.00    +0.000 HD
ENDBRANCH  24  32
ENDBRANCH  23  24
ENDBRANCH   4  23
TORSDOF 7
ENDMDL
MODEL 4
REMARK VINA RESULT:    -7.469      2.787      4.472
REMARK INTER + INTRA:         -11.015
REMARK INTER:                  -9.920
REMARK INTRA:                  -1.095
REMARK UNBOUND:                -0.708
REMARK  Name = 
REMARK  7 active torsions:
REMARK  status: ('A' for Active; 'I' for Inactive)
REMARK    1  A    between atoms: C_2  and  C_21
REMARK    2  A    between atoms: N_3  and  C_4
REMARK    3  A    between atoms: C_4  and  C_5
REMARK    4  A    between atoms: C_8  and  C_9
REMARK    5  A    between atoms: C_9  and  C_10
REMARK    6  A    between atoms: C_10  and  O_11
REMARK    7  A    between atoms: C_10  and  C_12
REMARK                            x       y       z     vdW  Elec       q    Type
REMARK                         _______ _______ _______ _____ _____    ______ ____
ROOT
ATOM      1  C   UNL     1      46.588   4.846  13.982  0.00  0.00    +0.000 A 
ATOM      2  C   UNL     1      46.407   3.528  13.548  0.00  0.00    +0.000 A 
ATOM      3  C   UNL     1      45.540   3.230  12.493  0.00  0.00    +0.000 A 
ATOM      4  C   UNL     1      44.822   4.245  11.847  0.00  0.00    +0.000 A 
ATOM      5  C   UNL     1      45.010   5.567  12.281  0.00  0.00    +0.000 A 
ATOM      6  C   UNL     1      45.889   5.868  13.330  0.00  0.00    +0.000 A 
ENDROOT
BRANCH   1   7
ATOM      7  C   UNL     1      47.552   5.151  15.103  0.00  0.00    +0.000 C 
BRANCH   7  10
ATOM      8  O   UNL     1      50.033   6.014  16.147  0.00  0.00    +0.000 OA
ATOM      9  C   UNL     1      49.395   6.768  15.417  0.00  0.00    +0.000 C 
ATOM     10  N   UNL     1      48.151   6.454  14.938  0.00  0.00    +0.000 N 
ATOM     11  H   UNL     1      47.740   7.034  14.216  0.00  0.00    +0.000 HD
BRANCH   9  12
ATOM     12  C   UNL     1      49.919   8.090  15.042  0.00  0.00    +0.000 A 
ATOM     13  C   UNL     1      50.434   8.933  16.018  0.00  0.00    +0.000 A 
ATOM     14  S   UNL     1      50.994  10.424  15.408  0.00  0.00    +0.000 S 
ATOM     15  C   UNL     1      50.617   9.976  13.808  0.00  0.00    +0.000 A 
ATOM     16  N   UNL     1      50.886  10.806  12.767  0.00  0.00    +0.000 NA
ATOM     17  C   UNL     1      50.590  10.319  11.608  0.00  0.00    +0.000 A 
ATOM     18  N   UNL     1      50.036   9.085  11.397  0.00  0.00    +0.000 N 
ATOM     19  C   UNL     1      49.667   8.250  12.423  0.00  0.00    +0.000 A 
ATOM     20  O   UNL     1      49.037   7.221  12.203  0.00  0.00    +0.000 OA
ATOM     21  C   UNL     1      50.033   8.722  13.747  0.00  0.00    +0.000 A 
ATOM     22  H   UNL     1      49.796   8.777  10.467  0.00  0.00    +0.000 HD
ENDBRANCH   9  12
ENDBRANCH   7  10
ENDBRANCH   1   7
BRANCH   4  23
ATOM     23  C   UNL     1      43.954   3.954  10.640  0.00  0.00    +0.000 C 
BRANCH  23  24
ATOM     24  C   UNL     1      44.614   3.945   9.254  0.00  0.00    +0.000 C 
BRANCH  24  25
ATOM     25  C   UNL     1      45.268   2.611   8.845  0.00  0.00    +0.000 C 
ATOM     26  O   UNL     1      44.836   1.557   9.326  0.00  0.00    +0.000 OA
ATOM     27  N   UNL     1      46.269   2.611   7.898  0.00  0.00    +0.000 N 
ATOM     28  C   UNL     1      46.839   3.738   7.180  0.00  0.00    +0.000 C 
ATOM     29  C   UNL     1      47.181   3.156   5.818  0.00  0.00    +0.000 C 
ATOM     30  C   UNL     1      47.603   1.729   6.140  0.00  0.00    +0.000 C 
ATOM     31  C   UNL     1      46.766   1.355   7.360  0.00  0.00    +0.000 C 
ENDBRANCH  24  25
BRANCH  24  32
ATOM     32  O   UNL     1      43.692   4.390   8.255  0.00  0.00    +0.000 OA
ATOM     33  H   UNL     1      43.517   3.605   7.697  0.00  0.00    +0.000 HD
ENDBRANCH  24  32
ENDBRANCH  23  24
ENDBRANCH   4  23
TORSDOF 7
ENDMDL
MODEL 5
REMARK VINA RESULT:    -7.285      4.991      9.811
REMARK INTER + INTRA:         -10.762
REMARK INTER:                  -9.951
REMARK INTRA:                  -0.811
REMARK UNBOUND:                -0.708
REMARK  Name = 
REMARK  7 active torsions:
REMARK  status: ('A' for Active; 'I' for Inactive)
REMARK    1  A    between atoms: C_2  and  C_21
REMARK    2  A    between atoms: N_3  and  C_4
REMARK    3  A    between atoms: C_4  and  C_5
REMARK    4  A    between atoms: C_8  and  C_9
REMARK    5  A    between atoms: C_9  and  C_10
REMARK    6  A    between atoms: C_10  and  O_11
REMARK    7  A    between atoms: C_10  and  C_12
REMARK                            x       y       z     vdW  Elec       q    Type
REMARK                         _______ _______ _______ _____ _____    ______ ____
ROOT
ATOM      1  C   UNL     1      48.630   3.317  17.164  0.00  0.00    +0.000 A 
ATOM      2  C   UNL     1      49.292   4.459  17.628  0.00  0.00    +0.000 A 
ATOM      3  C   UNL     1      50.662   4.435  17.905  0.00  0.00    +0.000 A 
ATOM      4  C   UNL     1      51.407   3.260  17.734  0.00  0.00    +0.000 A 
ATOM      5  C   UNL     1      50.741   2.117  17.264  0.00  0.00    +0.000 A 
ATOM      6  C   UNL     1      49.370   2.146  16.972  0.00  0.00    +0.000 A 
ENDROOT
BRANCH   1   7
ATOM      7  C   UNL     1      47.156   3.373  16.840  0.00  0.00    +0.000 C 
BRANCH   7  10
ATOM      8  O   UNL     1      47.246   3.070  14.031  0.00  0.00    +0.000 OA
ATOM      9  C   UNL     1      46.871   4.139  14.507  0.00  0.00    +0.000 C 
ATOM     10  N   UNL     1      46.876   4.389  15.854  0.00  0.00    +0.000 N 
ATOM     11  H   UNL     1      46.409   5.218  16.203  0.00  0.00    +0.000 HD
BRANCH   9  12
ATOM     12  C   UNL     1      46.427   5.243  13.644  0.00  0.00    +0.000 A 
ATOM     13  C   UNL     1      47.278   6.312  13.395  0.00  0.00    +0.000 A 
ATOM     14  S   UNL     1      46.600   7.503  12.378  0.00  0.00    +0.000 S 
ATOM     15  C   UNL     1      45.164   6.606  12.191  0.00  0.00    +0.000 A 
ATOM     16  N   UNL     1      44.158   7.054  11.395  0.00  0.00    +0.000 NA
ATOM     17  C   UNL     1      43.149   6.253  11.310  0.00  0.00    +0.000 A 
ATOM     18  N   UNL     1      43.049   5.052  11.960  0.00  0.00    +0.000 N 
ATOM     19  C   UNL     1      44.000   4.600  12.841  0.00  0.00    +0.000 A 
ATOM     20  O   UNL     1      43.807   3.597  13.518  0.00  0.00    +0.000 OA
ATOM     21  C   UNL     1      45.186   5.434  12.928  0.00  0.00    +0.000 A 
ATOM     22  H   UNL     1      42.217   4.487  11.878  0.00  0.00    +0.000 HD
ENDBRANCH   9  12
ENDBRANCH   7  10
ENDBRANCH   1   7
BRANCH   4  23
ATOM     23  C   UNL     1      52.908   3.239  17.936  0.00  0.00    +0.000 C 
BRANCH  23  24
ATOM     24  C   UNL     1      53.558   1.940  18.432  0.00  0.00    +0.000 C 
BRANCH  24  25
ATOM     25  C   UNL     1      54.455   1.220  17.407  0.00  0.00    +0.000 C 
ATOM     26  O   UNL     1      55.094   1.892  16.589  0.00  0.00    +0.000 OA
ATOM     27  N   UNL     1      54.585  -0.150  17.468  0.00  0.00    +0.000 N 
ATOM     28  C   UNL     1      53.974  -1.079  18.403  0.00  0.00    +0.000 C 
ATOM     29  C   UNL     1      55.027  -2.163  18.567  0.00  0.00    +0.000 C 
ATOM     30  C   UNL     1      55.663  -2.250  17.186  0.00  0.00    +0.000 C 
ATOM     31  C   UNL     1      55.567  -0.829  16.637  0.00  0.00    +0.000 C 
ENDBRANCH  24  25
BRANCH  24  32
ATOM     32  O   UNL     1      54.261   2.167  19.657  0.00  0.00    +0.000 OA
ATOM     33  H   UNL     1      53.573   2.162  20.354  0.00  0.00    +0.000 HD
ENDBRANCH  24  32
ENDBRANCH  23  24
ENDBRANCH   4  23
TORSDOF 7
ENDMDL
MODEL 6
REMARK VINA RESULT:    -7.224      2.553      3.194
REMARK INTER + INTRA:         -10.677
REMARK INTER:                 -10.120
REMARK INTRA:                  -0.557
REMARK UNBOUND:                -0.708
REMARK  Name = 
REMARK  7 active torsions:
REMARK  status: ('A' for Active; 'I' for Inactive)
REMARK    1  A    between atoms: C_2  and  C_21
REMARK    2  A    between atoms: N_3  and  C_4
REMARK    3  A    between atoms: C_4  and  C_5
REMARK    4  A    between atoms: C_8  and  C_9
REMARK    5  A    between atoms: C_9  and  C_10
REMARK    6  A    between atoms: C_10  and  O_11
REMARK    7  A    between atoms: C_10  and  C_12
REMARK                            x       y       z     vdW  Elec       q    Type
REMARK                         _______ _______ _______ _____ _____    ______ ____
ROOT
ATOM      1  C   UNL     1      47.545   5.957  14.491  0.00  0.00    +0.000 A 
ATOM      2  C   UNL     1      47.172   4.640  14.779  0.00  0.00    +0.000 A 
ATOM      3  C   UNL     1      46.462   3.872  13.852  0.00  0.00    +0.000 A 
ATOM      4  C   UNL     1      46.098   4.407  12.609  0.00  0.00    +0.000 A 
ATOM      5  C   UNL     1      46.478   5.727  12.319  0.00  0.00    +0.000 A 
ATOM      6  C   UNL     1      47.202   6.492  13.244  0.00  0.00    +0.000 A 
ENDROOT
BRANCH   1   7
ATOM      7  C   UNL     1      48.338   6.759  15.493  0.00  0.00    +0.000 C 
BRANCH   7  10
ATOM      8  O   UNL     1      49.382   6.637  18.118  0.00  0.00    +0.000 OA
ATOM      9  C   UNL     1      49.914   5.976  17.229  0.00  0.00    +0.000 C 
ATOM     10  N   UNL     1      49.517   6.044  15.920  0.00  0.00    +0.000 N 
ATOM     11  H   UNL     1      49.877   5.365  15.260  0.00  0.00    +0.000 HD
BRANCH   9  12
ATOM     12  C   UNL     1      51.053   5.091  17.516  0.00  0.00    +0.000 A 
ATOM     13  C   UNL     1      52.270   5.634  17.907  0.00  0.00    +0.000 A 
ATOM     14  S   UNL     1      53.479   4.465  18.195  0.00  0.00    +0.000 S 
ATOM     15  C   UNL     1      52.403   3.188  17.859  0.00  0.00    +0.000 A 
ATOM     16  N   UNL     1      52.802   1.892  17.961  0.00  0.00    +0.000 NA
ATOM     17  C   UNL     1      51.872   1.029  17.721  0.00  0.00    +0.000 A 
ATOM     18  N   UNL     1      50.585   1.343  17.376  0.00  0.00    +0.000 N 
ATOM     19  C   UNL     1      50.161   2.634  17.176  0.00  0.00    +0.000 A 
ATOM     20  O   UNL     1      49.047   2.869  16.722  0.00  0.00    +0.000 OA
ATOM     21  C   UNL     1      51.151   3.649  17.492  0.00  0.00    +0.000 A 
ATOM     22  H   UNL     1      49.913   0.620  17.168  0.00  0.00    +0.000 HD
ENDBRANCH   9  12
ENDBRANCH   7  10
ENDBRANCH   1   7
BRANCH   4  23
ATOM     23  C   UNL     1      45.415   3.561  11.553  0.00  0.00    +0.000 C 
BRANCH  23  24
ATOM     24  C   UNL     1      44.700   4.275  10.398  0.00  0.00    +0.000 C 
BRANCH  24  25
ATOM     25  C   UNL     1      45.519   4.407   9.098  0.00  0.00    +0.000 C 
ATOM     26  O   UNL     1      46.001   5.505   8.800  0.00  0.00    +0.000 OA
ATOM     27  N   UNL     1      45.758   3.285   8.335  0.00  0.00    +0.000 N 
ATOM     28  C   UNL     1      45.337   1.916   8.575  0.00  0.00    +0.000 C 
ATOM     29  C   UNL     1      46.482   1.088   8.014  0.00  0.00    +0.000 C 
ATOM     30  C   UNL     1      46.950   1.900   6.814  0.00  0.00    +0.000 C 
ATOM     31  C   UNL     1      46.681   3.349   7.212  0.00  0.00    +0.000 C 
ENDBRANCH  24  25
BRANCH  24  32
ATOM     32  O   UNL     1      43.430   3.670  10.143  0.00  0.00    +0.000 OA
ATOM     33  H   UNL     1      43.297   3.031  10.873  0.00  0.00    +0.000 HD
ENDBRANCH  24  32
ENDBRANCH  23  24
ENDBRANCH   4  23
TORSDOF 7
ENDMDL
MODEL 7
REMARK VINA RESULT:    -7.033      3.765      4.940
REMARK INTER + INTRA:         -10.414
REMARK INTER:                  -9.736
REMARK INTRA:                  -0.677
REMARK UNBOUND:                -0.708
REMARK  Name = 
REMARK  7 active torsions:
REMARK  status: ('A' for Active; 'I' for Inactive)
REMARK    1  A    between atoms: C_2  and  C_21
REMARK    2  A    between atoms: N_3  and  C_4
REMARK    3  A    between atoms: C_4  and  C_5
REMARK    4  A    between atoms: C_8  and  C_9
REMARK    5  A    between atoms: C_9  and  C_10
REMARK    6  A    between atoms: C_10  and  O_11
REMARK    7  A    between atoms: C_10  and  C_12
REMARK                            x       y       z     vdW  Elec       q    Type
REMARK                         _______ _______ _______ _____ _____    ______ ____
ROOT
ATOM      1  C   UNL     1      48.276   4.923  16.559  0.00  0.00    +0.000 A 
ATOM      2  C   UNL     1      47.409   4.047  15.898  0.00  0.00    +0.000 A 
ATOM      3  C   UNL     1      46.870   4.372  14.650  0.00  0.00    +0.000 A 
ATOM      4  C   UNL     1      47.179   5.591  14.031  0.00  0.00    +0.000 A 
ATOM      5  C   UNL     1      48.054   6.467  14.695  0.00  0.00    +0.000 A 
ATOM      6  C   UNL     1      48.605   6.135  15.940  0.00  0.00    +0.000 A 
ENDROOT
BRANCH   1   7
ATOM      7  C   UNL     1      48.872   4.541  17.892  0.00  0.00    +0.000 C 
BRANCH   7  10
ATOM      8  O   UNL     1      50.917   4.831  19.822  0.00  0.00    +0.000 OA
ATOM      9  C   UNL     1      51.166   4.252  18.767  0.00  0.00    +0.000 C 
ATOM     10  N   UNL     1      50.252   4.141  17.753  0.00  0.00    +0.000 N 
ATOM     11  H   UNL     1      50.450   3.521  16.977  0.00  0.00    +0.000 HD
BRANCH   9  12
ATOM     12  C   UNL     1      52.491   3.669  18.512  0.00  0.00    +0.000 A 
ATOM     13  C   UNL     1      53.636   4.377  18.856  0.00  0.00    +0.000 A 
ATOM     14  S   UNL     1      55.085   3.555  18.486  0.00  0.00    +0.000 S 
ATOM     15  C   UNL     1      54.234   2.201  17.901  0.00  0.00    +0.000 A 
ATOM     16  N   UNL     1      54.893   1.099  17.456  0.00  0.00    +0.000 NA
ATOM     17  C   UNL     1      54.122   0.132  17.085  0.00  0.00    +0.000 A 
ATOM     18  N   UNL     1      52.754   0.171  17.106  0.00  0.00    +0.000 N 
ATOM     19  C   UNL     1      52.046   1.292  17.465  0.00  0.00    +0.000 A 
ATOM     20  O   UNL     1      50.829   1.340  17.327  0.00  0.00    +0.000 OA
ATOM     21  C   UNL     1      52.863   2.391  17.949  0.00  0.00    +0.000 A 
ATOM     22  H   UNL     1      52.208  -0.608  16.770  0.00  0.00    +0.000 HD
ENDBRANCH   9  12
ENDBRANCH   7  10
ENDBRANCH   1   7
BRANCH   4  23
ATOM     23  C   UNL     1      46.684   5.918  12.637  0.00  0.00    +0.000 C 
BRANCH  23  24
ATOM     24  C   UNL     1      45.187   5.762  12.341  0.00  0.00    +0.000 C 
BRANCH  24  25
ATOM     25  C   UNL     1      44.735   4.337  11.968  0.00  0.00    +0.000 C 
ATOM     26  O   UNL     1      44.150   3.650  12.813  0.00  0.00    +0.000 OA
ATOM     27  N   UNL     1      44.926   3.883  10.681  0.00  0.00    +0.000 N 
ATOM     28  C   UNL     1      45.519   4.578   9.552  0.00  0.00    +0.000 C 
ATOM     29  C   UNL     1      44.745   4.044   8.358  0.00  0.00    +0.000 C 
ATOM     30  C   UNL     1      44.468   2.594   8.736  0.00  0.00    +0.000 C 
ATOM     31  C   UNL     1      44.341   2.620  10.257  0.00  0.00    +0.000 C 
ENDBRANCH  24  25
BRANCH  24  32
ATOM     32  O   UNL     1      44.404   6.280  13.421  0.00  0.00    +0.000 OA
ATOM     33  H   UNL     1      43.984   7.092  13.068  0.00  0.00    +0.000 HD
ENDBRANCH  24  32
ENDBRANCH  23  24
ENDBRANCH   4  23
TORSDOF 7
ENDMDL
MODEL 8
REMARK VINA RESULT:    -6.747      4.848      9.576
REMARK INTER + INTRA:         -10.018
REMARK INTER:                  -8.959
REMARK INTRA:                  -1.059
REMARK UNBOUND:                -0.708
REMARK  Name = 
REMARK  7 active torsions:
REMARK  status: ('A' for Active; 'I' for Inactive)
REMARK    1  A    between atoms: C_2  and  C_21
REMARK    2  A    between atoms: N_3  and  C_4
REMARK    3  A    between atoms: C_4  and  C_5
REMARK    4  A    between atoms: C_8  and  C_9
REMARK    5  A    between atoms: C_9  and  C_10
REMARK    6  A    between atoms: C_10  and  O_11
REMARK    7  A    between atoms: C_10  and  C_12
REMARK                            x       y       z     vdW  Elec       q    Type
REMARK                         _______ _______ _______ _____ _____    ______ ____
ROOT
ATOM      1  C   UNL     1      48.840   3.361  17.256  0.00  0.00    +0.000 A 
ATOM      2  C   UNL     1      49.540   4.474  17.732  0.00  0.00    +0.000 A 
ATOM      3  C   UNL     1      50.914   4.408  17.982  0.00  0.00    +0.000 A 
ATOM      4  C   UNL     1      51.625   3.220  17.768  0.00  0.00    +0.000 A 
ATOM      5  C   UNL     1      50.921   2.105  17.284  0.00  0.00    +0.000 A 
ATOM      6  C   UNL     1      49.546   2.175  17.022  0.00  0.00    +0.000 A 
ENDROOT
BRANCH   1   7
ATOM      7  C   UNL     1      47.362   3.461  16.963  0.00  0.00    +0.000 C 
BRANCH   7  10
ATOM      8  O   UNL     1      47.302   3.118  14.158  0.00  0.00    +0.000 OA
ATOM      9  C   UNL     1      47.010   4.213  14.635  0.00  0.00    +0.000 C 
ATOM     10  N   UNL     1      47.093   4.479  15.976  0.00  0.00    +0.000 N 
ATOM     11  H   UNL     1      46.691   5.337  16.333  0.00  0.00    +0.000 HD
BRANCH   9  12
ATOM     12  C   UNL     1      46.588   5.330  13.777  0.00  0.00    +0.000 A 
ATOM     13  C   UNL     1      45.374   5.266  13.105  0.00  0.00    +0.000 A 
ATOM     14  S   UNL     1      45.046   6.644  12.154  0.00  0.00    +0.000 S 
ATOM     15  C   UNL     1      46.491   7.399  12.648  0.00  0.00    +0.000 A 
ATOM     16  N   UNL     1      46.811   8.648  12.218  0.00  0.00    +0.000 NA
ATOM     17  C   UNL     1      47.912   9.113  12.707  0.00  0.00    +0.000 A 
ATOM     18  N   UNL     1      48.728   8.439  13.574  0.00  0.00    +0.000 N 
ATOM     19  C   UNL     1      48.491   7.144  13.966  0.00  0.00    +0.000 A 
ATOM     20  O   UNL     1      49.320   6.521  14.620  0.00  0.00    +0.000 OA
ATOM     21  C   UNL     1      47.233   6.592  13.494  0.00  0.00    +0.000 A 
ATOM     22  H   UNL     1      49.594   8.846  13.893  0.00  0.00    +0.000 HD
ENDBRANCH   9  12
ENDBRANCH   7  10
ENDBRANCH   1   7
BRANCH   4  23
ATOM     23  C   UNL     1      53.129   3.156  17.938  0.00  0.00    +0.000 C 
BRANCH  23  24
ATOM     24  C   UNL     1      53.748   1.852  18.459  0.00  0.00    +0.000 C 
BRANCH  24  25
ATOM     25  C   UNL     1      54.466   0.995  17.398  0.00  0.00    +0.000 C 
ATOM     26  O   UNL     1      55.069   1.558  16.477  0.00  0.00    +0.000 OA
ATOM     27  N   UNL     1      54.484  -0.376  17.537  0.00  0.00    +0.000 N 
ATOM     28  C   UNL     1      53.900  -1.190  18.588  0.00  0.00    +0.000 C 
ATOM     29  C   UNL     1      54.868  -2.354  18.717  0.00  0.00    +0.000 C 
ATOM     30  C   UNL     1      55.343  -2.578  17.287  0.00  0.00    +0.000 C 
ATOM     31  C   UNL     1      55.311  -1.188  16.658  0.00  0.00    +0.000 C 
ENDBRANCH  24  25
BRANCH  24  32
ATOM     32  O   UNL     1      54.607   2.113  19.573  0.00  0.00    +0.000 OA
ATOM     33  H   UNL     1      54.092   1.849  20.363  0.00  0.00    +0.000 HD
ENDBRANCH  24  32
ENDBRANCH  23  24
ENDBRANCH   4  23
TORSDOF 7
ENDMDL
MODEL 9
REMARK VINA RESULT:    -6.732      5.212      8.644
REMARK INTER + INTRA:          -9.998
REMARK INTER:                  -9.108
REMARK INTRA:                  -0.890
REMARK UNBOUND:                -0.708
REMARK  Name = 
REMARK  7 active torsions:
REMARK  status: ('A' for Active; 'I' for Inactive)
REMARK    1  A    between atoms: C_2  and  C_21
REMARK    2  A    between atoms: N_3  and  C_4
REMARK    3  A    between atoms: C_4  and  C_5
REMARK    4  A    between atoms: C_8  and  C_9
REMARK    5  A    between atoms: C_9  and  C_10
REMARK    6  A    between atoms: C_10  and  O_11
REMARK    7  A    between atoms: C_10  and  C_12
REMARK                            x       y       z     vdW  Elec       q    Type
REMARK                         _______ _______ _______ _____ _____    ______ ____
ROOT
ATOM      1  C   UNL     1      47.688   8.495  12.150  0.00  0.00    +0.000 A 
ATOM      2  C   UNL     1      48.529   7.379  12.081  0.00  0.00    +0.000 A 
ATOM      3  C   UNL     1      49.872   7.509  11.714  0.00  0.00    +0.000 A 
ATOM      4  C   UNL     1      50.408   8.763  11.396  0.00  0.00    +0.000 A 
ATOM      5  C   UNL     1      49.564   9.883  11.471  0.00  0.00    +0.000 A 
ATOM      6  C   UNL     1      48.222   9.754  11.852  0.00  0.00    +0.000 A 
ENDROOT
BRANCH   1   7
ATOM      7  C   UNL     1      46.250   8.337  12.579  0.00  0.00    +0.000 C 
BRANCH   7  10
ATOM      8  O   UNL     1      43.886   7.555  11.240  0.00  0.00    +0.000 OA
ATOM      9  C   UNL     1      44.662   6.690  11.641  0.00  0.00    +0.000 C 
ATOM     10  N   UNL     1      45.786   6.987  12.366  0.00  0.00    +0.000 N 
ATOM     11  H   UNL     1      46.472   6.260  12.532  0.00  0.00    +0.000 HD
BRANCH   9  12
ATOM     12  C   UNL     1      44.406   5.263  11.397  0.00  0.00    +0.000 A 
ATOM     13  C   UNL     1      43.646   4.532  12.301  0.00  0.00    +0.000 A 
ATOM     14  S   UNL     1      43.452   2.894  11.864  0.00  0.00    +0.000 S 
ATOM     15  C   UNL     1      44.333   3.117  10.422  0.00  0.00    +0.000 A 
ATOM     16  N   UNL     1      44.511   2.093   9.546  0.00  0.00    +0.000 NA
ATOM     17  C   UNL     1      45.157   2.415   8.476  0.00  0.00    +0.000 A 
ATOM     18  N   UNL     1      45.654   3.662   8.208  0.00  0.00    +0.000 N 
ATOM     19  C   UNL     1      45.574   4.703   9.101  0.00  0.00    +0.000 A 
ATOM     20  O   UNL     1      46.160   5.758   8.893  0.00  0.00    +0.000 OA
ATOM     21  C   UNL     1      44.803   4.413  10.297  0.00  0.00    +0.000 A 
ATOM     22  H   UNL     1      46.181   3.840   7.367  0.00  0.00    +0.000 HD
ENDBRANCH   9  12
ENDBRANCH   7  10
ENDBRANCH   1   7
BRANCH   4  23
ATOM     23  C   UNL     1      51.882   8.939  11.091  0.00  0.00    +0.000 C 
BRANCH  23  24
ATOM     24  C   UNL     1      52.592   7.851  10.274  0.00  0.00    +0.000 C 
BRANCH  24  25
ATOM     25  C   UNL     1      53.406   8.359   9.069  0.00  0.00    +0.000 C 
ATOM     26  O   UNL     1      54.064   9.399   9.182  0.00  0.00    +0.000 OA
ATOM     27  N   UNL     1      53.444   7.607   7.915  0.00  0.00    +0.000 N 
ATOM     28  C   UNL     1      52.801   6.335   7.638  0.00  0.00    +0.000 C 
ATOM     29  C   UNL     1      53.783   5.632   6.714  0.00  0.00    +0.000 C 
ATOM     30  C   UNL     1      54.369   6.771   5.890  0.00  0.00    +0.000 C 
ATOM     31  C   UNL     1      54.353   7.968   6.837  0.00  0.00    +0.000 C 
ENDBRANCH  24  25
BRANCH  24  32
ATOM     32  O   UNL     1      53.396   7.028  11.125  0.00  0.00    +0.000 OA
ATOM     33  H   UNL     1      53.223   7.350  12.033  0.00  0.00    +0.000 HD
ENDBRANCH  24  32
ENDBRANCH  23  24
ENDBRANCH   4  23
TORSDOF 7
ENDMDL
