MODEL 1
REMARK VINA RESULT:    -6.915      0.000      0.000
REMARK INTER + INTRA:         -10.647
REMARK INTER:                  -9.542
REMARK INTRA:                  -1.105
REMARK UNBOUND:                -1.105
REMARK  Name = 
REMARK  7 active torsions:
REMARK  status: ('A' for Active; 'I' for Inactive)
REMARK    1  A    between atoms: N_1  and  C_2
REMARK    2  A    between atoms: C_2  and  C_3
REMARK    3  A    between atoms: N_7  and  C_8
REMARK    4  A    between atoms: C_8  and  C_9
REMARK    5  A    between atoms: C_12  and  C_13
REMARK    6  A    between atoms: C_13  and  N_14
REMARK    7  A    between atoms: C_15  and  C_17
REMARK                            x       y       z     vdW  Elec       q    Type
REMARK                         _______ _______ _______ _____ _____    ______ ____
ROOT
ATOM      1  C   UNL     1      51.329   3.015  17.625  0.00  0.00    +0.000 A 
ATOM      2  C   UNL     1      50.590   1.935  17.112  0.00  0.00    +0.000 A 
ATOM      3  C   UNL     1      49.214   2.047  16.882  0.00  0.00    +0.000 A 
ATOM      4  C   UNL     1      48.540   3.235  17.183  0.00  0.00    +0.000 A 
ATOM      5  C   UNL     1      49.253   4.274  17.799  0.00  0.00    +0.000 A 
ATOM      6  C   UNL     1      50.635   4.171  18.002  0.00  0.00    +0.000 A 
ENDROOT
BRANCH   1   7
ATOM      7  C   UNL     1      52.845   2.937  17.727  0.00  0.00    +0.000 C 
BRANCH   7  12
ATOM      8  C   UNL     1      54.931  -0.211  18.534  0.00  0.00    +0.000 C 
ATOM      9  C   UNL     1      55.774   0.436  19.640  0.00  0.00    +0.000 C 
ATOM     10  C   UNL     1      54.936   1.367  20.500  0.00  0.00    +0.000 C 
ATOM     11  C   UNL     1      54.276   2.434  19.637  0.00  0.00    +0.000 C 
ATOM     12  N   UNL     1      53.375   1.864  18.623  0.00  0.00    +0.000 NA
ATOM     13  C   UNL     1      54.078   0.855  17.795  0.00  0.00    +0.000 C 
BRANCH   8  14
ATOM     14  C   UNL     1      54.100  -1.411  19.030  0.00  0.00    +0.000 C 
BRANCH  14  15
ATOM     15  N   UNL     1      52.665  -1.189  18.811  0.00  0.00    +0.000 NA
ATOM     16  H   UNL     1      52.527  -0.314  18.306  0.00  0.00    +0.000 HD
ATOM     17  H   UNL     1      52.193  -1.069  19.707  0.00  0.00    +0.000 HD
ENDBRANCH  14  15
ENDBRANCH   8  14
ENDBRANCH   7  12
ENDBRANCH   1   7
BRANCH   4  18
ATOM     18  C   UNL     1      47.082   3.401  16.838  0.00  0.00    +0.000 C 
BRANCH  18  19
ATOM     19  N   UNL     1      46.872   4.479  15.905  0.00  0.00    +0.000 N 
ATOM     20  C   UNL     1      46.956   4.261  14.550  0.00  0.00    +0.000 C 
ATOM     21  O   UNL     1      47.151   3.145  14.081  0.00  0.00    +0.000 OA
ATOM     22  H   UNL     1      46.950   5.420  16.265  0.00  0.00    +0.000 HD
BRANCH  20  23
ATOM     23  C   UNL     1      46.742   5.426  13.682  0.00  0.00    +0.000 A 
ATOM     24  C   UNL     1      47.778   6.331  13.479  0.00  0.00    +0.000 A 
ATOM     25  S   UNL     1      47.382   7.591  12.400  0.00  0.00    +0.000 S 
ATOM     26  C   UNL     1      45.795   7.005  12.209  0.00  0.00    +0.000 A 
ATOM     27  N   UNL     1      44.903   7.649  11.412  0.00  0.00    +0.000 NA
ATOM     28  C   UNL     1      43.726   7.112  11.383  0.00  0.00    +0.000 A 
ATOM     29  N   UNL     1      43.366   5.989  12.081  0.00  0.00    +0.000 N 
ATOM     30  C   UNL     1      44.243   5.287  12.874  0.00  0.00    +0.000 A 
ATOM     31  O   UNL     1      43.899   4.260  13.449  0.00  0.00    +0.000 OA
ATOM     32  C   UNL     1      45.576   5.855  12.946  0.00  0.00    +0.000 A 
ATOM     33  H   UNL     1      42.433   5.610  12.007  0.00  0.00    +0.000 HD
ENDBRANCH  20  23
ENDBRANCH  18  19
ENDBRANCH   4  18
TORSDOF 7
ENDMDL
MODEL 2
REMARK VINA RESULT:    -6.766      3.159      9.865
REMARK INTER + INTRA:         -10.442
REMARK INTER:                  -9.494
REMARK INTRA:                  -0.948
REMARK UNBOUND:                -1.105
REMARK  Name = 
REMARK  7 active torsions:
REMARK  status: ('A' for Active; 'I' for Inactive)
REMARK    1  A    between atoms: N_1  and  C_2
REMARK    2  A    between atoms: C_2  and  C_3
REMARK    3  A    between atoms: N_7  and  C_8
REMARK    4  A    between atoms: C_8  and  C_9
REMARK    5  A    between atoms: C_12  and  C_13
REMARK    6  A    between atoms: C_13  and  N_14
REMARK    7  A    between atoms: C_15  and  C_17
REMARK                            x       y       z     vdW  Elec       q    Type
REMARK                         _______ _______ _______ _____ _____    ______ ____
ROOT
ATOM      1  C   UNL     1      47.487   5.544  14.113  0.00  0.00    +0.000 A 
ATOM      2  C   UNL     1      47.179   4.457  14.949  0.00  0.00    +0.000 A 
ATOM      3  C   UNL     1      47.598   4.432  16.284  0.00  0.00    +0.000 A 
ATOM      4  C   UNL     1      48.357   5.483  16.807  0.00  0.00    +0.000 A 
ATOM      5  C   UNL     1      48.762   6.513  15.946  0.00  0.00    +0.000 A 
ATOM      6  C   UNL     1      48.318   6.552  14.618  0.00  0.00    +0.000 A 
ENDROOT
BRANCH   1   7
ATOM      7  C   UNL     1      46.900   5.635  12.712  0.00  0.00    +0.000 C 
BRANCH   7  12
ATOM      8  C   UNL     1      43.483   5.182  10.969  0.00  0.00    +0.000 C 
ATOM      9  C   UNL     1      43.634   3.677  10.714  0.00  0.00    +0.000 C 
ATOM     10  C   UNL     1      44.291   2.979  11.892  0.00  0.00    +0.000 C 
ATOM     11  C   UNL     1      45.646   3.610  12.192  0.00  0.00    +0.000 C 
ATOM     12  N   UNL     1      45.542   5.034  12.543  0.00  0.00    +0.000 NA
ATOM     13  C   UNL     1      44.813   5.789  11.496  0.00  0.00    +0.000 C 
BRANCH   8  14
ATOM     14  C   UNL     1      42.270   5.527  11.856  0.00  0.00    +0.000 C 
BRANCH  14  15
ATOM     15  N   UNL     1      42.643   5.560  13.276  0.00  0.00    +0.000 NA
ATOM     16  H   UNL     1      42.601   4.618  13.663  0.00  0.00    +0.000 HD
ATOM     17  H   UNL     1      41.959   6.105  13.800  0.00  0.00    +0.000 HD
ENDBRANCH  14  15
ENDBRANCH   8  14
ENDBRANCH   7  12
ENDBRANCH   1   7
BRANCH   4  18
ATOM     18  C   UNL     1      48.720   5.517  18.270  0.00  0.00    +0.000 C 
BRANCH  18  19
ATOM     19  N   UNL     1      49.833   4.653  18.567  0.00  0.00    +0.000 N 
ATOM     20  C   UNL     1      51.125   5.109  18.451  0.00  0.00    +0.000 C 
ATOM     21  O   UNL     1      51.382   6.270  18.153  0.00  0.00    +0.000 OA
ATOM     22  H   UNL     1      49.654   3.658  18.577  0.00  0.00    +0.000 HD
BRANCH  20  23
ATOM     23  C   UNL     1      52.192   4.146  18.759  0.00  0.00    +0.000 A 
ATOM     24  C   UNL     1      53.240   4.525  19.590  0.00  0.00    +0.000 A 
ATOM     25  S   UNL     1      54.357   3.274  19.893  0.00  0.00    +0.000 S 
ATOM     26  C   UNL     1      53.513   2.197  18.880  0.00  0.00    +0.000 A 
ATOM     27  N   UNL     1      53.959   0.930  18.678  0.00  0.00    +0.000 NA
ATOM     28  C   UNL     1      53.239   0.232  17.862  0.00  0.00    +0.000 A 
ATOM     29  N   UNL     1      52.112   0.691  17.231  0.00  0.00    +0.000 N 
ATOM     30  C   UNL     1      51.606   1.954  17.428  0.00  0.00    +0.000 A 
ATOM     31  O   UNL     1      50.570   2.317  16.882  0.00  0.00    +0.000 OA
ATOM     32  C   UNL     1      52.385   2.781  18.332  0.00  0.00    +0.000 A 
ATOM     33  H   UNL     1      51.584   0.092  16.613  0.00  0.00    +0.000 HD
ENDBRANCH  20  23
ENDBRANCH  18  19
ENDBRANCH   4  18
TORSDOF 7
ENDMDL
MODEL 3
REMARK VINA RESULT:    -6.644      4.692      9.641
REMARK INTER + INTRA:         -10.274
REMARK INTER:                  -9.446
REMARK INTRA:                  -0.827
REMARK UNBOUND:                -1.105
REMARK  Name = 
REMARK  7 active torsions:
REMARK  status: ('A' for Active; 'I' for Inactive)
REMARK    1  A    between atoms: N_1  and  C_2
REMARK    2  A    between atoms: C_2  and  C_3
REMARK    3  A    between atoms: N_7  and  C_8
REMARK    4  A    between atoms: C_8  and  C_9
REMARK    5  A    between atoms: C_12  and  C_13
REMARK    6  A    between atoms: C_13  and  N_14
REMARK    7  A    between atoms: C_15  and  C_17
REMARK                            x       y       z     vdW  Elec       q    Type
REMARK                         _______ _______ _______ _____ _____    ______ ____
ROOT
ATOM      1  C   UNL     1      45.031   5.093  11.263  0.00  0.00    +0.000 A 
ATOM      2  C   UNL     1      44.344   6.296  11.033  0.00  0.00    +0.000 A 
ATOM      3  C   UNL     1      44.751   7.488  11.643  0.00  0.00    +0.000 A 
ATOM      4  C   UNL     1      45.840   7.497  12.520  0.00  0.00    +0.000 A 
ATOM      5  C   UNL     1      46.456   6.279  12.840  0.00  0.00    +0.000 A 
ATOM      6  C   UNL     1      46.067   5.092  12.206  0.00  0.00    +0.000 A 
ENDROOT
BRANCH   1   7
ATOM      7  C   UNL     1      44.679   3.837  10.479  0.00  0.00    +0.000 C 
BRANCH   7  12
ATOM      8  C   UNL     1      45.876   1.799   7.424  0.00  0.00    +0.000 C 
ATOM      9  C   UNL     1      46.147   3.010   6.522  0.00  0.00    +0.000 C 
ATOM     10  C   UNL     1      46.766   4.155   7.305  0.00  0.00    +0.000 C 
ATOM     11  C   UNL     1      45.866   4.546   8.471  0.00  0.00    +0.000 C 
ATOM     12  N   UNL     1      45.659   3.443   9.421  0.00  0.00    +0.000 NA
ATOM     13  C   UNL     1      45.154   2.233   8.729  0.00  0.00    +0.000 C 
BRANCH   8  14
ATOM     14  C   UNL     1      47.133   0.946   7.686  0.00  0.00    +0.000 C 
BRANCH  14  15
ATOM     15  N   UNL     1      46.808  -0.487   7.703  0.00  0.00    +0.000 NA
ATOM     16  H   UNL     1      47.376  -0.958   8.407  0.00  0.00    +0.000 HD
ATOM     17  H   UNL     1      47.065  -0.910   6.813  0.00  0.00    +0.000 HD
ENDBRANCH  14  15
ENDBRANCH   8  14
ENDBRANCH   7  12
ENDBRANCH   1   7
BRANCH   4  18
ATOM     18  C   UNL     1      46.352   8.793  13.098  0.00  0.00    +0.000 C 
BRANCH  18  19
ATOM     19  N   UNL     1      46.879   8.616  14.427  0.00  0.00    +0.000 N 
ATOM     20  C   UNL     1      48.133   9.078  14.751  0.00  0.00    +0.000 C 
ATOM     21  O   UNL     1      48.824   9.703  13.954  0.00  0.00    +0.000 OA
ATOM     22  H   UNL     1      46.441   7.913  15.006  0.00  0.00    +0.000 HD
BRANCH  20  23
ATOM     23  C   UNL     1      48.587   8.835  16.126  0.00  0.00    +0.000 A 
ATOM     24  C   UNL     1      48.752   9.907  16.996  0.00  0.00    +0.000 A 
ATOM     25  S   UNL     1      49.226   9.446  18.567  0.00  0.00    +0.000 S 
ATOM     26  C   UNL     1      49.283   7.801  18.129  0.00  0.00    +0.000 A 
ATOM     27  N   UNL     1      49.646   6.850  19.028  0.00  0.00    +0.000 NA
ATOM     28  C   UNL     1      49.677   5.648  18.552  0.00  0.00    +0.000 A 
ATOM     29  N   UNL     1      49.374   5.316  17.257  0.00  0.00    +0.000 N 
ATOM     30  C   UNL     1      48.971   6.239  16.322  0.00  0.00    +0.000 A 
ATOM     31  O   UNL     1      48.664   5.901  15.184  0.00  0.00    +0.000 OA
ATOM     32  C   UNL     1      48.929   7.607  16.806  0.00  0.00    +0.000 A 
ATOM     33  H   UNL     1      49.404   4.355  16.948  0.00  0.00    +0.000 HD
ENDBRANCH  20  23
ENDBRANCH  18  19
ENDBRANCH   4  18
TORSDOF 7
ENDMDL
MODEL 4
REMARK VINA RESULT:    -6.588      4.434      6.097
REMARK INTER + INTRA:         -10.196
REMARK INTER:                  -9.195
REMARK INTRA:                  -1.001
REMARK UNBOUND:                -1.105
REMARK  Name = 
REMARK  7 active torsions:
REMARK  status: ('A' for Active; 'I' for Inactive)
REMARK    1  A    between atoms: N_1  and  C_2
REMARK    2  A    between atoms: C_2  and  C_3
REMARK    3  A    between atoms: N_7  and  C_8
REMARK    4  A    between atoms: C_8  and  C_9
REMARK    5  A    between atoms: C_12  and  C_13
REMARK    6  A    between atoms: C_13  and  N_14
REMARK    7  A    between atoms: C_15  and  C_17
REMARK                            x       y       z     vdW  Elec       q    Type
REMARK                         _______ _______ _______ _____ _____    ______ ____
ROOT
ATOM      1  C   UNL     1      48.663   7.847  16.188  0.00  0.00    +0.000 A 
ATOM      2  C   UNL     1      48.350   9.043  15.519  0.00  0.00    +0.000 A 
ATOM      3  C   UNL     1      47.945   9.036  14.179  0.00  0.00    +0.000 A 
ATOM      4  C   UNL     1      47.868   7.833  13.470  0.00  0.00    +0.000 A 
ATOM      5  C   UNL     1      48.287   6.653  14.100  0.00  0.00    +0.000 A 
ATOM      6  C   UNL     1      48.665   6.658  15.449  0.00  0.00    +0.000 A 
ENDROOT
BRANCH   1   7
ATOM      7  C   UNL     1      48.953   7.848  17.681  0.00  0.00    +0.000 C 
BRANCH   7  12
ATOM      8  C   UNL     1      49.093   4.367  19.349  0.00  0.00    +0.000 C 
ATOM      9  C   UNL     1      48.704   4.847  20.752  0.00  0.00    +0.000 C 
ATOM     10  C   UNL     1      47.629   5.919  20.691  0.00  0.00    +0.000 C 
ATOM     11  C   UNL     1      48.097   7.089  19.835  0.00  0.00    +0.000 C 
ATOM     12  N   UNL     1      48.386   6.696  18.448  0.00  0.00    +0.000 NA
ATOM     13  C   UNL     1      49.352   5.573  18.404  0.00  0.00    +0.000 C 
BRANCH   8  14
ATOM     14  C   UNL     1      48.100   3.344  18.762  0.00  0.00    +0.000 C 
BRANCH  14  15
ATOM     15  N   UNL     1      47.129   3.996  17.873  0.00  0.00    +0.000 NA
ATOM     16  H   UNL     1      46.990   4.962  18.167  0.00  0.00    +0.000 HD
ATOM     17  H   UNL     1      46.219   3.546  17.964  0.00  0.00    +0.000 HD
ENDBRANCH  14  15
ENDBRANCH   8  14
ENDBRANCH   7  12
ENDBRANCH   1   7
BRANCH   4  18
ATOM     18  C   UNL     1      47.329   7.804  12.062  0.00  0.00    +0.000 C 
BRANCH  18  19
ATOM     19  N   UNL     1      46.705   6.543  11.753  0.00  0.00    +0.000 N 
ATOM     20  C   UNL     1      45.335   6.426  11.729  0.00  0.00    +0.000 C 
ATOM     21  O   UNL     1      44.596   7.388  11.906  0.00  0.00    +0.000 OA
ATOM     22  H   UNL     1      47.275   5.713  11.842  0.00  0.00    +0.000 HD
BRANCH  20  23
ATOM     23  C   UNL     1      44.794   5.096  11.420  0.00  0.00    +0.000 A 
ATOM     24  C   UNL     1      44.053   4.415  12.380  0.00  0.00    +0.000 A 
ATOM     25  S   UNL     1      43.451   2.915  11.840  0.00  0.00    +0.000 S 
ATOM     26  C   UNL     1      44.205   3.093  10.324  0.00  0.00    +0.000 A 
ATOM     27  N   UNL     1      44.101   2.128   9.373  0.00  0.00    +0.000 NA
ATOM     28  C   UNL     1      44.748   2.380   8.283  0.00  0.00    +0.000 A 
ATOM     29  N   UNL     1      45.488   3.513   8.060  0.00  0.00    +0.000 N 
ATOM     30  C   UNL     1      45.596   4.529   8.980  0.00  0.00    +0.000 A 
ATOM     31  O   UNL     1      46.229   5.548   8.731  0.00  0.00    +0.000 OA
ATOM     32  C   UNL     1      44.893   4.289  10.227  0.00  0.00    +0.000 A 
ATOM     33  H   UNL     1      45.962   3.657   7.180  0.00  0.00    +0.000 HD
ENDBRANCH  20  23
ENDBRANCH  18  19
ENDBRANCH   4  18
TORSDOF 7
ENDMDL
MODEL 5
REMARK VINA RESULT:    -6.481      7.271      8.471
REMARK INTER + INTRA:         -10.048
REMARK INTER:                  -8.913
REMARK INTRA:                  -1.136
REMARK UNBOUND:                -1.105
REMARK  Name = 
REMARK  7 active torsions:
REMARK  status: ('A' for Active; 'I' for Inactive)
REMARK    1  A    between atoms: N_1  and  C_2
REMARK    2  A    between atoms: C_2  and  C_3
REMARK    3  A    between atoms: N_7  and  C_8
REMARK    4  A    between atoms: C_8  and  C_9
REMARK    5  A    between atoms: C_12  and  C_13
REMARK    6  A    between atoms: C_13  and  N_14
REMARK    7  A    between atoms: C_15  and  C_17
REMARK                            x       y       z     vdW  Elec       q    Type
REMARK                         _______ _______ _______ _____ _____    ______ ____
ROOT
ATOM      1  C   UNL     1      50.481   8.963  11.163  0.00  0.00    +0.000 A 
ATOM      2  C   UNL     1      49.574  10.012  11.387  0.00  0.00    +0.000 A 
ATOM      3  C   UNL     1      48.318   9.771  11.955  0.00  0.00    +0.000 A 
ATOM      4  C   UNL     1      47.931   8.469  12.289  0.00  0.00    +0.000 A 
ATOM      5  C   UNL     1      48.788   7.409  11.963  0.00  0.00    +0.000 A 
ATOM      6  C   UNL     1      50.056   7.654  11.420  0.00  0.00    +0.000 A 
ENDROOT
BRANCH   1   7
ATOM      7  C   UNL     1      51.898   9.252  10.689  0.00  0.00    +0.000 C 
BRANCH   7  12
ATOM      8  C   UNL     1      54.141   7.794   7.903  0.00  0.00    +0.000 C 
ATOM      9  C   UNL     1      55.103   7.058   8.843  0.00  0.00    +0.000 C 
ATOM     10  C   UNL     1      54.361   6.424  10.008  0.00  0.00    +0.000 C 
ATOM     11  C   UNL     1      53.572   7.481  10.770  0.00  0.00    +0.000 C 
ATOM     12  N   UNL     1      52.563   8.147   9.933  0.00  0.00    +0.000 NA
ATOM     13  C   UNL     1      53.176   8.709   8.706  0.00  0.00    +0.000 C 
BRANCH   8  14
ATOM     14  C   UNL     1      53.407   6.851   6.928  0.00  0.00    +0.000 C 
BRANCH  14  15
ATOM     15  N   UNL     1      52.001   6.678   7.316  0.00  0.00    +0.000 NA
ATOM     16  H   UNL     1      51.699   7.475   7.875  0.00  0.00    +0.000 HD
ATOM     17  H   UNL     1      51.907   5.864   7.922  0.00  0.00    +0.000 HD
ENDBRANCH  14  15
ENDBRANCH   8  14
ENDBRANCH   7  12
ENDBRANCH   1   7
BRANCH   4  18
ATOM     18  C   UNL     1      46.626   8.213  13.000  0.00  0.00    +0.000 C 
BRANCH  18  19
ATOM     19  N   UNL     1      46.118   6.892  12.729  0.00  0.00    +0.000 N 
ATOM     20  C   UNL     1      45.125   6.701  11.798  0.00  0.00    +0.000 C 
ATOM     21  O   UNL     1      44.676   7.622  11.124  0.00  0.00    +0.000 OA
ATOM     22  H   UNL     1      46.296   6.180  13.423  0.00  0.00    +0.000 HD
BRANCH  20  23
ATOM     23  C   UNL     1      44.662   5.320  11.605  0.00  0.00    +0.000 A 
ATOM     24  C   UNL     1      43.966   4.680  12.624  0.00  0.00    +0.000 A 
ATOM     25  S   UNL     1      43.451   3.107  12.215  0.00  0.00    +0.000 S 
ATOM     26  C   UNL     1      44.188   3.202  10.683  0.00  0.00    +0.000 A 
ATOM     27  N   UNL     1      44.137   2.158   9.816  0.00  0.00    +0.000 NA
ATOM     28  C   UNL     1      44.764   2.356   8.703  0.00  0.00    +0.000 A 
ATOM     29  N   UNL     1      45.435   3.507   8.381  0.00  0.00    +0.000 N 
ATOM     30  C   UNL     1      45.486   4.601   9.213  0.00  0.00    +0.000 A 
ATOM     31  O   UNL     1      46.058   5.631   8.875  0.00  0.00    +0.000 OA
ATOM     32  C   UNL     1      44.803   4.425  10.481  0.00  0.00    +0.000 A 
ATOM     33  H   UNL     1      45.896   3.606   7.488  0.00  0.00    +0.000 HD
ENDBRANCH  20  23
ENDBRANCH  18  19
ENDBRANCH   4  18
TORSDOF 7
ENDMDL
MODEL 6
REMARK VINA RESULT:    -6.472      4.977      9.797
REMARK INTER + INTRA:         -10.037
REMARK INTER:                  -9.446
REMARK INTRA:                  -0.590
REMARK UNBOUND:                -1.105
REMARK  Name = 
REMARK  7 active torsions:
REMARK  status: ('A' for Active; 'I' for Inactive)
REMARK    1  A    between atoms: N_1  and  C_2
REMARK    2  A    between atoms: C_2  and  C_3
REMARK    3  A    between atoms: N_7  and  C_8
REMARK    4  A    between atoms: C_8  and  C_9
REMARK    5  A    between atoms: C_12  and  C_13
REMARK    6  A    between atoms: C_13  and  N_14
REMARK    7  A    between atoms: C_15  and  C_17
REMARK                            x       y       z     vdW  Elec       q    Type
REMARK                         _______ _______ _______ _____ _____    ______ ____
ROOT
ATOM      1  C   UNL     1      45.029   4.520  10.307  0.00  0.00    +0.000 A 
ATOM      2  C   UNL     1      45.076   3.614  11.381  0.00  0.00    +0.000 A 
ATOM      3  C   UNL     1      45.626   3.984  12.614  0.00  0.00    +0.000 A 
ATOM      4  C   UNL     1      46.165   5.262  12.792  0.00  0.00    +0.000 A 
ATOM      5  C   UNL     1      46.221   6.128  11.691  0.00  0.00    +0.000 A 
ATOM      6  C   UNL     1      45.645   5.767  10.466  0.00  0.00    +0.000 A 
ENDROOT
BRANCH   1   7
ATOM      7  C   UNL     1      44.293   4.162   9.024  0.00  0.00    +0.000 C 
BRANCH   7  12
ATOM      8  C   UNL     1      47.321   2.892   6.989  0.00  0.00    +0.000 C 
ATOM      9  C   UNL     1      47.413   1.525   7.679  0.00  0.00    +0.000 C 
ATOM     10  C   UNL     1      46.034   0.947   7.947  0.00  0.00    +0.000 C 
ATOM     11  C   UNL     1      45.208   1.914   8.785  0.00  0.00    +0.000 C 
ATOM     12  N   UNL     1      45.005   3.210   8.118  0.00  0.00    +0.000 NA
ATOM     13  C   UNL     1      46.300   3.810   7.716  0.00  0.00    +0.000 C 
BRANCH   8  14
ATOM     14  C   UNL     1      47.065   2.789   5.472  0.00  0.00    +0.000 C 
BRANCH  14  15
ATOM     15  N   UNL     1      48.263   2.321   4.763  0.00  0.00    +0.000 NA
ATOM     16  H   UNL     1      48.149   2.472   3.761  0.00  0.00    +0.000 HD
ATOM     17  H   UNL     1      48.363   1.313   4.880  0.00  0.00    +0.000 HD
ENDBRANCH  14  15
ENDBRANCH   8  14
ENDBRANCH   7  12
ENDBRANCH   1   7
BRANCH   4  18
ATOM     18  C   UNL     1      46.660   5.706  14.146  0.00  0.00    +0.000 C 
BRANCH  18  19
ATOM     19  N   UNL     1      48.017   6.187  14.089  0.00  0.00    +0.000 N 
ATOM     20  C   UNL     1      48.288   7.533  14.162  0.00  0.00    +0.000 C 
ATOM     21  O   UNL     1      47.406   8.367  14.337  0.00  0.00    +0.000 OA
ATOM     22  H   UNL     1      48.712   5.557  13.713  0.00  0.00    +0.000 HD
BRANCH  20  23
ATOM     23  C   UNL     1      49.701   7.924  14.079  0.00  0.00    +0.000 A 
ATOM     24  C   UNL     1      50.112   8.809  13.088  0.00  0.00    +0.000 A 
ATOM     25  S   UNL     1      51.769   9.203  13.170  0.00  0.00    +0.000 S 
ATOM     26  C   UNL     1      52.010   8.162  14.496  0.00  0.00    +0.000 A 
ATOM     27  N   UNL     1      53.240   8.013  15.054  0.00  0.00    +0.000 NA
ATOM     28  C   UNL     1      53.284   7.169  16.033  0.00  0.00    +0.000 A 
ATOM     29  N   UNL     1      52.207   6.463  16.501  0.00  0.00    +0.000 N 
ATOM     30  C   UNL     1      50.939   6.604  15.989  0.00  0.00    +0.000 A 
ATOM     31  O   UNL     1      49.989   5.990  16.462  0.00  0.00    +0.000 OA
ATOM     32  C   UNL     1      50.838   7.536  14.880  0.00  0.00    +0.000 A 
ATOM     33  H   UNL     1      52.303   5.827  17.279  0.00  0.00    +0.000 HD
ENDBRANCH  20  23
ENDBRANCH  18  19
ENDBRANCH   4  18
TORSDOF 7
ENDMDL
MODEL 7
REMARK VINA RESULT:    -6.437      2.352      3.569
REMARK INTER + INTRA:          -9.988
REMARK INTER:                  -8.870
REMARK INTRA:                  -1.119
REMARK UNBOUND:                -1.105
REMARK  Name = 
REMARK  7 active torsions:
REMARK  status: ('A' for Active; 'I' for Inactive)
REMARK    1  A    between atoms: N_1  and  C_2
REMARK    2  A    between atoms: C_2  and  C_3
REMARK    3  A    between atoms: N_7  and  C_8
REMARK    4  A    between atoms: C_8  and  C_9
REMARK    5  A    between atoms: C_12  and  C_13
REMARK    6  A    between atoms: C_13  and  N_14
REMARK    7  A    between atoms: C_15  and  C_17
REMARK                            x       y       z     vdW  Elec       q    Type
REMARK                         _______ _______ _______ _____ _____    ______ ____
ROOT
ATOM      1  C   UNL     1      51.328   3.654  18.085  0.00  0.00    +0.000 A 
ATOM      2  C   UNL     1      50.869   2.524  17.388  0.00  0.00    +0.000 A 
ATOM      3  C   UNL     1      49.517   2.382  17.055  0.00  0.00    +0.000 A 
ATOM      4  C   UNL     1      48.589   3.357  17.433  0.00  0.00    +0.000 A 
ATOM      5  C   UNL     1      49.026   4.429  18.225  0.00  0.00    +0.000 A 
ATOM      6  C   UNL     1      50.383   4.584  18.534  0.00  0.00    +0.000 A 
ENDROOT
BRANCH   1   7
ATOM      7  C   UNL     1      52.818   3.874  18.308  0.00  0.00    +0.000 C 
BRANCH   7  12
ATOM      8  C   UNL     1      54.421   7.212  17.212  0.00  0.00    +0.000 C 
ATOM      9  C   UNL     1      55.775   6.613  16.811  0.00  0.00    +0.000 C 
ATOM     10  C   UNL     1      55.602   5.274  16.114  0.00  0.00    +0.000 C 
ATOM     11  C   UNL     1      54.834   4.309  17.008  0.00  0.00    +0.000 C 
ATOM     12  N   UNL     1      53.485   4.795  17.338  0.00  0.00    +0.000 NA
ATOM     13  C   UNL     1      53.540   6.153  17.929  0.00  0.00    +0.000 C 
BRANCH   8  14
ATOM     14  C   UNL     1      53.696   7.909  16.043  0.00  0.00    +0.000 C 
BRANCH  14  15
ATOM     15  N   UNL     1      52.653   7.045  15.476  0.00  0.00    +0.000 NA
ATOM     16  H   UNL     1      52.843   6.882  14.487  0.00  0.00    +0.000 HD
ATOM     17  H   UNL     1      51.753   7.522  15.508  0.00  0.00    +0.000 HD
ENDBRANCH  14  15
ENDBRANCH   8  14
ENDBRANCH   7  12
ENDBRANCH   1   7
BRANCH   4  18
ATOM     18  C   UNL     1      47.152   3.267  16.985  0.00  0.00    +0.000 C 
BRANCH  18  19
ATOM     19  N   UNL     1      46.830   4.278  16.010  0.00  0.00    +0.000 N 
ATOM     20  C   UNL     1      47.041   4.052  14.671  0.00  0.00    +0.000 C 
ATOM     21  O   UNL     1      47.448   2.976  14.247  0.00  0.00    +0.000 OA
ATOM     22  H   UNL     1      46.728   5.225  16.347  0.00  0.00    +0.000 HD
BRANCH  20  23
ATOM     23  C   UNL     1      46.696   5.150  13.757  0.00  0.00    +0.000 A 
ATOM     24  C   UNL     1      47.614   6.170  13.532  0.00  0.00    +0.000 A 
ATOM     25  S   UNL     1      47.081   7.330  12.403  0.00  0.00    +0.000 S 
ATOM     26  C   UNL     1      45.582   6.543  12.215  0.00  0.00    +0.000 A 
ATOM     27  N   UNL     1      44.630   7.041  11.384  0.00  0.00    +0.000 NA
ATOM     28  C   UNL     1      43.531   6.360  11.362  0.00  0.00    +0.000 A 
ATOM     29  N   UNL     1      43.303   5.225  12.097  0.00  0.00    +0.000 N 
ATOM     30  C   UNL     1      44.247   4.668  12.926  0.00  0.00    +0.000 A 
ATOM     31  O   UNL     1      44.026   3.627  13.535  0.00  0.00    +0.000 OA
ATOM     32  C   UNL     1      45.498   5.402  12.992  0.00  0.00    +0.000 A 
ATOM     33  H   UNL     1      42.426   4.730  12.027  0.00  0.00    +0.000 HD
ENDBRANCH  20  23
ENDBRANCH  18  19
ENDBRANCH   4  18
TORSDOF 7
ENDMDL
MODEL 8
REMARK VINA RESULT:    -6.390      3.183      9.719
REMARK INTER + INTRA:          -9.923
REMARK INTER:                  -8.922
REMARK INTRA:                  -1.001
REMARK UNBOUND:                -1.105
REMARK  Name = 
REMARK  7 active torsions:
REMARK  status: ('A' for Active; 'I' for Inactive)
REMARK    1  A    between atoms: N_1  and  C_2
REMARK    2  A    between atoms: C_2  and  C_3
REMARK    3  A    between atoms: N_7  and  C_8
REMARK    4  A    between atoms: C_8  and  C_9
REMARK    5  A    between atoms: C_12  and  C_13
REMARK    6  A    between atoms: C_13  and  N_14
REMARK    7  A    between atoms: C_15  and  C_17
REMARK                            x       y       z     vdW  Elec       q    Type
REMARK                         _______ _______ _______ _____ _____    ______ ____
ROOT
ATOM      1  C   UNL     1      46.974   7.463  12.909  0.00  0.00    +0.000 A 
ATOM      2  C   UNL     1      47.522   6.329  13.532  0.00  0.00    +0.000 A 
ATOM      3  C   UNL     1      48.325   6.448  14.672  0.00  0.00    +0.000 A 
ATOM      4  C   UNL     1      48.619   7.709  15.200  0.00  0.00    +0.000 A 
ATOM      5  C   UNL     1      48.167   8.847  14.516  0.00  0.00    +0.000 A 
ATOM      6  C   UNL     1      47.340   8.725  13.393  0.00  0.00    +0.000 A 
ENDROOT
BRANCH   1   7
ATOM      7  C   UNL     1      45.980   7.315  11.766  0.00  0.00    +0.000 C 
BRANCH   7  12
ATOM      8  C   UNL     1      43.374   4.505  11.284  0.00  0.00    +0.000 C 
ATOM      9  C   UNL     1      43.785   4.153   9.849  0.00  0.00    +0.000 C 
ATOM     10  C   UNL     1      45.294   4.201   9.678  0.00  0.00    +0.000 C 
ATOM     11  C   UNL     1      45.826   5.575  10.065  0.00  0.00    +0.000 C 
ATOM     12  N   UNL     1      45.545   5.917  11.468  0.00  0.00    +0.000 NA
ATOM     13  C   UNL     1      44.098   5.793  11.765  0.00  0.00    +0.000 C 
BRANCH   8  14
ATOM     14  C   UNL     1      43.527   3.326  12.265  0.00  0.00    +0.000 C 
BRANCH  14  15
ATOM     15  N   UNL     1      42.990   2.085  11.690  0.00  0.00    +0.000 NA
ATOM     16  H   UNL     1      42.005   1.993  11.936  0.00  0.00    +0.000 HD
ATOM     17  H   UNL     1      43.456   1.281  12.109  0.00  0.00    +0.000 HD
ENDBRANCH  14  15
ENDBRANCH   8  14
ENDBRANCH   7  12
ENDBRANCH   1   7
BRANCH   4  18
ATOM     18  C   UNL     1      49.392   7.843  16.488  0.00  0.00    +0.000 C 
BRANCH  18  19
ATOM     19  N   UNL     1      50.289   6.734  16.693  0.00  0.00    +0.000 N 
ATOM     20  C   UNL     1      50.596   6.306  17.962  0.00  0.00    +0.000 C 
ATOM     21  O   UNL     1      50.083   6.801  18.960  0.00  0.00    +0.000 OA
ATOM     22  H   UNL     1      50.890   6.481  15.921  0.00  0.00    +0.000 HD
BRANCH  20  23
ATOM     23  C   UNL     1      51.534   5.180  18.067  0.00  0.00    +0.000 A 
ATOM     24  C   UNL     1      52.827   5.401  18.527  0.00  0.00    +0.000 A 
ATOM     25  S   UNL     1      53.763   3.981  18.644  0.00  0.00    +0.000 S 
ATOM     26  C   UNL     1      52.493   3.026  18.030  0.00  0.00    +0.000 A 
ATOM     27  N   UNL     1      52.647   1.688  17.854  0.00  0.00    +0.000 NA
ATOM     28  C   UNL     1      51.615   1.092  17.353  0.00  0.00    +0.000 A 
ATOM     29  N   UNL     1      50.443   1.718  17.013  0.00  0.00    +0.000 N 
ATOM     30  C   UNL     1      50.232   3.063  17.202  0.00  0.00    +0.000 A 
ATOM     31  O   UNL     1      49.155   3.583  16.929  0.00  0.00    +0.000 OA
ATOM     32  C   UNL     1      51.366   3.779  17.756  0.00  0.00    +0.000 A 
ATOM     33  H   UNL     1      49.667   1.195  16.636  0.00  0.00    +0.000 HD
ENDBRANCH  20  23
ENDBRANCH  18  19
ENDBRANCH   4  18
TORSDOF 7
ENDMDL
MODEL 9
REMARK VINA RESULT:    -6.077      4.221      9.276
REMARK INTER + INTRA:          -9.491
REMARK INTER:                  -8.469
REMARK INTRA:                  -1.022
REMARK UNBOUND:                -1.105
REMARK  Name = 
REMARK  7 active torsions:
REMARK  status: ('A' for Active; 'I' for Inactive)
REMARK    1  A    between atoms: N_1  and  C_2
REMARK    2  A    between atoms: C_2  and  C_3
REMARK    3  A    between atoms: N_7  and  C_8
REMARK    4  A    between atoms: C_8  and  C_9
REMARK    5  A    between atoms: C_12  and  C_13
REMARK    6  A    between atoms: C_13  and  N_14
REMARK    7  A    between atoms: C_15  and  C_17
REMARK                            x       y       z     vdW  Elec       q    Type
REMARK                         _______ _______ _______ _____ _____    ______ ____
ROOT
ATOM      1  C   UNL     1      46.316   7.940  12.066  0.00  0.00    +0.000 A 
ATOM      2  C   UNL     1      47.458   7.214  11.687  0.00  0.00    +0.000 A 
ATOM      3  C   UNL     1      48.645   7.302  12.424  0.00  0.00    +0.000 A 
ATOM      4  C   UNL     1      48.724   8.137  13.542  0.00  0.00    +0.000 A 
ATOM      5  C   UNL     1      47.622   8.947  13.855  0.00  0.00    +0.000 A 
ATOM      6  C   UNL     1      46.426   8.838  13.135  0.00  0.00    +0.000 A 
ENDROOT
BRANCH   1   7
ATOM      7  C   UNL     1      44.989   7.722  11.353  0.00  0.00    +0.000 C 
BRANCH   7  12
ATOM      8  C   UNL     1      45.183   3.898  10.848  0.00  0.00    +0.000 C 
ATOM      9  C   UNL     1      44.881   3.530  12.306  0.00  0.00    +0.000 C 
ATOM     10  C   UNL     1      43.818   4.440  12.897  0.00  0.00    +0.000 C 
ATOM     11  C   UNL     1      44.250   5.897  12.791  0.00  0.00    +0.000 C 
ATOM     12  N   UNL     1      44.454   6.327  11.399  0.00  0.00    +0.000 NA
ATOM     13  C   UNL     1      45.402   5.429  10.698  0.00  0.00    +0.000 C 
BRANCH   8  14
ATOM     14  C   UNL     1      44.145   3.338   9.854  0.00  0.00    +0.000 C 
BRANCH  14  15
ATOM     15  N   UNL     1      43.782   4.340   8.844  0.00  0.00    +0.000 NA
ATOM     16  H   UNL     1      43.793   5.269   9.264  0.00  0.00    +0.000 HD
ATOM     17  H   UNL     1      42.823   4.188   8.535  0.00  0.00    +0.000 HD
ENDBRANCH  14  15
ENDBRANCH   8  14
ENDBRANCH   7  12
ENDBRANCH   1   7
BRANCH   4  18
ATOM     18  C   UNL     1      49.961   8.155  14.404  0.00  0.00    +0.000 C 
BRANCH  18  19
ATOM     19  N   UNL     1      49.908   7.154  15.438  0.00  0.00    +0.000 N 
ATOM     20  C   UNL     1      49.484   7.477  16.706  0.00  0.00    +0.000 C 
ATOM     21  O   UNL     1      49.080   8.599  16.992  0.00  0.00    +0.000 OA
ATOM     22  H   UNL     1      50.449   6.313  15.292  0.00  0.00    +0.000 HD
BRANCH  20  23
ATOM     23  C   UNL     1      49.483   6.391  17.695  0.00  0.00    +0.000 A 
ATOM     24  C   UNL     1      50.181   6.545  18.887  0.00  0.00    +0.000 A 
ATOM     25  S   UNL     1      50.026   5.218  19.946  0.00  0.00    +0.000 S 
ATOM     26  C   UNL     1      49.067   4.364  18.827  0.00  0.00    +0.000 A 
ATOM     27  N   UNL     1      48.605   3.118  19.109  0.00  0.00    +0.000 NA
ATOM     28  C   UNL     1      47.917   2.575  18.158  0.00  0.00    +0.000 A 
ATOM     29  N   UNL     1      47.650   3.170  16.952  0.00  0.00    +0.000 N 
ATOM     30  C   UNL     1      48.070   4.440  16.635  0.00  0.00    +0.000 A 
ATOM     31  O   UNL     1      47.775   4.959  15.564  0.00  0.00    +0.000 OA
ATOM     32  C   UNL     1      48.855   5.090  17.669  0.00  0.00    +0.000 A 
ATOM     33  H   UNL     1      47.095   2.698  16.254  0.00  0.00    +0.000 HD
ENDBRANCH  20  23
ENDBRANCH  18  19
ENDBRANCH   4  18
TORSDOF 7
ENDMDL
