MODEL 1
REMARK VINA RESULT:    -7.732      0.000      0.000
REMARK INTER + INTRA:         -11.904
REMARK INTER:                 -10.896
REMARK INTRA:                  -1.008
REMARK UNBOUND:                -1.008
REMARK  Name = 
REMARK  7 active torsions:
REMARK  status: ('A' for Active; 'I' for Inactive)
REMARK    1  A    between atoms: C_2  and  C_19
REMARK    2  A    between atoms: N_3  and  C_4
REMARK    3  A    between atoms: C_4  and  C_5
REMARK    4  A    between atoms: C_8  and  C_9
REMARK    5  A    between atoms: C_9  and  C_10
REMARK    6  A    between atoms: C_10  and  O_11
REMARK    7  A    between atoms: O_11  and  C_12
REMARK                            x       y       z     vdW  Elec       q    Type
REMARK                         _______ _______ _______ _____ _____    ______ ____
ROOT
ATOM      1  C   UNL     1      46.697   7.103  12.887  0.00  0.00    +0.000 C 
ENDROOT
BRANCH   1   2
ATOM      2  C   UNL     1      45.986   5.971  12.214  0.00  0.00    +0.000 A 
ATOM      3  C   UNL     1      45.705   5.993  10.848  0.00  0.00    +0.000 A 
ATOM      4  C   UNL     1      45.081   4.900  10.243  0.00  0.00    +0.000 A 
ATOM      5  C   UNL     1      44.732   3.807  11.029  0.00  0.00    +0.000 A 
ATOM      6  N   UNL     1      44.963   3.782  12.363  0.00  0.00    +0.000 NA
ATOM      7  C   UNL     1      45.569   4.854  12.924  0.00  0.00    +0.000 A 
BRANCH   5   8
ATOM      8  C   UNL     1      44.086   2.593  10.398  0.00  0.00    +0.000 C 
BRANCH   8   9
ATOM      9  C   UNL     1      44.441   2.437   8.916  0.00  0.00    +0.000 C 
BRANCH   9  10
ATOM     10  O   UNL     1      45.713   1.785   8.785  0.00  0.00    +0.000 OA
BRANCH  10  11
ATOM     11  C   UNL     1      46.387   2.170   7.704  0.00  0.00    +0.000 A 
ATOM     12  N   UNL     1      46.108   3.200   6.933  0.00  0.00    +0.000 NA
ATOM     13  C   UNL     1      47.055   3.189   5.948  0.00  0.00    +0.000 A 
ATOM     14  C   UNL     1      47.921   2.130   6.119  0.00  0.00    +0.000 A 
ATOM     15  N   UNL     1      47.483   1.497   7.256  0.00  0.00    +0.000 N 
ATOM     16  H   UNL     1      47.879   0.679   7.690  0.00  0.00    +0.000 HD
ENDBRANCH  10  11
ENDBRANCH   9  10
ENDBRANCH   8   9
ENDBRANCH   5   8
ENDBRANCH   1   2
BRANCH   1  19
ATOM     17  O   UNL     1      49.363   6.751  13.718  0.00  0.00    +0.000 OA
ATOM     18  C   UNL     1      48.461   6.638  14.544  0.00  0.00    +0.000 C 
ATOM     19  N   UNL     1      47.137   6.754  14.213  0.00  0.00    +0.000 N 
ATOM     20  H   UNL     1      46.448   6.833  14.953  0.00  0.00    +0.000 HD
BRANCH  18  21
ATOM     21  C   UNL     1      48.745   6.314  15.947  0.00  0.00    +0.000 A 
ATOM     22  C   UNL     1      49.368   7.247  16.763  0.00  0.00    +0.000 A 
ATOM     23  S   UNL     1      49.605   6.701  18.363  0.00  0.00    +0.000 S 
ATOM     24  C   UNL     1      48.854   5.212  18.023  0.00  0.00    +0.000 A 
ATOM     25  N   UNL     1      48.692   4.269  18.989  0.00  0.00    +0.000 NA
ATOM     26  C   UNL     1      48.070   3.206  18.599  0.00  0.00    +0.000 A 
ATOM     27  N   UNL     1      47.611   2.991  17.327  0.00  0.00    +0.000 N 
ATOM     28  C   UNL     1      47.825   3.879  16.303  0.00  0.00    +0.000 A 
ATOM     29  O   UNL     1      47.542   3.591  15.143  0.00  0.00    +0.000 OA
ATOM     30  C   UNL     1      48.464   5.119  16.700  0.00  0.00    +0.000 A 
ATOM     31  H   UNL     1      47.168   2.121  17.075  0.00  0.00    +0.000 HD
ENDBRANCH  18  21
ENDBRANCH   1  19
TORSDOF 7
ENDMDL
MODEL 2
REMARK VINA RESULT:    -7.233      2.150      2.873
REMARK INTER + INTRA:         -11.201
REMARK INTER:                 -10.427
REMARK INTRA:                  -0.774
REMARK UNBOUND:                -1.008
REMARK  Name = 
REMARK  7 active torsions:
REMARK  status: ('A' for Active; 'I' for Inactive)
REMARK    1  A    between atoms: C_2  and  C_19
REMARK    2  A    between atoms: N_3  and  C_4
REMARK    3  A    between atoms: C_4  and  C_5
REMARK    4  A    between atoms: C_8  and  C_9
REMARK    5  A    between atoms: C_9  and  C_10
REMARK    6  A    between atoms: C_10  and  O_11
REMARK    7  A    between atoms: O_11  and  C_12
REMARK                            x       y       z     vdW  Elec       q    Type
REMARK                         _______ _______ _______ _____ _____    ______ ____
ROOT
ATOM      1  C   UNL     1      48.032   6.350  13.715  0.00  0.00    +0.000 C 
ENDROOT
BRANCH   1   2
ATOM      2  C   UNL     1      46.931   5.623  13.007  0.00  0.00    +0.000 A 
ATOM      3  C   UNL     1      46.340   6.137  11.853  0.00  0.00    +0.000 A 
ATOM      4  C   UNL     1      45.347   5.411  11.192  0.00  0.00    +0.000 A 
ATOM      5  C   UNL     1      44.950   4.185  11.716  0.00  0.00    +0.000 A 
ATOM      6  N   UNL     1      45.485   3.688  12.855  0.00  0.00    +0.000 NA
ATOM      7  C   UNL     1      46.446   4.411  13.476  0.00  0.00    +0.000 A 
BRANCH   5   8
ATOM      8  C   UNL     1      43.900   3.360  11.005  0.00  0.00    +0.000 C 
BRANCH   8   9
ATOM      9  C   UNL     1      44.231   3.127   9.528  0.00  0.00    +0.000 C 
BRANCH   9  10
ATOM     10  O   UNL     1      44.796   1.819   9.354  0.00  0.00    +0.000 OA
BRANCH  10  11
ATOM     11  C   UNL     1      45.775   1.789   8.455  0.00  0.00    +0.000 A 
ATOM     12  N   UNL     1      46.435   0.724   8.051  0.00  0.00    +0.000 NA
ATOM     13  C   UNL     1      47.349   1.180   7.144  0.00  0.00    +0.000 A 
ATOM     14  C   UNL     1      47.249   2.547   6.999  0.00  0.00    +0.000 A 
ATOM     15  N   UNL     1      46.227   2.916   7.839  0.00  0.00    +0.000 N 
ATOM     16  H   UNL     1      45.870   3.845   7.992  0.00  0.00    +0.000 HD
ENDBRANCH  10  11
ENDBRANCH   9  10
ENDBRANCH   8   9
ENDBRANCH   5   8
ENDBRANCH   1   2
BRANCH   1  19
ATOM     17  O   UNL     1      50.117   6.508  15.598  0.00  0.00    +0.000 OA
ATOM     18  C   UNL     1      48.960   6.403  15.997  0.00  0.00    +0.000 C 
ATOM     19  N   UNL     1      47.894   6.279  15.146  0.00  0.00    +0.000 N 
ATOM     20  H   UNL     1      46.954   6.378  15.514  0.00  0.00    +0.000 HD
BRANCH  18  21
ATOM     21  C   UNL     1      48.648   6.347  17.430  0.00  0.00    +0.000 A 
ATOM     22  C   UNL     1      48.767   5.149  18.120  0.00  0.00    +0.000 A 
ATOM     23  S   UNL     1      48.375   5.277  19.776  0.00  0.00    +0.000 S 
ATOM     24  C   UNL     1      48.065   6.943  19.630  0.00  0.00    +0.000 A 
ATOM     25  N   UNL     1      47.708   7.691  20.708  0.00  0.00    +0.000 NA
ATOM     26  C   UNL     1      47.543   8.947  20.457  0.00  0.00    +0.000 A 
ATOM     27  N   UNL     1      47.685   9.523  19.223  0.00  0.00    +0.000 N 
ATOM     28  C   UNL     1      47.963   8.794  18.094  0.00  0.00    +0.000 A 
ATOM     29  O   UNL     1      47.929   9.311  16.980  0.00  0.00    +0.000 OA
ATOM     30  C   UNL     1      48.219   7.387  18.330  0.00  0.00    +0.000 A 
ATOM     31  H   UNL     1      47.503  10.505  19.085  0.00  0.00    +0.000 HD
ENDBRANCH  18  21
ENDBRANCH   1  19
TORSDOF 7
ENDMDL
MODEL 3
REMARK VINA RESULT:    -6.836      2.207      3.526
REMARK INTER + INTRA:         -10.641
REMARK INTER:                  -9.813
REMARK INTRA:                  -0.828
REMARK UNBOUND:                -1.008
REMARK  Name = 
REMARK  7 active torsions:
REMARK  status: ('A' for Active; 'I' for Inactive)
REMARK    1  A    between atoms: C_2  and  C_19
REMARK    2  A    between atoms: N_3  and  C_4
REMARK    3  A    between atoms: C_4  and  C_5
REMARK    4  A    between atoms: C_8  and  C_9
REMARK    5  A    between atoms: C_9  and  C_10
REMARK    6  A    between atoms: C_10  and  O_11
REMARK    7  A    between atoms: O_11  and  C_12
REMARK                            x       y       z     vdW  Elec       q    Type
REMARK                         _______ _______ _______ _____ _____    ______ ____
ROOT
ATOM      1  C   UNL     1      47.290   4.176  15.406  0.00  0.00    +0.000 C 
ENDROOT
BRANCH   1   2
ATOM      2  C   UNL     1      46.767   4.588  14.066  0.00  0.00    +0.000 A 
ATOM      3  C   UNL     1      47.055   5.841  13.523  0.00  0.00    +0.000 A 
ATOM      4  C   UNL     1      46.589   6.176  12.250  0.00  0.00    +0.000 A 
ATOM      5  C   UNL     1      45.822   5.250  11.550  0.00  0.00    +0.000 A 
ATOM      6  N   UNL     1      45.502   4.045  12.075  0.00  0.00    +0.000 NA
ATOM      7  C   UNL     1      45.966   3.745  13.310  0.00  0.00    +0.000 A 
BRANCH   5   8
ATOM      8  C   UNL     1      45.331   5.571  10.156  0.00  0.00    +0.000 C 
BRANCH   8   9
ATOM      9  C   UNL     1      44.938   4.320   9.364  0.00  0.00    +0.000 C 
BRANCH   9  10
ATOM     10  O   UNL     1      45.396   4.435   8.009  0.00  0.00    +0.000 OA
BRANCH  10  11
ATOM     11  C   UNL     1      46.198   3.439   7.644  0.00  0.00    +0.000 A 
ATOM     12  N   UNL     1      46.058   2.167   7.953  0.00  0.00    +0.000 NA
ATOM     13  C   UNL     1      47.119   1.529   7.375  0.00  0.00    +0.000 A 
ATOM     14  C   UNL     1      47.923   2.429   6.710  0.00  0.00    +0.000 A 
ATOM     15  N   UNL     1      47.309   3.645   6.884  0.00  0.00    +0.000 N 
ATOM     16  H   UNL     1      47.614   4.537   6.531  0.00  0.00    +0.000 HD
ENDBRANCH  10  11
ENDBRANCH   9  10
ENDBRANCH   8   9
ENDBRANCH   5   8
ENDBRANCH   1   2
BRANCH   1  19
ATOM     17  O   UNL     1      49.632   4.958  16.758  0.00  0.00    +0.000 OA
ATOM     18  C   UNL     1      48.613   5.631  16.892  0.00  0.00    +0.000 C 
ATOM     19  N   UNL     1      47.423   5.295  16.302  0.00  0.00    +0.000 N 
ATOM     20  H   UNL     1      46.667   5.972  16.294  0.00  0.00    +0.000 HD
BRANCH  18  21
ATOM     21  C   UNL     1      48.590   6.822  17.749  0.00  0.00    +0.000 A 
ATOM     22  C   UNL     1      48.658   6.686  19.128  0.00  0.00    +0.000 A 
ATOM     23  S   UNL     1      48.633   8.177  19.960  0.00  0.00    +0.000 S 
ATOM     24  C   UNL     1      48.563   9.051  18.502  0.00  0.00    +0.000 A 
ATOM     25  N   UNL     1      48.552  10.410  18.495  0.00  0.00    +0.000 NA
ATOM     26  C   UNL     1      48.538  10.940  17.317  0.00  0.00    +0.000 A 
ATOM     27  N   UNL     1      48.517  10.235  16.143  0.00  0.00    +0.000 N 
ATOM     28  C   UNL     1      48.444   8.865  16.104  0.00  0.00    +0.000 A 
ATOM     29  O   UNL     1      48.267   8.269  15.045  0.00  0.00    +0.000 OA
ATOM     30  C   UNL     1      48.520   8.218  17.400  0.00  0.00    +0.000 A 
ATOM     31  H   UNL     1      48.466  10.709  15.255  0.00  0.00    +0.000 HD
ENDBRANCH  18  21
ENDBRANCH   1  19
TORSDOF 7
ENDMDL
MODEL 4
REMARK VINA RESULT:    -6.831      3.253      4.471
REMARK INTER + INTRA:         -10.634
REMARK INTER:                  -9.610
REMARK INTRA:                  -1.024
REMARK UNBOUND:                -1.008
REMARK  Name = 
REMARK  7 active torsions:
REMARK  status: ('A' for Active; 'I' for Inactive)
REMARK    1  A    between atoms: C_2  and  C_19
REMARK    2  A    between atoms: N_3  and  C_4
REMARK    3  A    between atoms: C_4  and  C_5
REMARK    4  A    between atoms: C_8  and  C_9
REMARK    5  A    between atoms: C_9  and  C_10
REMARK    6  A    between atoms: C_10  and  O_11
REMARK    7  A    between atoms: O_11  and  C_12
REMARK                            x       y       z     vdW  Elec       q    Type
REMARK                         _______ _______ _______ _____ _____    ______ ____
ROOT
ATOM      1  C   UNL     1      49.017   6.158  17.257  0.00  0.00    +0.000 C 
ENDROOT
BRANCH   1   2
ATOM      2  C   UNL     1      48.193   5.626  16.126  0.00  0.00    +0.000 A 
ATOM      3  C   UNL     1      48.190   6.238  14.872  0.00  0.00    +0.000 A 
ATOM      4  C   UNL     1      47.446   5.689  13.826  0.00  0.00    +0.000 A 
ATOM      5  C   UNL     1      46.698   4.540  14.064  0.00  0.00    +0.000 A 
ATOM      6  N   UNL     1      46.659   3.954  15.284  0.00  0.00    +0.000 NA
ATOM      7  C   UNL     1      47.389   4.505  16.280  0.00  0.00    +0.000 A 
BRANCH   5   8
ATOM      8  C   UNL     1      45.908   3.903  12.943  0.00  0.00    +0.000 C 
BRANCH   8   9
ATOM      9  C   UNL     1      44.556   4.584  12.710  0.00  0.00    +0.000 C 
BRANCH   9  10
ATOM     10  O   UNL     1      43.675   3.694  12.010  0.00  0.00    +0.000 OA
BRANCH  10  11
ATOM     11  C   UNL     1      43.999   3.539  10.729  0.00  0.00    +0.000 A 
ATOM     12  N   UNL     1      44.298   2.406  10.129  0.00  0.00    +0.000 NA
ATOM     13  C   UNL     1      44.576   2.739   8.833  0.00  0.00    +0.000 A 
ATOM     14  C   UNL     1      44.452   4.099   8.644  0.00  0.00    +0.000 A 
ATOM     15  N   UNL     1      44.070   4.591   9.867  0.00  0.00    +0.000 N 
ATOM     16  H   UNL     1      43.881   5.551  10.106  0.00  0.00    +0.000 HD
ENDBRANCH  10  11
ENDBRANCH   9  10
ENDBRANCH   8   9
ENDBRANCH   5   8
ENDBRANCH   1   2
BRANCH   1  19
ATOM     17  O   UNL     1      51.707   6.239  16.435  0.00  0.00    +0.000 OA
ATOM     18  C   UNL     1      51.353   5.373  17.230  0.00  0.00    +0.000 C 
ATOM     19  N   UNL     1      50.055   5.239  17.647  0.00  0.00    +0.000 N 
ATOM     20  H   UNL     1      49.849   4.633  18.434  0.00  0.00    +0.000 HD
BRANCH  18  21
ATOM     21  C   UNL     1      52.298   4.377  17.748  0.00  0.00    +0.000 A 
ATOM     22  C   UNL     1      53.484   4.789  18.341  0.00  0.00    +0.000 A 
ATOM     23  S   UNL     1      54.451   3.496  18.895  0.00  0.00    +0.000 S 
ATOM     24  C   UNL     1      53.301   2.348  18.390  0.00  0.00    +0.000 A 
ATOM     25  N   UNL     1      53.494   1.019  18.599  0.00  0.00    +0.000 NA
ATOM     26  C   UNL     1      52.521   0.268  18.201  0.00  0.00    +0.000 A 
ATOM     27  N   UNL     1      51.380   0.722  17.595  0.00  0.00    +0.000 N 
ATOM     28  C   UNL     1      51.181   2.045  17.290  0.00  0.00    +0.000 A 
ATOM     29  O   UNL     1      50.224   2.402  16.609  0.00  0.00    +0.000 OA
ATOM     30  C   UNL     1      52.215   2.940  17.773  0.00  0.00    +0.000 A 
ATOM     31  H   UNL     1      50.674   0.079  17.270  0.00  0.00    +0.000 HD
ENDBRANCH  18  21
ENDBRANCH   1  19
TORSDOF 7
ENDMDL
MODEL 5
REMARK VINA RESULT:    -6.684      3.927      8.507
REMARK INTER + INTRA:         -10.428
REMARK INTER:                  -9.125
REMARK INTRA:                  -1.302
REMARK UNBOUND:                -1.008
REMARK  Name = 
REMARK  7 active torsions:
REMARK  status: ('A' for Active; 'I' for Inactive)
REMARK    1  A    between atoms: C_2  and  C_19
REMARK    2  A    between atoms: N_3  and  C_4
REMARK    3  A    between atoms: C_4  and  C_5
REMARK    4  A    between atoms: C_8  and  C_9
REMARK    5  A    between atoms: C_9  and  C_10
REMARK    6  A    between atoms: C_10  and  O_11
REMARK    7  A    between atoms: O_11  and  C_12
REMARK                            x       y       z     vdW  Elec       q    Type
REMARK                         _______ _______ _______ _____ _____    ______ ____
ROOT
ATOM      1  C   UNL     1      47.168   3.404  16.893  0.00  0.00    +0.000 C 
ENDROOT
BRANCH   1   2
ATOM      2  C   UNL     1      48.628   3.445  17.219  0.00  0.00    +0.000 A 
ATOM      3  C   UNL     1      49.459   2.348  16.992  0.00  0.00    +0.000 A 
ATOM      4  C   UNL     1      50.825   2.436  17.264  0.00  0.00    +0.000 A 
ATOM      5  C   UNL     1      51.333   3.624  17.780  0.00  0.00    +0.000 A 
ATOM      6  N   UNL     1      50.536   4.686  18.042  0.00  0.00    +0.000 NA
ATOM      7  C   UNL     1      49.216   4.575  17.770  0.00  0.00    +0.000 A 
BRANCH   5   8
ATOM      8  C   UNL     1      52.814   3.762  18.054  0.00  0.00    +0.000 C 
BRANCH   8   9
ATOM      9  C   UNL     1      53.298   5.213  17.976  0.00  0.00    +0.000 C 
BRANCH   9  10
ATOM     10  O   UNL     1      53.472   5.597  16.604  0.00  0.00    +0.000 OA
BRANCH  10  11
ATOM     11  C   UNL     1      52.877   6.748  16.306  0.00  0.00    +0.000 A 
ATOM     12  N   UNL     1      53.375   7.955  16.479  0.00  0.00    +0.000 NA
ATOM     13  C   UNL     1      52.407   8.817  16.048  0.00  0.00    +0.000 A 
ATOM     14  C   UNL     1      51.299   8.124  15.611  0.00  0.00    +0.000 A 
ATOM     15  N   UNL     1      51.625   6.800  15.773  0.00  0.00    +0.000 N 
ATOM     16  H   UNL     1      51.054   6.001  15.554  0.00  0.00    +0.000 HD
ENDBRANCH  10  11
ENDBRANCH   9  10
ENDBRANCH   8   9
ENDBRANCH   5   8
ENDBRANCH   1   2
BRANCH   1  19
ATOM     17  O   UNL     1      47.247   3.054  14.102  0.00  0.00    +0.000 OA
ATOM     18  C   UNL     1      46.838   4.118  14.558  0.00  0.00    +0.000 C 
ATOM     19  N   UNL     1      46.807   4.384  15.901  0.00  0.00    +0.000 N 
ATOM     20  H   UNL     1      46.297   5.196  16.233  0.00  0.00    +0.000 HD
BRANCH  18  21
ATOM     21  C   UNL     1      46.404   5.210  13.679  0.00  0.00    +0.000 A 
ATOM     22  C   UNL     1      47.250   6.283  13.434  0.00  0.00    +0.000 A 
ATOM     23  S   UNL     1      46.584   7.448  12.379  0.00  0.00    +0.000 S 
ATOM     24  C   UNL     1      45.157   6.540  12.191  0.00  0.00    +0.000 A 
ATOM     25  N   UNL     1      44.157   6.962  11.373  0.00  0.00    +0.000 NA
ATOM     26  C   UNL     1      43.152   6.153  11.296  0.00  0.00    +0.000 A 
ATOM     27  N   UNL     1      43.047   4.970  11.976  0.00  0.00    +0.000 N 
ATOM     28  C   UNL     1      43.994   4.546  12.874  0.00  0.00    +0.000 A 
ATOM     29  O   UNL     1      43.800   3.563  13.584  0.00  0.00    +0.000 OA
ATOM     30  C   UNL     1      45.173   5.386  12.952  0.00  0.00    +0.000 A 
ATOM     31  H   UNL     1      42.216   4.402  11.904  0.00  0.00    +0.000 HD
ENDBRANCH  18  21
ENDBRANCH   1  19
TORSDOF 7
ENDMDL
MODEL 6
REMARK VINA RESULT:    -6.674      1.988      2.605
REMARK INTER + INTRA:         -10.413
REMARK INTER:                  -9.401
REMARK INTRA:                  -1.012
REMARK UNBOUND:                -1.008
REMARK  Name = 
REMARK  7 active torsions:
REMARK  status: ('A' for Active; 'I' for Inactive)
REMARK    1  A    between atoms: C_2  and  C_19
REMARK    2  A    between atoms: N_3  and  C_4
REMARK    3  A    between atoms: C_4  and  C_5
REMARK    4  A    between atoms: C_8  and  C_9
REMARK    5  A    between atoms: C_9  and  C_10
REMARK    6  A    between atoms: C_10  and  O_11
REMARK    7  A    between atoms: O_11  and  C_12
REMARK                            x       y       z     vdW  Elec       q    Type
REMARK                         _______ _______ _______ _____ _____    ______ ____
ROOT
ATOM      1  C   UNL     1      48.353   7.055  13.706  0.00  0.00    +0.000 C 
ENDROOT
BRANCH   1   2
ATOM      2  C   UNL     1      47.051   6.344  13.504  0.00  0.00    +0.000 A 
ATOM      3  C   UNL     1      45.989   6.942  12.824  0.00  0.00    +0.000 A 
ATOM      4  C   UNL     1      44.805   6.234  12.613  0.00  0.00    +0.000 A 
ATOM      5  C   UNL     1      44.699   4.938  13.108  0.00  0.00    +0.000 A 
ATOM      6  N   UNL     1      45.704   4.355  13.803  0.00  0.00    +0.000 NA
ATOM      7  C   UNL     1      46.841   5.062  13.993  0.00  0.00    +0.000 A 
BRANCH   5   8
ATOM      8  C   UNL     1      43.442   4.133  12.867  0.00  0.00    +0.000 C 
BRANCH   8   9
ATOM      9  C   UNL     1      43.040   4.090  11.390  0.00  0.00    +0.000 C 
BRANCH   9  10
ATOM     10  O   UNL     1      43.451   2.844  10.808  0.00  0.00    +0.000 OA
BRANCH  10  11
ATOM     11  C   UNL     1      44.261   2.997   9.765  0.00  0.00    +0.000 A 
ATOM     12  N   UNL     1      45.021   2.071   9.220  0.00  0.00    +0.000 NA
ATOM     13  C   UNL     1      45.681   2.691   8.197  0.00  0.00    +0.000 A 
ATOM     14  C   UNL     1      45.322   4.019   8.122  0.00  0.00    +0.000 A 
ATOM     15  N   UNL     1      44.402   4.192   9.127  0.00  0.00    +0.000 N 
ATOM     16  H   UNL     1      43.918   5.041   9.370  0.00  0.00    +0.000 HD
ENDBRANCH  10  11
ENDBRANCH   9  10
ENDBRANCH   8   9
ENDBRANCH   5   8
ENDBRANCH   1   2
BRANCH   1  19
ATOM     17  O   UNL     1      50.946   7.551  14.680  0.00  0.00    +0.000 OA
ATOM     18  C   UNL     1      50.038   7.347  15.480  0.00  0.00    +0.000 C 
ATOM     19  N   UNL     1      48.758   7.058  15.088  0.00  0.00    +0.000 N 
ATOM     20  H   UNL     1      48.013   7.078  15.777  0.00  0.00    +0.000 HD
BRANCH  18  21
ATOM     21  C   UNL     1      50.280   7.347  16.928  0.00  0.00    +0.000 A 
ATOM     22  C   UNL     1      50.802   8.475  17.545  0.00  0.00    +0.000 A 
ATOM     23  S   UNL     1      51.003   8.296  19.230  0.00  0.00    +0.000 S 
ATOM     24  C   UNL     1      50.370   6.717  19.193  0.00  0.00    +0.000 A 
ATOM     25  N   UNL     1      50.228   5.989  20.332  0.00  0.00    +0.000 NA
ATOM     26  C   UNL     1      49.696   4.824  20.159  0.00  0.00    +0.000 A 
ATOM     27  N   UNL     1      49.310   4.313  18.949  0.00  0.00    +0.000 N 
ATOM     28  C   UNL     1      49.510   4.979  17.766  0.00  0.00    +0.000 A 
ATOM     29  O   UNL     1      49.299   4.434  16.686  0.00  0.00    +0.000 OA
ATOM     30  C   UNL     1      50.046   6.319  17.910  0.00  0.00    +0.000 A 
ATOM     31  H   UNL     1      48.938   3.379  18.875  0.00  0.00    +0.000 HD
ENDBRANCH  18  21
ENDBRANCH   1  19
TORSDOF 7
ENDMDL
MODEL 7
REMARK VINA RESULT:    -6.391      2.316      3.867
REMARK INTER + INTRA:         -10.015
REMARK INTER:                  -9.189
REMARK INTRA:                  -0.826
REMARK UNBOUND:                -1.008
REMARK  Name = 
REMARK  7 active torsions:
REMARK  status: ('A' for Active; 'I' for Inactive)
REMARK    1  A    between atoms: C_2  and  C_19
REMARK    2  A    between atoms: N_3  and  C_4
REMARK    3  A    between atoms: C_4  and  C_5
REMARK    4  A    between atoms: C_8  and  C_9
REMARK    5  A    between atoms: C_9  and  C_10
REMARK    6  A    between atoms: C_10  and  O_11
REMARK    7  A    between atoms: O_11  and  C_12
REMARK                            x       y       z     vdW  Elec       q    Type
REMARK                         _______ _______ _______ _____ _____    ______ ____
ROOT
ATOM      1  C   UNL     1      46.870   4.837  14.786  0.00  0.00    +0.000 C 
ENDROOT
BRANCH   1   2
ATOM      2  C   UNL     1      46.019   4.760  13.557  0.00  0.00    +0.000 A 
ATOM      3  C   UNL     1      45.410   5.894  13.017  0.00  0.00    +0.000 A 
ATOM      4  C   UNL     1      44.661   5.795  11.843  0.00  0.00    +0.000 A 
ATOM      5  C   UNL     1      44.520   4.549  11.240  0.00  0.00    +0.000 A 
ATOM      6  N   UNL     1      45.072   3.432  11.769  0.00  0.00    +0.000 NA
ATOM      7  C   UNL     1      45.793   3.556  12.907  0.00  0.00    +0.000 A 
BRANCH   5   8
ATOM      8  C   UNL     1      43.742   4.415   9.949  0.00  0.00    +0.000 C 
BRANCH   8   9
ATOM      9  C   UNL     1      44.622   3.991   8.770  0.00  0.00    +0.000 C 
BRANCH   9  10
ATOM     10  O   UNL     1      44.807   2.567   8.785  0.00  0.00    +0.000 OA
BRANCH  10  11
ATOM     11  C   UNL     1      45.889   2.175   8.119  0.00  0.00    +0.000 A 
ATOM     12  N   UNL     1      46.367   0.949   8.054  0.00  0.00    +0.000 NA
ATOM     13  C   UNL     1      47.488   1.033   7.278  0.00  0.00    +0.000 A 
ATOM     14  C   UNL     1      47.701   2.333   6.872  0.00  0.00    +0.000 A 
ATOM     15  N   UNL     1      46.659   3.046   7.411  0.00  0.00    +0.000 N 
ATOM     16  H   UNL     1      46.485   4.033   7.319  0.00  0.00    +0.000 HD
ENDBRANCH  10  11
ENDBRANCH   9  10
ENDBRANCH   8   9
ENDBRANCH   5   8
ENDBRANCH   1   2
BRANCH   1  19
ATOM     17  O   UNL     1      48.503   5.798  16.867  0.00  0.00    +0.000 OA
ATOM     18  C   UNL     1      48.679   6.221  15.727  0.00  0.00    +0.000 C 
ATOM     19  N   UNL     1      47.901   5.835  14.668  0.00  0.00    +0.000 N 
ATOM     20  H   UNL     1      48.198   6.068  13.726  0.00  0.00    +0.000 HD
BRANCH  18  21
ATOM     21  C   UNL     1      49.712   7.221  15.434  0.00  0.00    +0.000 A 
ATOM     22  C   UNL     1      51.011   7.030  15.883  0.00  0.00    +0.000 A 
ATOM     23  S   UNL     1      52.077   8.286  15.437  0.00  0.00    +0.000 S 
ATOM     24  C   UNL     1      50.843   9.109  14.602  0.00  0.00    +0.000 A 
ATOM     25  N   UNL     1      51.093  10.271  13.943  0.00  0.00    +0.000 NA
ATOM     26  C   UNL     1      50.074  10.763  13.320  0.00  0.00    +0.000 A 
ATOM     27  N   UNL     1      48.822  10.209  13.310  0.00  0.00    +0.000 N 
ATOM     28  C   UNL     1      48.505   9.083  14.028  0.00  0.00    +0.000 A 
ATOM     29  O   UNL     1      47.343   8.699  14.128  0.00  0.00    +0.000 OA
ATOM     30  C   UNL     1      49.629   8.455  14.696  0.00  0.00    +0.000 A 
ATOM     31  H   UNL     1      48.057  10.664  12.837  0.00  0.00    +0.000 HD
ENDBRANCH  18  21
ENDBRANCH   1  19
TORSDOF 7
ENDMDL
MODEL 8
REMARK VINA RESULT:    -6.387      4.204      8.488
REMARK INTER + INTRA:         -10.009
REMARK INTER:                  -8.126
REMARK INTRA:                  -1.883
REMARK UNBOUND:                -1.008
REMARK  Name = 
REMARK  7 active torsions:
REMARK  status: ('A' for Active; 'I' for Inactive)
REMARK    1  A    between atoms: C_2  and  C_19
REMARK    2  A    between atoms: N_3  and  C_4
REMARK    3  A    between atoms: C_4  and  C_5
REMARK    4  A    between atoms: C_8  and  C_9
REMARK    5  A    between atoms: C_9  and  C_10
REMARK    6  A    between atoms: C_10  and  O_11
REMARK    7  A    between atoms: O_11  and  C_12
REMARK                            x       y       z     vdW  Elec       q    Type
REMARK                         _______ _______ _______ _____ _____    ______ ____
ROOT
ATOM      1  C   UNL     1      47.420   3.631  17.206  0.00  0.00    +0.000 C 
ENDROOT
BRANCH   1   2
ATOM      2  C   UNL     1      48.902   3.651  17.416  0.00  0.00    +0.000 A 
ATOM      3  C   UNL     1      49.674   2.496  17.290  0.00  0.00    +0.000 A 
ATOM      4  C   UNL     1      51.059   2.560  17.447  0.00  0.00    +0.000 A 
ATOM      5  C   UNL     1      51.646   3.784  17.750  0.00  0.00    +0.000 A 
ATOM      6  N   UNL     1      50.909   4.908  17.913  0.00  0.00    +0.000 NA
ATOM      7  C   UNL     1      49.569   4.820  17.755  0.00  0.00    +0.000 A 
BRANCH   5   8
ATOM      8  C   UNL     1      53.148   3.892  17.894  0.00  0.00    +0.000 C 
BRANCH   8   9
ATOM      9  C   UNL     1      53.656   5.329  17.741  0.00  0.00    +0.000 C 
BRANCH   9  10
ATOM     10  O   UNL     1      53.858   5.630  16.352  0.00  0.00    +0.000 OA
BRANCH  10  11
ATOM     11  C   UNL     1      53.364   6.813  15.998  0.00  0.00    +0.000 A 
ATOM     12  N   UNL     1      54.005   7.963  16.004  0.00  0.00    +0.000 NA
ATOM     13  C   UNL     1      53.096   8.892  15.582  0.00  0.00    +0.000 A 
ATOM     14  C   UNL     1      51.880   8.298  15.321  0.00  0.00    +0.000 A 
ATOM     15  N   UNL     1      52.076   6.964  15.582  0.00  0.00    +0.000 N 
ATOM     16  H   UNL     1      51.402   6.221  15.497  0.00  0.00    +0.000 HD
ENDBRANCH  10  11
ENDBRANCH   9  10
ENDBRANCH   8   9
ENDBRANCH   5   8
ENDBRANCH   1   2
BRANCH   1  19
ATOM     17  O   UNL     1      47.396   3.006  14.461  0.00  0.00    +0.000 OA
ATOM     18  C   UNL     1      46.996   4.109  14.825  0.00  0.00    +0.000 C 
ATOM     19  N   UNL     1      47.014   4.506  16.136  0.00  0.00    +0.000 N 
ATOM     20  H   UNL     1      46.510   5.344  16.405  0.00  0.00    +0.000 HD
BRANCH  18  21
ATOM     21  C   UNL     1      46.520   5.107  13.860  0.00  0.00    +0.000 A 
ATOM     22  C   UNL     1      45.340   4.889  13.162  0.00  0.00    +0.000 A 
ATOM     23  S   UNL     1      44.937   6.159  12.095  0.00  0.00    +0.000 S 
ATOM     24  C   UNL     1      46.309   7.054  12.557  0.00  0.00    +0.000 A 
ATOM     25  N   UNL     1      46.555   8.285  12.035  0.00  0.00    +0.000 NA
ATOM     26  C   UNL     1      47.609   8.865  12.506  0.00  0.00    +0.000 A 
ATOM     27  N   UNL     1      48.451   8.319  13.438  0.00  0.00    +0.000 N 
ATOM     28  C   UNL     1      48.287   7.049  13.929  0.00  0.00    +0.000 A 
ATOM     29  O   UNL     1      49.141   6.528  14.641  0.00  0.00    +0.000 OA
ATOM     30  C   UNL     1      47.083   6.377  13.480  0.00  0.00    +0.000 A 
ATOM     31  H   UNL     1      49.281   8.808  13.735  0.00  0.00    +0.000 HD
ENDBRANCH  18  21
ENDBRANCH   1  19
TORSDOF 7
ENDMDL
MODEL 9
REMARK VINA RESULT:    -6.214      1.805      2.257
REMARK INTER + INTRA:          -9.765
REMARK INTER:                  -8.740
REMARK INTRA:                  -1.025
REMARK UNBOUND:                -1.008
REMARK  Name = 
REMARK  7 active torsions:
REMARK  status: ('A' for Active; 'I' for Inactive)
REMARK    1  A    between atoms: C_2  and  C_19
REMARK    2  A    between atoms: N_3  and  C_4
REMARK    3  A    between atoms: C_4  and  C_5
REMARK    4  A    between atoms: C_8  and  C_9
REMARK    5  A    between atoms: C_9  and  C_10
REMARK    6  A    between atoms: C_10  and  O_11
REMARK    7  A    between atoms: O_11  and  C_12
REMARK                            x       y       z     vdW  Elec       q    Type
REMARK                         _______ _______ _______ _____ _____    ______ ____
ROOT
ATOM      1  C   UNL     1      45.755   8.492  12.687  0.00  0.00    +0.000 C 
ENDROOT
BRANCH   1   2
ATOM      2  C   UNL     1      45.237   7.158  12.247  0.00  0.00    +0.000 A 
ATOM      3  C   UNL     1      43.935   6.748  12.538  0.00  0.00    +0.000 A 
ATOM      4  C   UNL     1      43.469   5.517  12.072  0.00  0.00    +0.000 A 
ATOM      5  C   UNL     1      44.328   4.708  11.336  0.00  0.00    +0.000 A 
ATOM      6  N   UNL     1      45.605   5.072  11.076  0.00  0.00    +0.000 NA
ATOM      7  C   UNL     1      46.032   6.270  11.538  0.00  0.00    +0.000 A 
BRANCH   5   8
ATOM      8  C   UNL     1      43.842   3.384  10.790  0.00  0.00    +0.000 C 
BRANCH   8   9
ATOM      9  C   UNL     1      44.973   2.533  10.206  0.00  0.00    +0.000 C 
BRANCH   9  10
ATOM     10  O   UNL     1      44.740   2.303   8.808  0.00  0.00    +0.000 OA
BRANCH  10  11
ATOM     11  C   UNL     1      45.861   2.122   8.116  0.00  0.00    +0.000 A 
ATOM     12  N   UNL     1      46.519   0.991   7.972  0.00  0.00    +0.000 NA
ATOM     13  C   UNL     1      47.605   1.293   7.200  0.00  0.00    +0.000 A 
ATOM     14  C   UNL     1      47.612   2.632   6.874  0.00  0.00    +0.000 A 
ATOM     15  N   UNL     1      46.480   3.143   7.460  0.00  0.00    +0.000 N 
ATOM     16  H   UNL     1      46.156   4.096   7.431  0.00  0.00    +0.000 HD
ENDBRANCH  10  11
ENDBRANCH   9  10
ENDBRANCH   8   9
ENDBRANCH   5   8
ENDBRANCH   1   2
BRANCH   1  19
ATOM     17  O   UNL     1      48.412   9.411  12.817  0.00  0.00    +0.000 OA
ATOM     18  C   UNL     1      47.912   8.891  13.811  0.00  0.00    +0.000 C 
ATOM     19  N   UNL     1      46.640   8.381  13.817  0.00  0.00    +0.000 N 
ATOM     20  H   UNL     1      46.213   8.130  14.703  0.00  0.00    +0.000 HD
BRANCH  18  21
ATOM     21  C   UNL     1      48.673   8.729  15.055  0.00  0.00    +0.000 A 
ATOM     22  C   UNL     1      49.261   9.833  15.657  0.00  0.00    +0.000 A 
ATOM     23  S   UNL     1      50.093   9.458  17.099  0.00  0.00    +0.000 S 
ATOM     24  C   UNL     1      49.666   7.815  16.982  0.00  0.00    +0.000 A 
ATOM     25  N   UNL     1      50.037   6.921  17.937  0.00  0.00    +0.000 NA
ATOM     26  C   UNL     1      49.610   5.719  17.739  0.00  0.00    +0.000 A 
ATOM     27  N   UNL     1      48.859   5.323  16.664  0.00  0.00    +0.000 N 
ATOM     28  C   UNL     1      48.532   6.172  15.637  0.00  0.00    +0.000 A 
ATOM     29  O   UNL     1      47.995   5.754  14.615  0.00  0.00    +0.000 OA
ATOM     30  C   UNL     1      48.934   7.550  15.840  0.00  0.00    +0.000 A 
ATOM     31  H   UNL     1      48.590   4.358  16.547  0.00  0.00    +0.000 HD
ENDBRANCH  18  21
ENDBRANCH   1  19
TORSDOF 7
ENDMDL
