MODEL 1
REMARK VINA RESULT:    -8.032      0.000      0.000
REMARK INTER + INTRA:         -13.089
REMARK INTER:                 -11.789
REMARK INTRA:                  -1.300
REMARK UNBOUND:                -1.300
REMARK  Name = 
REMARK  9 active torsions:
REMARK  status: ('A' for Active; 'I' for Inactive)
REMARK    1  A    between atoms: C_1  and  O_2
REMARK    2  A    between atoms: O_2  and  C_3
REMARK    3  A    between atoms: C_10  and  C_11
REMARK    4  A    between atoms: N_13  and  C_14
REMARK    5  A    between atoms: C_14  and  C_15
REMARK    6  A    between atoms: C_18  and  N_19
REMARK    7  A    between atoms: N_19  and  C_20
REMARK    8  A    between atoms: C_20  and  C_21
REMARK    9  A    between atoms: C_21  and  C_22
REMARK                            x       y       z     vdW  Elec       q    Type
REMARK                         _______ _______ _______ _____ _____    ______ ____
ROOT
ATOM      1  C   UNL     1      47.390   8.350  13.603  0.00  0.00    +0.000 C 
ENDROOT
BRANCH   1   2
ATOM      2  C   UNL     1      46.498   7.626  12.632  0.00  0.00    +0.000 A 
ATOM      3  C   UNL     1      46.930   6.448  12.012  0.00  0.00    +0.000 A 
ATOM      4  C   UNL     1      46.061   5.717  11.199  0.00  0.00    +0.000 A 
ATOM      5  C   UNL     1      44.741   6.130  11.013  0.00  0.00    +0.000 A 
ATOM      6  C   UNL     1      44.355   7.375  11.519  0.00  0.00    +0.000 A 
ATOM      7  C   UNL     1      45.219   8.109  12.337  0.00  0.00    +0.000 A 
BRANCH   5   8
ATOM      8  N   UNL     1      43.776   5.362  10.353  0.00  0.00    +0.000 N 
ATOM      9  H   UNL     1      43.251   5.922   9.683  0.00  0.00    +0.000 HD
BRANCH   8  10
ATOM     10  C   UNL     1      44.166   4.049   9.824  0.00  0.00    +0.000 C 
BRANCH  10  11
ATOM     11  C   UNL     1      44.502   4.087   8.325  0.00  0.00    +0.000 C 
BRANCH  11  12
ATOM     12  C   UNL     1      45.568   3.100   7.940  0.00  0.00    +0.000 A 
ATOM     13  C   UNL     1      45.537   1.784   8.398  0.00  0.00    +0.000 A 
ATOM     14  N   UNL     1      46.476   0.863   8.073  0.00  0.00    +0.000 NA
ATOM     15  C   UNL     1      47.457   1.312   7.262  0.00  0.00    +0.000 A 
ATOM     16  C   UNL     1      47.503   2.618   6.805  0.00  0.00    +0.000 A 
ATOM     17  N   UNL     1      46.566   3.538   7.128  0.00  0.00    +0.000 NA
ENDBRANCH  11  12
ENDBRANCH  10  11
ENDBRANCH   8  10
ENDBRANCH   5   8
ENDBRANCH   1   2
BRANCH   1  20
ATOM     18  C   UNL     1      48.930   6.944  14.885  0.00  0.00    +0.000 C 
ATOM     19  O   UNL     1      49.804   7.081  14.026  0.00  0.00    +0.000 OA
ATOM     20  N   UNL     1      47.707   7.535  14.746  0.00  0.00    +0.000 N 
ATOM     21  H   UNL     1      46.972   7.360  15.420  0.00  0.00    +0.000 HD
BRANCH  18  29
ATOM     22  C   UNL     1      47.338   4.233  16.304  0.00  0.00    +0.000 A 
ATOM     23  N   UNL     1      46.880   3.252  17.108  0.00  0.00    +0.000 NA
ATOM     24  C   UNL     1      47.527   3.017  18.251  0.00  0.00    +0.000 A 
ATOM     25  N   UNL     1      48.602   3.651  18.704  0.00  0.00    +0.000 NA
ATOM     26  C   UNL     1      49.018   4.631  17.885  0.00  0.00    +0.000 A 
ATOM     27  S   UNL     1      50.390   5.537  18.304  0.00  0.00    +0.000 S 
ATOM     28  C   UNL     1      50.250   6.488  16.905  0.00  0.00    +0.000 A 
ATOM     29  C   UNL     1      49.172   6.147  16.096  0.00  0.00    +0.000 A 
ATOM     30  C   UNL     1      48.450   5.014  16.672  0.00  0.00    +0.000 A 
BRANCH  22  32
ATOM     31  C   UNL     1      47.122   3.519  14.078  0.00  0.00    +0.000 C 
ATOM     32  O   UNL     1      46.703   4.432  15.093  0.00  0.00    +0.000 OA
ENDBRANCH  22  32
ENDBRANCH  18  29
ENDBRANCH   1  20
TORSDOF 8
ENDMDL
MODEL 2
REMARK VINA RESULT:    -7.615      1.540      1.994
REMARK INTER + INTRA:         -12.477
REMARK INTER:                 -11.409
REMARK INTRA:                  -1.067
REMARK UNBOUND:                -1.300
REMARK  Name = 
REMARK  9 active torsions:
REMARK  status: ('A' for Active; 'I' for Inactive)
REMARK    1  A    between atoms: C_1  and  O_2
REMARK    2  A    between atoms: O_2  and  C_3
REMARK    3  A    between atoms: C_10  and  C_11
REMARK    4  A    between atoms: N_13  and  C_14
REMARK    5  A    between atoms: C_14  and  C_15
REMARK    6  A    between atoms: C_18  and  N_19
REMARK    7  A    between atoms: N_19  and  C_20
REMARK    8  A    between atoms: C_20  and  C_21
REMARK    9  A    between atoms: C_21  and  C_22
REMARK                            x       y       z     vdW  Elec       q    Type
REMARK                         _______ _______ _______ _____ _____    ______ ____
ROOT
ATOM      1  C   UNL     1      47.327   7.618  13.030  0.00  0.00    +0.000 C 
ENDROOT
BRANCH   1   2
ATOM      2  C   UNL     1      46.503   6.435  12.601  0.00  0.00    +0.000 A 
ATOM      3  C   UNL     1      45.733   6.490  11.434  0.00  0.00    +0.000 A 
ATOM      4  C   UNL     1      45.058   5.356  10.978  0.00  0.00    +0.000 A 
ATOM      5  C   UNL     1      45.161   4.142  11.660  0.00  0.00    +0.000 A 
ATOM      6  C   UNL     1      45.815   4.126  12.896  0.00  0.00    +0.000 A 
ATOM      7  C   UNL     1      46.495   5.256  13.355  0.00  0.00    +0.000 A 
BRANCH   5   8
ATOM      8  N   UNL     1      44.651   2.934  11.171  0.00  0.00    +0.000 N 
ATOM      9  H   UNL     1      43.967   2.533  11.811  0.00  0.00    +0.000 HD
BRANCH   8  10
ATOM     10  C   UNL     1      44.230   2.868   9.765  0.00  0.00    +0.000 C 
BRANCH  10  11
ATOM     11  C   UNL     1      44.767   1.624   9.042  0.00  0.00    +0.000 C 
BRANCH  11  12
ATOM     12  C   UNL     1      45.933   1.929   8.143  0.00  0.00    +0.000 A 
ATOM     13  C   UNL     1      46.808   0.927   7.727  0.00  0.00    +0.000 A 
ATOM     14  N   UNL     1      47.869   1.159   6.916  0.00  0.00    +0.000 NA
ATOM     15  C   UNL     1      48.022   2.444   6.532  0.00  0.00    +0.000 A 
ATOM     16  C   UNL     1      47.163   3.448   6.943  0.00  0.00    +0.000 A 
ATOM     17  N   UNL     1      46.104   3.219   7.752  0.00  0.00    +0.000 NA
ENDBRANCH  11  12
ENDBRANCH  10  11
ENDBRANCH   8  10
ENDBRANCH   5   8
ENDBRANCH   1   2
BRANCH   1  20
ATOM     18  C   UNL     1      48.817   7.278  14.943  0.00  0.00    +0.000 C 
ATOM     19  O   UNL     1      49.746   6.976  14.192  0.00  0.00    +0.000 OA
ATOM     20  N   UNL     1      47.587   7.602  14.445  0.00  0.00    +0.000 N 
ATOM     21  H   UNL     1      46.810   7.779  15.070  0.00  0.00    +0.000 HD
BRANCH  18  29
ATOM     22  C   UNL     1      48.439   4.924  17.436  0.00  0.00    +0.000 A 
ATOM     23  N   UNL     1      48.296   4.251  18.596  0.00  0.00    +0.000 NA
ATOM     24  C   UNL     1      48.536   4.899  19.737  0.00  0.00    +0.000 A 
ATOM     25  N   UNL     1      48.912   6.166  19.872  0.00  0.00    +0.000 NA
ATOM     26  C   UNL     1      49.026   6.807  18.697  0.00  0.00    +0.000 A 
ATOM     27  S   UNL     1      49.511   8.434  18.682  0.00  0.00    +0.000 S 
ATOM     28  C   UNL     1      49.399   8.502  16.990  0.00  0.00    +0.000 A 
ATOM     29  C   UNL     1      48.995   7.310  16.401  0.00  0.00    +0.000 A 
ATOM     30  C   UNL     1      48.799   6.285  17.426  0.00  0.00    +0.000 A 
BRANCH  22  32
ATOM     31  C   UNL     1      48.257   2.815  16.422  0.00  0.00    +0.000 C 
ATOM     32  O   UNL     1      48.251   4.233  16.255  0.00  0.00    +0.000 OA
ENDBRANCH  22  32
ENDBRANCH  18  29
ENDBRANCH   1  20
TORSDOF 8
ENDMDL
MODEL 3
REMARK VINA RESULT:    -7.346      2.457      3.302
REMARK INTER + INTRA:         -12.082
REMARK INTER:                 -10.821
REMARK INTRA:                  -1.261
REMARK UNBOUND:                -1.300
REMARK  Name = 
REMARK  9 active torsions:
REMARK  status: ('A' for Active; 'I' for Inactive)
REMARK    1  A    between atoms: C_1  and  O_2
REMARK    2  A    between atoms: O_2  and  C_3
REMARK    3  A    between atoms: C_10  and  C_11
REMARK    4  A    between atoms: N_13  and  C_14
REMARK    5  A    between atoms: C_14  and  C_15
REMARK    6  A    between atoms: C_18  and  N_19
REMARK    7  A    between atoms: N_19  and  C_20
REMARK    8  A    between atoms: C_20  and  C_21
REMARK    9  A    between atoms: C_21  and  C_22
REMARK                            x       y       z     vdW  Elec       q    Type
REMARK                         _______ _______ _______ _____ _____    ______ ____
ROOT
ATOM      1  C   UNL     1      48.292   6.970  13.891  0.00  0.00    +0.000 C 
ENDROOT
BRANCH   1   2
ATOM      2  C   UNL     1      47.282   6.187  13.099  0.00  0.00    +0.000 A 
ATOM      3  C   UNL     1      46.700   5.032  13.633  0.00  0.00    +0.000 A 
ATOM      4  C   UNL     1      45.682   4.370  12.945  0.00  0.00    +0.000 A 
ATOM      5  C   UNL     1      45.207   4.862  11.727  0.00  0.00    +0.000 A 
ATOM      6  C   UNL     1      45.883   5.931  11.132  0.00  0.00    +0.000 A 
ATOM      7  C   UNL     1      46.899   6.600  11.818  0.00  0.00    +0.000 A 
BRANCH   5   8
ATOM      8  N   UNL     1      44.084   4.347  11.070  0.00  0.00    +0.000 N 
ATOM      9  H   UNL     1      43.246   4.881  11.292  0.00  0.00    +0.000 HD
BRANCH   8  10
ATOM     10  C   UNL     1      44.196   4.019   9.643  0.00  0.00    +0.000 C 
BRANCH  10  11
ATOM     11  C   UNL     1      44.469   2.527   9.395  0.00  0.00    +0.000 C 
BRANCH  11  12
ATOM     12  C   UNL     1      45.622   2.293   8.460  0.00  0.00    +0.000 A 
ATOM     13  C   UNL     1      46.212   3.343   7.758  0.00  0.00    +0.000 A 
ATOM     14  N   UNL     1      47.254   3.175   6.908  0.00  0.00    +0.000 NA
ATOM     15  C   UNL     1      47.689   1.903   6.786  0.00  0.00    +0.000 A 
ATOM     16  C   UNL     1      47.109   0.851   7.473  0.00  0.00    +0.000 A 
ATOM     17  N   UNL     1      46.070   1.017   8.322  0.00  0.00    +0.000 NA
ENDBRANCH  11  12
ENDBRANCH  10  11
ENDBRANCH   8  10
ENDBRANCH   5   8
ENDBRANCH   1   2
BRANCH   1  20
ATOM     18  C   UNL     1      48.964   6.533  16.205  0.00  0.00    +0.000 C 
ATOM     19  O   UNL     1      50.092   6.198  15.836  0.00  0.00    +0.000 OA
ATOM     20  N   UNL     1      48.016   6.922  15.303  0.00  0.00    +0.000 N 
ATOM     21  H   UNL     1      47.072   7.128  15.607  0.00  0.00    +0.000 HD
BRANCH  18  29
ATOM     22  C   UNL     1      47.745   8.952  18.340  0.00  0.00    +0.000 A 
ATOM     23  N   UNL     1      47.356   9.699  19.394  0.00  0.00    +0.000 NA
ATOM     24  C   UNL     1      47.289   9.116  20.592  0.00  0.00    +0.000 A 
ATOM     25  N   UNL     1      47.565   7.849  20.879  0.00  0.00    +0.000 NA
ATOM     26  C   UNL     1      47.965   7.143  19.809  0.00  0.00    +0.000 A 
ATOM     27  S   UNL     1      48.348   5.500  19.994  0.00  0.00    +0.000 S 
ATOM     28  C   UNL     1      48.743   5.357  18.349  0.00  0.00    +0.000 A 
ATOM     29  C   UNL     1      48.598   6.536  17.628  0.00  0.00    +0.000 A 
ATOM     30  C   UNL     1      48.104   7.601  18.501  0.00  0.00    +0.000 A 
BRANCH  22  32
ATOM     31  C   UNL     1      48.971  10.224  16.794  0.00  0.00    +0.000 C 
ATOM     32  O   UNL     1      47.752   9.543  17.091  0.00  0.00    +0.000 OA
ENDBRANCH  22  32
ENDBRANCH  18  29
ENDBRANCH   1  20
TORSDOF 8
ENDMDL
MODEL 4
REMARK VINA RESULT:    -7.128      1.621      2.179
REMARK INTER + INTRA:         -11.762
REMARK INTER:                 -10.598
REMARK INTRA:                  -1.164
REMARK UNBOUND:                -1.300
REMARK  Name = 
REMARK  9 active torsions:
REMARK  status: ('A' for Active; 'I' for Inactive)
REMARK    1  A    between atoms: C_1  and  O_2
REMARK    2  A    between atoms: O_2  and  C_3
REMARK    3  A    between atoms: C_10  and  C_11
REMARK    4  A    between atoms: N_13  and  C_14
REMARK    5  A    between atoms: C_14  and  C_15
REMARK    6  A    between atoms: C_18  and  N_19
REMARK    7  A    between atoms: N_19  and  C_20
REMARK    8  A    between atoms: C_20  and  C_21
REMARK    9  A    between atoms: C_21  and  C_22
REMARK                            x       y       z     vdW  Elec       q    Type
REMARK                         _______ _______ _______ _____ _____    ______ ____
ROOT
ATOM      1  C   UNL     1      47.523   7.644  13.305  0.00  0.00    +0.000 C 
ENDROOT
BRANCH   1   2
ATOM      2  C   UNL     1      46.566   6.616  12.768  0.00  0.00    +0.000 A 
ATOM      3  C   UNL     1      45.730   6.920  11.687  0.00  0.00    +0.000 A 
ATOM      4  C   UNL     1      44.923   5.933  11.118  0.00  0.00    +0.000 A 
ATOM      5  C   UNL     1      44.955   4.621  11.596  0.00  0.00    +0.000 A 
ATOM      6  C   UNL     1      45.684   4.355  12.759  0.00  0.00    +0.000 A 
ATOM      7  C   UNL     1      46.496   5.338  13.331  0.00  0.00    +0.000 A 
BRANCH   5   8
ATOM      8  N   UNL     1      44.303   3.554  10.971  0.00  0.00    +0.000 N 
ATOM      9  H   UNL     1      43.333   3.481  11.275  0.00  0.00    +0.000 HD
BRANCH   8  10
ATOM     10  C   UNL     1      44.466   3.385   9.521  0.00  0.00    +0.000 C 
BRANCH  10  11
ATOM     11  C   UNL     1      45.128   2.050   9.148  0.00  0.00    +0.000 C 
BRANCH  11  12
ATOM     12  C   UNL     1      46.037   2.161   7.957  0.00  0.00    +0.000 A 
ATOM     13  C   UNL     1      46.954   1.158   7.648  0.00  0.00    +0.000 A 
ATOM     14  N   UNL     1      47.790   1.219   6.583  0.00  0.00    +0.000 NA
ATOM     15  C   UNL     1      47.671   2.332   5.829  0.00  0.00    +0.000 A 
ATOM     16  C   UNL     1      46.769   3.338   6.128  0.00  0.00    +0.000 A 
ATOM     17  N   UNL     1      45.934   3.279   7.190  0.00  0.00    +0.000 NA
ENDBRANCH  11  12
ENDBRANCH  10  11
ENDBRANCH   8  10
ENDBRANCH   5   8
ENDBRANCH   1   2
BRANCH   1  20
ATOM     18  C   UNL     1      49.332   7.751  14.952  0.00  0.00    +0.000 C 
ATOM     19  O   UNL     1      49.117   8.951  15.141  0.00  0.00    +0.000 OA
ATOM     20  N   UNL     1      48.591   7.036  14.055  0.00  0.00    +0.000 N 
ATOM     21  H   UNL     1      48.820   6.071  13.854  0.00  0.00    +0.000 HD
BRANCH  18  29
ATOM     22  C   UNL     1      49.323   5.082  17.136  0.00  0.00    +0.000 A 
ATOM     23  N   UNL     1      49.603   4.138  18.057  0.00  0.00    +0.000 NA
ATOM     24  C   UNL     1      50.868   3.998  18.455  0.00  0.00    +0.000 A 
ATOM     25  N   UNL     1      51.918   4.696  18.037  0.00  0.00    +0.000 NA
ATOM     26  C   UNL     1      51.596   5.637  17.133  0.00  0.00    +0.000 A 
ATOM     27  S   UNL     1      52.821   6.616  16.482  0.00  0.00    +0.000 S 
ATOM     28  C   UNL     1      51.701   7.470  15.535  0.00  0.00    +0.000 A 
ATOM     29  C   UNL     1      50.387   7.042  15.689  0.00  0.00    +0.000 A 
ATOM     30  C   UNL     1      50.330   5.922  16.628  0.00  0.00    +0.000 A 
BRANCH  22  32
ATOM     31  C   UNL     1      47.300   3.952  16.756  0.00  0.00    +0.000 C 
ATOM     32  O   UNL     1      48.022   5.181  16.680  0.00  0.00    +0.000 OA
ENDBRANCH  22  32
ENDBRANCH  18  29
ENDBRANCH   1  20
TORSDOF 8
ENDMDL
MODEL 5
REMARK VINA RESULT:    -7.058      1.981      3.657
REMARK INTER + INTRA:         -11.659
REMARK INTER:                 -10.272
REMARK INTRA:                  -1.387
REMARK UNBOUND:                -1.300
REMARK  Name = 
REMARK  9 active torsions:
REMARK  status: ('A' for Active; 'I' for Inactive)
REMARK    1  A    between atoms: C_1  and  O_2
REMARK    2  A    between atoms: O_2  and  C_3
REMARK    3  A    between atoms: C_10  and  C_11
REMARK    4  A    between atoms: N_13  and  C_14
REMARK    5  A    between atoms: C_14  and  C_15
REMARK    6  A    between atoms: C_18  and  N_19
REMARK    7  A    between atoms: N_19  and  C_20
REMARK    8  A    between atoms: C_20  and  C_21
REMARK    9  A    between atoms: C_21  and  C_22
REMARK                            x       y       z     vdW  Elec       q    Type
REMARK                         _______ _______ _______ _____ _____    ______ ____
ROOT
ATOM      1  C   UNL     1      47.105   4.455  15.064  0.00  0.00    +0.000 C 
ENDROOT
BRANCH   1   2
ATOM      2  C   UNL     1      46.426   4.593  13.729  0.00  0.00    +0.000 A 
ATOM      3  C   UNL     1      45.914   3.468  13.071  0.00  0.00    +0.000 A 
ATOM      4  C   UNL     1      45.187   3.611  11.888  0.00  0.00    +0.000 A 
ATOM      5  C   UNL     1      44.933   4.876  11.355  0.00  0.00    +0.000 A 
ATOM      6  C   UNL     1      45.561   5.981  11.936  0.00  0.00    +0.000 A 
ATOM      7  C   UNL     1      46.286   5.846  13.122  0.00  0.00    +0.000 A 
BRANCH   5   8
ATOM      8  N   UNL     1      44.076   5.100  10.273  0.00  0.00    +0.000 N 
ATOM      9  H   UNL     1      44.006   6.093  10.053  0.00  0.00    +0.000 HD
BRANCH   8  10
ATOM     10  C   UNL     1      44.218   4.257   9.079  0.00  0.00    +0.000 C 
BRANCH  10  11
ATOM     11  C   UNL     1      45.560   4.463   8.360  0.00  0.00    +0.000 C 
BRANCH  11  12
ATOM     12  C   UNL     1      46.206   3.171   7.947  0.00  0.00    +0.000 A 
ATOM     13  C   UNL     1      45.770   1.948   8.453  0.00  0.00    +0.000 A 
ATOM     14  N   UNL     1      46.323   0.761   8.105  0.00  0.00    +0.000 NA
ATOM     15  C   UNL     1      47.338   0.844   7.220  0.00  0.00    +0.000 A 
ATOM     16  C   UNL     1      47.784   2.052   6.713  0.00  0.00    +0.000 A 
ATOM     17  N   UNL     1      47.234   3.238   7.059  0.00  0.00    +0.000 NA
ENDBRANCH  11  12
ENDBRANCH  10  11
ENDBRANCH   8  10
ENDBRANCH   5   8
ENDBRANCH   1   2
BRANCH   1  20
ATOM     18  C   UNL     1      48.849   5.659  16.291  0.00  0.00    +0.000 C 
ATOM     19  O   UNL     1      49.280   4.601  16.755  0.00  0.00    +0.000 OA
ATOM     20  N   UNL     1      47.772   5.670  15.451  0.00  0.00    +0.000 N 
ATOM     21  H   UNL     1      47.380   6.547  15.130  0.00  0.00    +0.000 HD
BRANCH  18  29
ATOM     22  C   UNL     1      50.265   8.156  14.379  0.00  0.00    +0.000 A 
ATOM     23  N   UNL     1      50.937   9.223  13.901  0.00  0.00    +0.000 NA
ATOM     24  C   UNL     1      51.408  10.116  14.774  0.00  0.00    +0.000 A 
ATOM     25  N   UNL     1      51.288  10.080  16.096  0.00  0.00    +0.000 NA
ATOM     26  C   UNL     1      50.628   8.995  16.533  0.00  0.00    +0.000 A 
ATOM     27  S   UNL     1      50.373   8.794  18.200  0.00  0.00    +0.000 S 
ATOM     28  C   UNL     1      49.571   7.319  17.948  0.00  0.00    +0.000 A 
ATOM     29  C   UNL     1      49.480   6.946  16.613  0.00  0.00    +0.000 A 
ATOM     30  C   UNL     1      50.091   7.967  15.762  0.00  0.00    +0.000 A 
BRANCH  22  32
ATOM     31  C   UNL     1      49.275   7.891  12.267  0.00  0.00    +0.000 C 
ATOM     32  O   UNL     1      49.724   7.267  13.469  0.00  0.00    +0.000 OA
ENDBRANCH  22  32
ENDBRANCH  18  29
ENDBRANCH   1  20
TORSDOF 8
ENDMDL
MODEL 6
REMARK VINA RESULT:    -6.672      2.441      3.431
REMARK INTER + INTRA:         -11.093
REMARK INTER:                 -10.330
REMARK INTRA:                  -0.763
REMARK UNBOUND:                -1.300
REMARK  Name = 
REMARK  9 active torsions:
REMARK  status: ('A' for Active; 'I' for Inactive)
REMARK    1  A    between atoms: C_1  and  O_2
REMARK    2  A    between atoms: O_2  and  C_3
REMARK    3  A    between atoms: C_10  and  C_11
REMARK    4  A    between atoms: N_13  and  C_14
REMARK    5  A    between atoms: C_14  and  C_15
REMARK    6  A    between atoms: C_18  and  N_19
REMARK    7  A    between atoms: N_19  and  C_20
REMARK    8  A    between atoms: C_20  and  C_21
REMARK    9  A    between atoms: C_21  and  C_22
REMARK                            x       y       z     vdW  Elec       q    Type
REMARK                         _______ _______ _______ _____ _____    ______ ____
ROOT
ATOM      1  C   UNL     1      47.132   4.482  15.080  0.00  0.00    +0.000 C 
ENDROOT
BRANCH   1   2
ATOM      2  C   UNL     1      46.534   4.750  13.726  0.00  0.00    +0.000 A 
ATOM      3  C   UNL     1      46.903   5.887  12.998  0.00  0.00    +0.000 A 
ATOM      4  C   UNL     1      46.433   6.077  11.697  0.00  0.00    +0.000 A 
ATOM      5  C   UNL     1      45.612   5.125  11.089  0.00  0.00    +0.000 A 
ATOM      6  C   UNL     1      45.136   4.064  11.865  0.00  0.00    +0.000 A 
ATOM      7  C   UNL     1      45.605   3.867  13.166  0.00  0.00    +0.000 A 
BRANCH   5   8
ATOM      8  N   UNL     1      45.245   5.169   9.740  0.00  0.00    +0.000 N 
ATOM      9  H   UNL     1      46.062   5.196   9.132  0.00  0.00    +0.000 HD
BRANCH   8  10
ATOM     10  C   UNL     1      44.205   4.246   9.265  0.00  0.00    +0.000 C 
BRANCH  10  11
ATOM     11  C   UNL     1      44.700   2.795   9.163  0.00  0.00    +0.000 C 
BRANCH  11  12
ATOM     12  C   UNL     1      45.726   2.603   8.082  0.00  0.00    +0.000 A 
ATOM     13  C   UNL     1      46.439   1.411   7.964  0.00  0.00    +0.000 A 
ATOM     14  N   UNL     1      47.370   1.196   7.003  0.00  0.00    +0.000 NA
ATOM     15  C   UNL     1      47.562   2.228   6.155  0.00  0.00    +0.000 A 
ATOM     16  C   UNL     1      46.864   3.419   6.265  0.00  0.00    +0.000 A 
ATOM     17  N   UNL     1      45.935   3.635   7.223  0.00  0.00    +0.000 NA
ENDBRANCH  11  12
ENDBRANCH  10  11
ENDBRANCH   8  10
ENDBRANCH   5   8
ENDBRANCH   1   2
BRANCH   1  20
ATOM     18  C   UNL     1      48.879   5.546  16.427  0.00  0.00    +0.000 C 
ATOM     19  O   UNL     1      49.336   4.444  16.741  0.00  0.00    +0.000 OA
ATOM     20  N   UNL     1      47.786   5.648  15.613  0.00  0.00    +0.000 N 
ATOM     21  H   UNL     1      47.375   6.552  15.418  0.00  0.00    +0.000 HD
BRANCH  18  29
ATOM     22  C   UNL     1      48.060   7.800  18.906  0.00  0.00    +0.000 A 
ATOM     23  N   UNL     1      47.940   8.863  19.727  0.00  0.00    +0.000 NA
ATOM     24  C   UNL     1      48.846   9.838  19.636  0.00  0.00    +0.000 A 
ATOM     25  N   UNL     1      49.886   9.886  18.810  0.00  0.00    +0.000 NA
ATOM     26  C   UNL     1      49.961   8.819  17.998  0.00  0.00    +0.000 A 
ATOM     27  S   UNL     1      51.238   8.711  16.885  0.00  0.00    +0.000 S 
ATOM     28  C   UNL     1      50.657   7.233  16.287  0.00  0.00    +0.000 A 
ATOM     29  C   UNL     1      49.494   6.791  16.907  0.00  0.00    +0.000 A 
ATOM     30  C   UNL     1      49.093   7.731  17.953  0.00  0.00    +0.000 A 
BRANCH  22  32
ATOM     31  C   UNL     1      47.484   5.867  20.106  0.00  0.00    +0.000 C 
ATOM     32  O   UNL     1      47.156   6.764  19.046  0.00  0.00    +0.000 OA
ENDBRANCH  22  32
ENDBRANCH  18  29
ENDBRANCH   1  20
TORSDOF 8
ENDMDL
MODEL 7
REMARK VINA RESULT:    -6.588      2.274      3.561
REMARK INTER + INTRA:         -10.970
REMARK INTER:                  -9.788
REMARK INTRA:                  -1.182
REMARK UNBOUND:                -1.300
REMARK  Name = 
REMARK  9 active torsions:
REMARK  status: ('A' for Active; 'I' for Inactive)
REMARK    1  A    between atoms: C_1  and  O_2
REMARK    2  A    between atoms: O_2  and  C_3
REMARK    3  A    between atoms: C_10  and  C_11
REMARK    4  A    between atoms: N_13  and  C_14
REMARK    5  A    between atoms: C_14  and  C_15
REMARK    6  A    between atoms: C_18  and  N_19
REMARK    7  A    between atoms: N_19  and  C_20
REMARK    8  A    between atoms: C_20  and  C_21
REMARK    9  A    between atoms: C_21  and  C_22
REMARK                            x       y       z     vdW  Elec       q    Type
REMARK                         _______ _______ _______ _____ _____    ______ ____
ROOT
ATOM      1  C   UNL     1      47.356   4.323  15.339  0.00  0.00    +0.000 C 
ENDROOT
BRANCH   1   2
ATOM      2  C   UNL     1      46.673   4.776  14.078  0.00  0.00    +0.000 A 
ATOM      3  C   UNL     1      47.319   5.645  13.192  0.00  0.00    +0.000 A 
ATOM      4  C   UNL     1      46.731   5.976  11.970  0.00  0.00    +0.000 A 
ATOM      5  C   UNL     1      45.503   5.426  11.597  0.00  0.00    +0.000 A 
ATOM      6  C   UNL     1      44.798   4.671  12.540  0.00  0.00    +0.000 A 
ATOM      7  C   UNL     1      45.384   4.334  13.762  0.00  0.00    +0.000 A 
BRANCH   5   8
ATOM      8  N   UNL     1      44.939   5.582  10.327  0.00  0.00    +0.000 N 
ATOM      9  H   UNL     1      45.658   5.661   9.608  0.00  0.00    +0.000 HD
BRANCH   8  10
ATOM     10  C   UNL     1      43.831   4.700   9.937  0.00  0.00    +0.000 C 
BRANCH  10  11
ATOM     11  C   UNL     1      44.258   3.230   9.809  0.00  0.00    +0.000 C 
BRANCH  11  12
ATOM     12  C   UNL     1      45.286   3.011   8.734  0.00  0.00    +0.000 A 
ATOM     13  C   UNL     1      45.895   1.771   8.555  0.00  0.00    +0.000 A 
ATOM     14  N   UNL     1      46.824   1.532   7.597  0.00  0.00    +0.000 NA
ATOM     15  C   UNL     1      47.120   2.591   6.815  0.00  0.00    +0.000 A 
ATOM     16  C   UNL     1      46.526   3.829   6.986  0.00  0.00    +0.000 A 
ATOM     17  N   UNL     1      45.600   4.070   7.941  0.00  0.00    +0.000 NA
ENDBRANCH  11  12
ENDBRANCH  10  11
ENDBRANCH   8  10
ENDBRANCH   5   8
ENDBRANCH   1   2
BRANCH   1  20
ATOM     18  C   UNL     1      48.649   5.573  17.000  0.00  0.00    +0.000 C 
ATOM     19  O   UNL     1      49.603   4.804  16.867  0.00  0.00    +0.000 OA
ATOM     20  N   UNL     1      47.499   5.398  16.284  0.00  0.00    +0.000 N 
ATOM     21  H   UNL     1      46.696   5.992  16.450  0.00  0.00    +0.000 HD
BRANCH  18  29
ATOM     22  C   UNL     1      48.457   8.991  16.580  0.00  0.00    +0.000 A 
ATOM     23  N   UNL     1      48.499  10.334  16.700  0.00  0.00    +0.000 NA
ATOM     24  C   UNL     1      48.697  10.854  17.913  0.00  0.00    +0.000 A 
ATOM     25  N   UNL     1      48.859  10.187  19.050  0.00  0.00    +0.000 NA
ATOM     26  C   UNL     1      48.828   8.854  18.886  0.00  0.00    +0.000 A 
ATOM     27  S   UNL     1      49.008   7.847  20.241  0.00  0.00    +0.000 S 
ATOM     28  C   UNL     1      48.887   6.452  19.280  0.00  0.00    +0.000 A 
ATOM     29  C   UNL     1      48.712   6.712  17.926  0.00  0.00    +0.000 A 
ATOM     30  C   UNL     1      48.649   8.155  17.695  0.00  0.00    +0.000 A 
BRANCH  22  32
ATOM     31  C   UNL     1      49.345   8.351  14.503  0.00  0.00    +0.000 C 
ATOM     32  O   UNL     1      48.189   8.458  15.333  0.00  0.00    +0.000 OA
ENDBRANCH  22  32
ENDBRANCH  18  29
ENDBRANCH   1  20
TORSDOF 8
ENDMDL
MODEL 8
REMARK VINA RESULT:    -6.331      3.464      5.777
REMARK INTER + INTRA:         -10.592
REMARK INTER:                  -9.449
REMARK INTRA:                  -1.143
REMARK UNBOUND:                -1.300
REMARK  Name = 
REMARK  9 active torsions:
REMARK  status: ('A' for Active; 'I' for Inactive)
REMARK    1  A    between atoms: C_1  and  O_2
REMARK    2  A    between atoms: O_2  and  C_3
REMARK    3  A    between atoms: C_10  and  C_11
REMARK    4  A    between atoms: N_13  and  C_14
REMARK    5  A    between atoms: C_14  and  C_15
REMARK    6  A    between atoms: C_18  and  N_19
REMARK    7  A    between atoms: N_19  and  C_20
REMARK    8  A    between atoms: C_20  and  C_21
REMARK    9  A    between atoms: C_21  and  C_22
REMARK                            x       y       z     vdW  Elec       q    Type
REMARK                         _______ _______ _______ _____ _____    ______ ____
ROOT
ATOM      1  C   UNL     1      48.388   3.220  17.900  0.00  0.00    +0.000 C 
ENDROOT
BRANCH   1   2
ATOM      2  C   UNL     1      48.162   4.113  16.711  0.00  0.00    +0.000 A 
ATOM      3  C   UNL     1      47.402   3.669  15.623  0.00  0.00    +0.000 A 
ATOM      4  C   UNL     1      47.099   4.535  14.571  0.00  0.00    +0.000 A 
ATOM      5  C   UNL     1      47.523   5.866  14.599  0.00  0.00    +0.000 A 
ATOM      6  C   UNL     1      48.395   6.266  15.615  0.00  0.00    +0.000 A 
ATOM      7  C   UNL     1      48.699   5.404  16.672  0.00  0.00    +0.000 A 
BRANCH   5   8
ATOM      8  N   UNL     1      47.116   6.826  13.666  0.00  0.00    +0.000 N 
ATOM      9  H   UNL     1      47.651   7.688  13.763  0.00  0.00    +0.000 HD
BRANCH   8  10
ATOM     10  C   UNL     1      46.937   6.414  12.267  0.00  0.00    +0.000 C 
BRANCH  10  11
ATOM     11  C   UNL     1      45.485   6.553  11.787  0.00  0.00    +0.000 C 
BRANCH  11  12
ATOM     12  C   UNL     1      44.747   5.243  11.773  0.00  0.00    +0.000 A 
ATOM     13  C   UNL     1      44.136   4.743  12.921  0.00  0.00    +0.000 A 
ATOM     14  N   UNL     1      43.460   3.569  12.951  0.00  0.00    +0.000 NA
ATOM     15  C   UNL     1      43.416   2.908  11.774  0.00  0.00    +0.000 A 
ATOM     16  C   UNL     1      44.023   3.392  10.629  0.00  0.00    +0.000 A 
ATOM     17  N   UNL     1      44.697   4.563  10.597  0.00  0.00    +0.000 NA
ENDBRANCH  11  12
ENDBRANCH  10  11
ENDBRANCH   8  10
ENDBRANCH   5   8
ENDBRANCH   1   2
BRANCH   1  20
ATOM     18  C   UNL     1      50.503   2.155  17.277  0.00  0.00    +0.000 C 
ATOM     19  O   UNL     1      49.967   1.610  16.310  0.00  0.00    +0.000 OA
ATOM     20  N   UNL     1      49.788   2.962  18.115  0.00  0.00    +0.000 N 
ATOM     21  H   UNL     1      50.218   3.349  18.946  0.00  0.00    +0.000 HD
BRANCH  18  29
ATOM     22  C   UNL     1      53.136   4.330  17.761  0.00  0.00    +0.000 A 
ATOM     23  N   UNL     1      54.336   4.928  17.904  0.00  0.00    +0.000 NA
ATOM     24  C   UNL     1      55.414   4.155  18.053  0.00  0.00    +0.000 A 
ATOM     25  N   UNL     1      55.446   2.828  18.082  0.00  0.00    +0.000 NA
ATOM     26  C   UNL     1      54.235   2.270  17.920  0.00  0.00    +0.000 A 
ATOM     27  S   UNL     1      54.090   0.578  17.942  0.00  0.00    +0.000 S 
ATOM     28  C   UNL     1      52.416   0.669  17.675  0.00  0.00    +0.000 A 
ATOM     29  C   UNL     1      51.932   1.967  17.561  0.00  0.00    +0.000 A 
ATOM     30  C   UNL     1      53.021   2.928  17.736  0.00  0.00    +0.000 A 
BRANCH  22  32
ATOM     31  C   UNL     1      51.777   5.907  18.844  0.00  0.00    +0.000 C 
ATOM     32  O   UNL     1      52.015   5.133  17.669  0.00  0.00    +0.000 OA
ENDBRANCH  22  32
ENDBRANCH  18  29
ENDBRANCH   1  20
TORSDOF 8
ENDMDL
MODEL 9
REMARK VINA RESULT:    -6.219      3.598      7.742
REMARK INTER + INTRA:         -10.427
REMARK INTER:                  -8.796
REMARK INTRA:                  -1.631
REMARK UNBOUND:                -1.300
REMARK  Name = 
REMARK  9 active torsions:
REMARK  status: ('A' for Active; 'I' for Inactive)
REMARK    1  A    between atoms: C_1  and  O_2
REMARK    2  A    between atoms: O_2  and  C_3
REMARK    3  A    between atoms: C_10  and  C_11
REMARK    4  A    between atoms: N_13  and  C_14
REMARK    5  A    between atoms: C_14  and  C_15
REMARK    6  A    between atoms: C_18  and  N_19
REMARK    7  A    between atoms: N_19  and  C_20
REMARK    8  A    between atoms: C_20  and  C_21
REMARK    9  A    between atoms: C_21  and  C_22
REMARK                            x       y       z     vdW  Elec       q    Type
REMARK                         _______ _______ _______ _____ _____    ______ ____
ROOT
ATOM      1  C   UNL     1      48.152   8.975  13.512  0.00  0.00    +0.000 C 
ENDROOT
BRANCH   1   2
ATOM      2  C   UNL     1      48.808   8.423  14.748  0.00  0.00    +0.000 A 
ATOM      3  C   UNL     1      48.294   8.715  16.016  0.00  0.00    +0.000 A 
ATOM      4  C   UNL     1      48.835   8.113  17.154  0.00  0.00    +0.000 A 
ATOM      5  C   UNL     1      49.877   7.190  17.046  0.00  0.00    +0.000 A 
ATOM      6  C   UNL     1      50.478   7.007  15.797  0.00  0.00    +0.000 A 
ATOM      7  C   UNL     1      49.938   7.604  14.654  0.00  0.00    +0.000 A 
BRANCH   5   8
ATOM      8  N   UNL     1      50.351   6.429  18.120  0.00  0.00    +0.000 N 
ATOM      9  H   UNL     1      50.755   7.021  18.844  0.00  0.00    +0.000 HD
BRANCH   8  10
ATOM     10  C   UNL     1      49.494   5.365  18.659  0.00  0.00    +0.000 C 
BRANCH  10  11
ATOM     11  C   UNL     1      49.299   4.203  17.673  0.00  0.00    +0.000 C 
BRANCH  11  12
ATOM     12  C   UNL     1      50.457   3.245  17.663  0.00  0.00    +0.000 A 
ATOM     13  C   UNL     1      50.308   1.932  17.222  0.00  0.00    +0.000 A 
ATOM     14  N   UNL     1      51.326   1.038  17.194  0.00  0.00    +0.000 NA
ATOM     15  C   UNL     1      52.513   1.514  17.627  0.00  0.00    +0.000 A 
ATOM     16  C   UNL     1      52.673   2.814  18.072  0.00  0.00    +0.000 A 
ATOM     17  N   UNL     1      51.658   3.707  18.101  0.00  0.00    +0.000 NA
ENDBRANCH  11  12
ENDBRANCH  10  11
ENDBRANCH   8  10
ENDBRANCH   5   8
ENDBRANCH   1   2
BRANCH   1  20
ATOM     18  C   UNL     1      46.862   7.327  12.240  0.00  0.00    +0.000 C 
ATOM     19  O   UNL     1      47.860   7.023  11.583  0.00  0.00    +0.000 OA
ATOM     20  N   UNL     1      46.924   8.288  13.209  0.00  0.00    +0.000 N 
ATOM     21  H   UNL     1      46.086   8.582  13.695  0.00  0.00    +0.000 HD
BRANCH  18  29
ATOM     22  C   UNL     1      45.706   4.126  12.797  0.00  0.00    +0.000 A 
ATOM     23  N   UNL     1      45.026   2.962  12.825  0.00  0.00    +0.000 NA
ATOM     24  C   UNL     1      43.781   2.944  12.347  0.00  0.00    +0.000 A 
ATOM     25  N   UNL     1      43.109   3.969  11.833  0.00  0.00    +0.000 NA
ATOM     26  C   UNL     1      43.825   5.105  11.807  0.00  0.00    +0.000 A 
ATOM     27  S   UNL     1      43.114   6.519  11.192  0.00  0.00    +0.000 S 
ATOM     28  C   UNL     1      44.535   7.408  11.462  0.00  0.00    +0.000 A 
ATOM     29  C   UNL     1      45.571   6.664  12.015  0.00  0.00    +0.000 A 
ATOM     30  C   UNL     1      45.133   5.288  12.248  0.00  0.00    +0.000 A 
BRANCH  22  32
ATOM     31  C   UNL     1      46.981   4.550  14.722  0.00  0.00    +0.000 C 
ATOM     32  O   UNL     1      46.972   4.154  13.350  0.00  0.00    +0.000 OA
ENDBRANCH  22  32
ENDBRANCH  18  29
ENDBRANCH   1  20
TORSDOF 8
ENDMDL
