MODEL 1
REMARK VINA RESULT:    -7.256      0.000      0.000
REMARK INTER + INTRA:         -12.986
REMARK INTER:                 -11.922
REMARK INTRA:                  -1.064
REMARK UNBOUND:                -1.064
REMARK  Name = 
REMARK  14 active torsions:
REMARK  status: ('A' for Active; 'I' for Inactive)
REMARK    1  A    between atoms: C_1  and  C_2
REMARK    2  A    between atoms: C_2  and  C_3
REMARK    3  A    between atoms: C_2  and  O_10
REMARK    4  A    between atoms: C_3  and  C_4
REMARK    5  A    between atoms: C_4  and  C_5
REMARK    6  A    between atoms: C_5  and  C_6
REMARK    7  A    between atoms: C_6  and  N_7
REMARK    8  A    between atoms: N_7  and  C_8
REMARK    9  A    between atoms: N_7  and  C_9
REMARK   10  A    between atoms: O_10  and  C_11
REMARK   11  A    between atoms: C_11  and  C_13
REMARK   12  A    between atoms: N_17  and  C_18
REMARK   13  A    between atoms: C_18  and  C_19
REMARK   14  A    between atoms: C_23  and  C_24
REMARK                            x       y       z     vdW  Elec       q    Type
REMARK                         _______ _______ _______ _____ _____    ______ ____
ROOT
ATOM      1  C   UNL     1      47.144   5.574  13.511  0.00  0.00    +0.000 A 
ATOM      2  C   UNL     1      47.242   4.251  13.930  0.00  0.00    +0.000 A 
ATOM      3  C   UNL     1      46.348   3.308  13.405  0.00  0.00    +0.000 A 
ATOM      4  C   UNL     1      45.406   3.684  12.445  0.00  0.00    +0.000 A 
ATOM      5  N   UNL     1      44.572   2.705  11.917  0.00  0.00    +0.000 N 
ATOM      6  N   UNL     1      45.345   4.955  12.007  0.00  0.00    +0.000 NA
ATOM      7  C   UNL     1      46.177   5.872  12.568  0.00  0.00    +0.000 A 
ATOM      8  H   UNL     1      44.051   2.191  12.616  0.00  0.00    +0.000 HD
ENDROOT
BRANCH   1   9
ATOM      9  C   UNL     1      47.924   6.682  14.103  0.00  0.00    +0.000 C 
ATOM     10  O   UNL     1      47.721   7.850  13.814  0.00  0.00    +0.000 OA
BRANCH   9  11
ATOM     11  O   UNL     1      48.802   6.227  15.037  0.00  0.00    +0.000 OA
BRANCH  11  13
ATOM     12  C   UNL     1      48.839   7.317  17.145  0.00  0.00    +0.000 C 
ATOM     13  C   UNL     1      49.499   7.255  15.768  0.00  0.00    +0.000 C 
BRANCH  13  14
ATOM     14  C   UNL     1      50.981   6.901  15.931  0.00  0.00    +0.000 C 
BRANCH  14  15
ATOM     15  C   UNL     1      51.359   6.494  17.358  0.00  0.00    +0.000 C 
BRANCH  15  16
ATOM     16  C   UNL     1      51.708   5.001  17.393  0.00  0.00    +0.000 C 
BRANCH  16  17
ATOM     17  C   UNL     1      50.578   4.161  17.999  0.00  0.00    +0.000 C 
BRANCH  17  18
ATOM     18  N   UNL     1      49.938   3.259  17.022  0.00  0.00    +0.000 NA
ATOM     19  C   UNL     1      50.520   1.914  17.039  0.00  0.00    +0.000 C 
ATOM     20  C   UNL     1      48.501   3.172  17.299  0.00  0.00    +0.000 C 
ENDBRANCH  17  18
ENDBRANCH  16  17
ENDBRANCH  15  16
ENDBRANCH  14  15
ENDBRANCH  13  14
ENDBRANCH  11  13
ENDBRANCH   9  11
ENDBRANCH   1   9
BRANCH   5  21
ATOM     21  C   UNL     1      43.892   2.915  10.650  0.00  0.00    +0.000 C 
BRANCH  21  22
ATOM     22  C   UNL     1      44.775   3.026   9.428  0.00  0.00    +0.000 A 
ATOM     23  C   UNL     1      44.974   4.269   8.814  0.00  0.00    +0.000 A 
ATOM     24  C   UNL     1      45.851   4.375   7.745  0.00  0.00    +0.000 A 
ATOM     25  N   UNL     1      46.552   3.339   7.241  0.00  0.00    +0.000 NA
ATOM     26  C   UNL     1      46.350   2.133   7.845  0.00  0.00    +0.000 A 
ATOM     27  C   UNL     1      45.488   1.932   8.923  0.00  0.00    +0.000 A 
BRANCH  26  28
ATOM     28  C   UNL     1      47.137   0.982   7.298  0.00  0.00    +0.000 C 
ATOM     29  N   UNL     1      46.724  -0.266   7.696  0.00  0.00    +0.000 N 
ATOM     30  O   UNL     1      48.089   1.127   6.545  0.00  0.00    +0.000 OA
ATOM     31  H   UNL     1      45.932  -0.352   8.325  0.00  0.00    +0.000 HD
ATOM     32  H   UNL     1      47.216  -1.083   7.376  0.00  0.00    +0.000 HD
ENDBRANCH  26  28
ENDBRANCH  21  22
ENDBRANCH   5  21
TORSDOF 11
ENDMDL
MODEL 2
REMARK VINA RESULT:    -6.840      1.377      2.252
REMARK INTER + INTRA:         -12.302
REMARK INTER:                 -11.039
REMARK INTRA:                  -1.262
REMARK UNBOUND:                -1.064
REMARK  Name = 
REMARK  14 active torsions:
REMARK  status: ('A' for Active; 'I' for Inactive)
REMARK    1  A    between atoms: C_1  and  C_2
REMARK    2  A    between atoms: C_2  and  C_3
REMARK    3  A    between atoms: C_2  and  O_10
REMARK    4  A    between atoms: C_3  and  C_4
REMARK    5  A    between atoms: C_4  and  C_5
REMARK    6  A    between atoms: C_5  and  C_6
REMARK    7  A    between atoms: C_6  and  N_7
REMARK    8  A    between atoms: N_7  and  C_8
REMARK    9  A    between atoms: N_7  and  C_9
REMARK   10  A    between atoms: O_10  and  C_11
REMARK   11  A    between atoms: C_11  and  C_13
REMARK   12  A    between atoms: N_17  and  C_18
REMARK   13  A    between atoms: C_18  and  C_19
REMARK   14  A    between atoms: C_23  and  C_24
REMARK                            x       y       z     vdW  Elec       q    Type
REMARK                         _______ _______ _______ _____ _____    ______ ____
ROOT
ATOM      1  C   UNL     1      47.502   6.310  13.158  0.00  0.00    +0.000 A 
ATOM      2  C   UNL     1      46.594   5.482  13.809  0.00  0.00    +0.000 A 
ATOM      3  C   UNL     1      45.473   5.022  13.106  0.00  0.00    +0.000 A 
ATOM      4  C   UNL     1      45.297   5.354  11.760  0.00  0.00    +0.000 A 
ATOM      5  N   UNL     1      44.195   4.834  11.090  0.00  0.00    +0.000 N 
ATOM      6  N   UNL     1      46.201   6.116  11.119  0.00  0.00    +0.000 NA
ATOM      7  C   UNL     1      47.252   6.606  11.829  0.00  0.00    +0.000 A 
ATOM      8  H   UNL     1      43.310   5.042  11.535  0.00  0.00    +0.000 HD
ENDROOT
BRANCH   1   9
ATOM      9  C   UNL     1      48.634   6.981  13.833  0.00  0.00    +0.000 C 
ATOM     10  O   UNL     1      49.624   7.357  13.227  0.00  0.00    +0.000 OA
BRANCH   9  11
ATOM     11  O   UNL     1      48.375   7.179  15.153  0.00  0.00    +0.000 OA
BRANCH  11  13
ATOM     12  C   UNL     1      50.436   6.850  16.283  0.00  0.00    +0.000 C 
ATOM     13  C   UNL     1      49.044   6.267  16.047  0.00  0.00    +0.000 C 
BRANCH  13  14
ATOM     14  C   UNL     1      48.301   6.169  17.385  0.00  0.00    +0.000 C 
BRANCH  14  15
ATOM     15  C   UNL     1      47.578   4.835  17.585  0.00  0.00    +0.000 C 
BRANCH  15  16
ATOM     16  C   UNL     1      48.234   3.757  16.715  0.00  0.00    +0.000 C 
BRANCH  16  17
ATOM     17  C   UNL     1      49.127   2.820  17.535  0.00  0.00    +0.000 C 
BRANCH  17  18
ATOM     18  N   UNL     1      50.548   2.884  17.144  0.00  0.00    +0.000 NA
ATOM     19  C   UNL     1      51.310   3.832  17.961  0.00  0.00    +0.000 C 
ATOM     20  C   UNL     1      51.151   1.552  17.255  0.00  0.00    +0.000 C 
ENDBRANCH  17  18
ENDBRANCH  16  17
ENDBRANCH  15  16
ENDBRANCH  14  15
ENDBRANCH  13  14
ENDBRANCH  11  13
ENDBRANCH   9  11
ENDBRANCH   1   9
BRANCH   5  21
ATOM     21  C   UNL     1      44.173   4.772   9.638  0.00  0.00    +0.000 C 
BRANCH  21  22
ATOM     22  C   UNL     1      44.915   3.616   9.007  0.00  0.00    +0.000 A 
ATOM     23  C   UNL     1      44.674   2.306   9.439  0.00  0.00    +0.000 A 
ATOM     24  C   UNL     1      45.296   1.246   8.798  0.00  0.00    +0.000 A 
ATOM     25  N   UNL     1      46.137   1.386   7.753  0.00  0.00    +0.000 NA
ATOM     26  C   UNL     1      46.366   2.666   7.341  0.00  0.00    +0.000 A 
ATOM     27  C   UNL     1      45.787   3.792   7.926  0.00  0.00    +0.000 A 
BRANCH  26  28
ATOM     28  C   UNL     1      47.288   2.827   6.172  0.00  0.00    +0.000 C 
ATOM     29  N   UNL     1      48.609   2.533   6.410  0.00  0.00    +0.000 N 
ATOM     30  O   UNL     1      46.906   3.194   5.070  0.00  0.00    +0.000 OA
ATOM     31  H   UNL     1      48.894   2.234   7.337  0.00  0.00    +0.000 HD
ATOM     32  H   UNL     1      49.285   2.632   5.671  0.00  0.00    +0.000 HD
ENDBRANCH  26  28
ENDBRANCH  21  22
ENDBRANCH   5  21
TORSDOF 11
ENDMDL
MODEL 3
REMARK VINA RESULT:    -6.492      2.471      8.987
REMARK INTER + INTRA:         -11.732
REMARK INTER:                 -11.159
REMARK INTRA:                  -0.573
REMARK UNBOUND:                -1.064
REMARK  Name = 
REMARK  14 active torsions:
REMARK  status: ('A' for Active; 'I' for Inactive)
REMARK    1  A    between atoms: C_1  and  C_2
REMARK    2  A    between atoms: C_2  and  C_3
REMARK    3  A    between atoms: C_2  and  O_10
REMARK    4  A    between atoms: C_3  and  C_4
REMARK    5  A    between atoms: C_4  and  C_5
REMARK    6  A    between atoms: C_5  and  C_6
REMARK    7  A    between atoms: C_6  and  N_7
REMARK    8  A    between atoms: N_7  and  C_8
REMARK    9  A    between atoms: N_7  and  C_9
REMARK   10  A    between atoms: O_10  and  C_11
REMARK   11  A    between atoms: C_11  and  C_13
REMARK   12  A    between atoms: N_17  and  C_18
REMARK   13  A    between atoms: C_18  and  C_19
REMARK   14  A    between atoms: C_23  and  C_24
REMARK                            x       y       z     vdW  Elec       q    Type
REMARK                         _______ _______ _______ _____ _____    ______ ____
ROOT
ATOM      1  C   UNL     1      47.153   4.957  14.203  0.00  0.00    +0.000 A 
ATOM      2  C   UNL     1      47.889   6.069  13.809  0.00  0.00    +0.000 A 
ATOM      3  C   UNL     1      48.622   6.773  14.774  0.00  0.00    +0.000 A 
ATOM      4  C   UNL     1      48.646   6.336  16.101  0.00  0.00    +0.000 A 
ATOM      5  N   UNL     1      49.427   7.037  17.014  0.00  0.00    +0.000 N 
ATOM      6  N   UNL     1      47.972   5.232  16.470  0.00  0.00    +0.000 NA
ATOM      7  C   UNL     1      47.216   4.594  15.537  0.00  0.00    +0.000 A 
ATOM      8  H   UNL     1      49.211   8.025  17.062  0.00  0.00    +0.000 HD
ENDROOT
BRANCH   1   9
ATOM      9  C   UNL     1      46.224   4.228  13.313  0.00  0.00    +0.000 C 
ATOM     10  O   UNL     1      46.248   3.014  13.199  0.00  0.00    +0.000 OA
BRANCH   9  11
ATOM     11  O   UNL     1      45.327   5.073  12.736  0.00  0.00    +0.000 OA
BRANCH  11  13
ATOM     12  C   UNL     1      43.022   4.571  13.002  0.00  0.00    +0.000 C 
ATOM     13  C   UNL     1      44.224   4.425  12.070  0.00  0.00    +0.000 C 
BRANCH  13  14
ATOM     14  C   UNL     1      43.916   5.107  10.733  0.00  0.00    +0.000 C 
BRANCH  14  15
ATOM     15  C   UNL     1      44.248   4.242   9.515  0.00  0.00    +0.000 C 
BRANCH  15  16
ATOM     16  C   UNL     1      44.855   2.912   9.977  0.00  0.00    +0.000 C 
BRANCH  16  17
ATOM     17  C   UNL     1      45.006   1.916   8.822  0.00  0.00    +0.000 C 
BRANCH  17  18
ATOM     18  N   UNL     1      46.332   1.973   8.177  0.00  0.00    +0.000 NA
ATOM     19  C   UNL     1      46.775   0.662   7.695  0.00  0.00    +0.000 C 
ATOM     20  C   UNL     1      46.295   2.917   7.056  0.00  0.00    +0.000 C 
ENDBRANCH  17  18
ENDBRANCH  16  17
ENDBRANCH  15  16
ENDBRANCH  14  15
ENDBRANCH  13  14
ENDBRANCH  11  13
ENDBRANCH   9  11
ENDBRANCH   1   9
BRANCH   5  21
ATOM     21  C   UNL     1      49.840   6.419  18.262  0.00  0.00    +0.000 C 
BRANCH  21  22
ATOM     22  C   UNL     1      50.879   5.327  18.155  0.00  0.00    +0.000 A 
ATOM     23  C   UNL     1      52.196   5.566  18.568  0.00  0.00    +0.000 A 
ATOM     24  C   UNL     1      53.121   4.533  18.545  0.00  0.00    +0.000 A 
ATOM     25  N   UNL     1      52.837   3.277  18.147  0.00  0.00    +0.000 NA
ATOM     26  C   UNL     1      51.553   3.055  17.746  0.00  0.00    +0.000 A 
ATOM     27  C   UNL     1      50.557   4.031  17.734  0.00  0.00    +0.000 A 
BRANCH  26  28
ATOM     28  C   UNL     1      51.229   1.657  17.317  0.00  0.00    +0.000 C 
ATOM     29  N   UNL     1      51.843   0.656  18.031  0.00  0.00    +0.000 N 
ATOM     30  O   UNL     1      50.468   1.405  16.394  0.00  0.00    +0.000 OA
ATOM     31  H   UNL     1      52.472   0.899  18.790  0.00  0.00    +0.000 HD
ATOM     32  H   UNL     1      51.679  -0.306  17.787  0.00  0.00    +0.000 HD
ENDBRANCH  26  28
ENDBRANCH  21  22
ENDBRANCH   5  21
TORSDOF 11
ENDMDL
MODEL 4
REMARK VINA RESULT:    -6.462      2.708      8.706
REMARK INTER + INTRA:         -11.681
REMARK INTER:                 -10.672
REMARK INTRA:                  -1.008
REMARK UNBOUND:                -1.064
REMARK  Name = 
REMARK  14 active torsions:
REMARK  status: ('A' for Active; 'I' for Inactive)
REMARK    1  A    between atoms: C_1  and  C_2
REMARK    2  A    between atoms: C_2  and  C_3
REMARK    3  A    between atoms: C_2  and  O_10
REMARK    4  A    between atoms: C_3  and  C_4
REMARK    5  A    between atoms: C_4  and  C_5
REMARK    6  A    between atoms: C_5  and  C_6
REMARK    7  A    between atoms: C_6  and  N_7
REMARK    8  A    between atoms: N_7  and  C_8
REMARK    9  A    between atoms: N_7  and  C_9
REMARK   10  A    between atoms: O_10  and  C_11
REMARK   11  A    between atoms: C_11  and  C_13
REMARK   12  A    between atoms: N_17  and  C_18
REMARK   13  A    between atoms: C_18  and  C_19
REMARK   14  A    between atoms: C_23  and  C_24
REMARK                            x       y       z     vdW  Elec       q    Type
REMARK                         _______ _______ _______ _____ _____    ______ ____
ROOT
ATOM      1  C   UNL     1      46.650   7.812  12.429  0.00  0.00    +0.000 A 
ATOM      2  C   UNL     1      47.646   7.129  11.738  0.00  0.00    +0.000 A 
ATOM      3  C   UNL     1      48.919   7.027  12.314  0.00  0.00    +0.000 A 
ATOM      4  C   UNL     1      49.169   7.564  13.579  0.00  0.00    +0.000 A 
ATOM      5  N   UNL     1      50.434   7.395  14.131  0.00  0.00    +0.000 N 
ATOM      6  N   UNL     1      48.191   8.182  14.265  0.00  0.00    +0.000 NA
ATOM      7  C   UNL     1      46.977   8.328  13.670  0.00  0.00    +0.000 A 
ATOM      8  H   UNL     1      51.185   7.735  13.544  0.00  0.00    +0.000 HD
ENDROOT
BRANCH   1   9
ATOM      9  C   UNL     1      45.319   8.118  11.862  0.00  0.00    +0.000 C 
ATOM     10  O   UNL     1      44.770   9.195  12.029  0.00  0.00    +0.000 OA
BRANCH   9  11
ATOM     11  O   UNL     1      44.863   7.095  11.091  0.00  0.00    +0.000 OA
BRANCH  11  13
ATOM     12  C   UNL     1      42.767   6.030  11.422  0.00  0.00    +0.000 C 
ATOM     13  C   UNL     1      44.242   6.016  11.819  0.00  0.00    +0.000 C 
BRANCH  13  14
ATOM     14  C   UNL     1      44.860   4.668  11.430  0.00  0.00    +0.000 C 
BRANCH  14  15
ATOM     15  C   UNL     1      44.158   3.994  10.247  0.00  0.00    +0.000 C 
BRANCH  15  16
ATOM     16  C   UNL     1      44.882   2.688   9.896  0.00  0.00    +0.000 C 
BRANCH  16  17
ATOM     17  C   UNL     1      45.056   2.517   8.382  0.00  0.00    +0.000 C 
BRANCH  17  18
ATOM     18  N   UNL     1      46.465   2.353   7.976  0.00  0.00    +0.000 NA
ATOM     19  C   UNL     1      46.787   0.967   7.626  0.00  0.00    +0.000 C 
ATOM     20  C   UNL     1      46.752   3.223   6.832  0.00  0.00    +0.000 C 
ENDBRANCH  17  18
ENDBRANCH  16  17
ENDBRANCH  15  16
ENDBRANCH  14  15
ENDBRANCH  13  14
ENDBRANCH  11  13
ENDBRANCH   9  11
ENDBRANCH   1   9
BRANCH   5  21
ATOM     21  C   UNL     1      50.641   7.531  15.563  0.00  0.00    +0.000 C 
BRANCH  21  22
ATOM     22  C   UNL     1      50.274   6.332  16.408  0.00  0.00    +0.000 A 
ATOM     23  C   UNL     1      51.275   5.589  17.046  0.00  0.00    +0.000 A 
ATOM     24  C   UNL     1      50.924   4.543  17.886  0.00  0.00    +0.000 A 
ATOM     25  N   UNL     1      49.651   4.181  18.146  0.00  0.00    +0.000 NA
ATOM     26  C   UNL     1      48.684   4.910  17.519  0.00  0.00    +0.000 A 
ATOM     27  C   UNL     1      48.943   5.976  16.658  0.00  0.00    +0.000 A 
BRANCH  26  28
ATOM     28  C   UNL     1      47.269   4.522  17.816  0.00  0.00    +0.000 C 
ATOM     29  N   UNL     1      46.585   5.360  18.662  0.00  0.00    +0.000 N 
ATOM     30  O   UNL     1      46.741   3.525  17.344  0.00  0.00    +0.000 OA
ATOM     31  H   UNL     1      47.053   6.178  19.040  0.00  0.00    +0.000 HD
ATOM     32  H   UNL     1      45.634   5.151  18.914  0.00  0.00    +0.000 HD
ENDBRANCH  26  28
ENDBRANCH  21  22
ENDBRANCH   5  21
TORSDOF 11
ENDMDL
MODEL 5
REMARK VINA RESULT:    -6.412      4.145      8.115
REMARK INTER + INTRA:         -11.599
REMARK INTER:                 -10.496
REMARK INTRA:                  -1.102
REMARK UNBOUND:                -1.064
REMARK  Name = 
REMARK  14 active torsions:
REMARK  status: ('A' for Active; 'I' for Inactive)
REMARK    1  A    between atoms: C_1  and  C_2
REMARK    2  A    between atoms: C_2  and  C_3
REMARK    3  A    between atoms: C_2  and  O_10
REMARK    4  A    between atoms: C_3  and  C_4
REMARK    5  A    between atoms: C_4  and  C_5
REMARK    6  A    between atoms: C_5  and  C_6
REMARK    7  A    between atoms: C_6  and  N_7
REMARK    8  A    between atoms: N_7  and  C_8
REMARK    9  A    between atoms: N_7  and  C_9
REMARK   10  A    between atoms: O_10  and  C_11
REMARK   11  A    between atoms: C_11  and  C_13
REMARK   12  A    between atoms: N_17  and  C_18
REMARK   13  A    between atoms: C_18  and  C_19
REMARK   14  A    between atoms: C_23  and  C_24
REMARK                            x       y       z     vdW  Elec       q    Type
REMARK                         _______ _______ _______ _____ _____    ______ ____
ROOT
ATOM      1  C   UNL     1      45.250   5.704  12.647  0.00  0.00    +0.000 A 
ATOM      2  C   UNL     1      46.097   5.211  13.634  0.00  0.00    +0.000 A 
ATOM      3  C   UNL     1      47.455   5.554  13.591  0.00  0.00    +0.000 A 
ATOM      4  C   UNL     1      47.938   6.411  12.599  0.00  0.00    +0.000 A 
ATOM      5  N   UNL     1      49.283   6.762  12.627  0.00  0.00    +0.000 N 
ATOM      6  N   UNL     1      47.107   6.924  11.675  0.00  0.00    +0.000 NA
ATOM      7  C   UNL     1      45.803   6.536  11.691  0.00  0.00    +0.000 A 
ATOM      8  H   UNL     1      49.913   5.969  12.623  0.00  0.00    +0.000 HD
ENDROOT
BRANCH   1   9
ATOM      9  C   UNL     1      43.837   5.292  12.497  0.00  0.00    +0.000 C 
ATOM     10  O   UNL     1      42.995   5.527  13.348  0.00  0.00    +0.000 OA
BRANCH   9  11
ATOM     11  O   UNL     1      43.616   4.718  11.284  0.00  0.00    +0.000 OA
BRANCH  11  13
ATOM     12  C   UNL     1      43.325   2.441  11.886  0.00  0.00    +0.000 C 
ATOM     13  C   UNL     1      44.210   3.416  11.111  0.00  0.00    +0.000 C 
BRANCH  13  14
ATOM     14  C   UNL     1      44.231   3.016   9.632  0.00  0.00    +0.000 C 
BRANCH  14  15
ATOM     15  C   UNL     1      44.906   4.052   8.729  0.00  0.00    +0.000 C 
BRANCH  15  16
ATOM     16  C   UNL     1      45.402   3.373   7.447  0.00  0.00    +0.000 C 
BRANCH  16  17
ATOM     17  C   UNL     1      46.882   3.668   7.175  0.00  0.00    +0.000 C 
BRANCH  17  18
ATOM     18  N   UNL     1      47.665   2.459   6.857  0.00  0.00    +0.000 NA
ATOM     19  C   UNL     1      47.054   1.241   7.394  0.00  0.00    +0.000 C 
ATOM     20  C   UNL     1      47.809   2.333   5.404  0.00  0.00    +0.000 C 
ENDBRANCH  17  18
ENDBRANCH  16  17
ENDBRANCH  15  16
ENDBRANCH  14  15
ENDBRANCH  13  14
ENDBRANCH  11  13
ENDBRANCH   9  11
ENDBRANCH   1   9
BRANCH   5  21
ATOM     21  C   UNL     1      49.754   7.945  11.926  0.00  0.00    +0.000 C 
BRANCH  21  22
ATOM     22  C   UNL     1      51.186   7.909  11.442  0.00  0.00    +0.000 A 
ATOM     23  C   UNL     1      52.204   8.476  12.218  0.00  0.00    +0.000 A 
ATOM     24  C   UNL     1      53.524   8.364  11.807  0.00  0.00    +0.000 A 
ATOM     25  N   UNL     1      53.911   7.726  10.683  0.00  0.00    +0.000 NA
ATOM     26  C   UNL     1      52.912   7.178   9.935  0.00  0.00    +0.000 A 
ATOM     27  C   UNL     1      51.559   7.243  10.268  0.00  0.00    +0.000 A 
BRANCH  26  28
ATOM     28  C   UNL     1      53.338   6.457   8.694  0.00  0.00    +0.000 C 
ATOM     29  N   UNL     1      52.505   6.591   7.610  0.00  0.00    +0.000 N 
ATOM     30  O   UNL     1      54.359   5.787   8.633  0.00  0.00    +0.000 OA
ATOM     31  H   UNL     1      51.662   7.151   7.694  0.00  0.00    +0.000 HD
ATOM     32  H   UNL     1      52.725   6.121   6.748  0.00  0.00    +0.000 HD
ENDBRANCH  26  28
ENDBRANCH  21  22
ENDBRANCH   5  21
TORSDOF 11
ENDMDL
MODEL 6
REMARK VINA RESULT:    -6.279      1.886      2.773
REMARK INTER + INTRA:         -11.381
REMARK INTER:                 -10.048
REMARK INTRA:                  -1.333
REMARK UNBOUND:                -1.064
REMARK  Name = 
REMARK  14 active torsions:
REMARK  status: ('A' for Active; 'I' for Inactive)
REMARK    1  A    between atoms: C_1  and  C_2
REMARK    2  A    between atoms: C_2  and  C_3
REMARK    3  A    between atoms: C_2  and  O_10
REMARK    4  A    between atoms: C_3  and  C_4
REMARK    5  A    between atoms: C_4  and  C_5
REMARK    6  A    between atoms: C_5  and  C_6
REMARK    7  A    between atoms: C_6  and  N_7
REMARK    8  A    between atoms: N_7  and  C_8
REMARK    9  A    between atoms: N_7  and  C_9
REMARK   10  A    between atoms: O_10  and  C_11
REMARK   11  A    between atoms: C_11  and  C_13
REMARK   12  A    between atoms: N_17  and  C_18
REMARK   13  A    between atoms: C_18  and  C_19
REMARK   14  A    between atoms: C_23  and  C_24
REMARK                            x       y       z     vdW  Elec       q    Type
REMARK                         _______ _______ _______ _____ _____    ______ ____
ROOT
ATOM      1  C   UNL     1      47.099   6.148  13.038  0.00  0.00    +0.000 A 
ATOM      2  C   UNL     1      46.113   5.340  13.594  0.00  0.00    +0.000 A 
ATOM      3  C   UNL     1      45.087   4.860  12.768  0.00  0.00    +0.000 A 
ATOM      4  C   UNL     1      45.083   5.153  11.402  0.00  0.00    +0.000 A 
ATOM      5  N   UNL     1      44.072   4.614  10.613  0.00  0.00    +0.000 N 
ATOM      6  N   UNL     1      46.064   5.896  10.859  0.00  0.00    +0.000 NA
ATOM      7  C   UNL     1      47.020   6.406  11.681  0.00  0.00    +0.000 A 
ATOM      8  H   UNL     1      43.139   4.836  10.937  0.00  0.00    +0.000 HD
ENDROOT
BRANCH   1   9
ATOM      9  C   UNL     1      48.140   6.837  13.831  0.00  0.00    +0.000 C 
ATOM     10  O   UNL     1      48.953   7.592  13.324  0.00  0.00    +0.000 OA
BRANCH   9  11
ATOM     11  O   UNL     1      48.003   6.578  15.159  0.00  0.00    +0.000 OA
BRANCH  11  13
ATOM     12  C   UNL     1      49.219   7.972  16.645  0.00  0.00    +0.000 C 
ATOM     13  C   UNL     1      49.228   6.629  15.918  0.00  0.00    +0.000 C 
BRANCH  13  14
ATOM     14  C   UNL     1      49.281   5.494  16.947  0.00  0.00    +0.000 C 
BRANCH  14  15
ATOM     15  C   UNL     1      47.920   4.847  17.214  0.00  0.00    +0.000 C 
BRANCH  15  16
ATOM     16  C   UNL     1      47.332   5.401  18.518  0.00  0.00    +0.000 C 
BRANCH  16  17
ATOM     17  C   UNL     1      48.320   5.295  19.685  0.00  0.00    +0.000 C 
BRANCH  17  18
ATOM     18  N   UNL     1      48.499   6.567  20.410  0.00  0.00    +0.000 NA
ATOM     19  C   UNL     1      49.865   7.086  20.298  0.00  0.00    +0.000 C 
ATOM     20  C   UNL     1      47.556   7.565  19.897  0.00  0.00    +0.000 C 
ENDBRANCH  17  18
ENDBRANCH  16  17
ENDBRANCH  15  16
ENDBRANCH  14  15
ENDBRANCH  13  14
ENDBRANCH  11  13
ENDBRANCH   9  11
ENDBRANCH   1   9
BRANCH   5  21
ATOM     21  C   UNL     1      44.233   4.511   9.173  0.00  0.00    +0.000 C 
BRANCH  21  22
ATOM     22  C   UNL     1      45.033   3.330   8.673  0.00  0.00    +0.000 A 
ATOM     23  C   UNL     1      44.799   2.051   9.194  0.00  0.00    +0.000 A 
ATOM     24  C   UNL     1      45.478   0.961   8.670  0.00  0.00    +0.000 A 
ATOM     25  N   UNL     1      46.370   1.044   7.662  0.00  0.00    +0.000 NA
ATOM     26  C   UNL     1      46.591   2.293   7.162  0.00  0.00    +0.000 A 
ATOM     27  C   UNL     1      45.957   3.445   7.627  0.00  0.00    +0.000 A 
BRANCH  26  28
ATOM     28  C   UNL     1      47.570   2.388   6.033  0.00  0.00    +0.000 C 
ATOM     29  N   UNL     1      47.349   3.405   5.136  0.00  0.00    +0.000 N 
ATOM     30  O   UNL     1      48.510   1.618   5.903  0.00  0.00    +0.000 OA
ATOM     31  H   UNL     1      46.557   4.025   5.270  0.00  0.00    +0.000 HD
ATOM     32  H   UNL     1      47.962   3.518   4.346  0.00  0.00    +0.000 HD
ENDBRANCH  26  28
ENDBRANCH  21  22
ENDBRANCH   5  21
TORSDOF 11
ENDMDL
MODEL 7
REMARK VINA RESULT:    -6.203      1.942      3.198
REMARK INTER + INTRA:         -11.256
REMARK INTER:                 -10.449
REMARK INTRA:                  -0.807
REMARK UNBOUND:                -1.064
REMARK  Name = 
REMARK  14 active torsions:
REMARK  status: ('A' for Active; 'I' for Inactive)
REMARK    1  A    between atoms: C_1  and  C_2
REMARK    2  A    between atoms: C_2  and  C_3
REMARK    3  A    between atoms: C_2  and  O_10
REMARK    4  A    between atoms: C_3  and  C_4
REMARK    5  A    between atoms: C_4  and  C_5
REMARK    6  A    between atoms: C_5  and  C_6
REMARK    7  A    between atoms: C_6  and  N_7
REMARK    8  A    between atoms: N_7  and  C_8
REMARK    9  A    between atoms: N_7  and  C_9
REMARK   10  A    between atoms: O_10  and  C_11
REMARK   11  A    between atoms: C_11  and  C_13
REMARK   12  A    between atoms: N_17  and  C_18
REMARK   13  A    between atoms: C_18  and  C_19
REMARK   14  A    between atoms: C_23  and  C_24
REMARK                            x       y       z     vdW  Elec       q    Type
REMARK                         _______ _______ _______ _____ _____    ______ ____
ROOT
ATOM      1  C   UNL     1      47.580   6.103  14.342  0.00  0.00    +0.000 A 
ATOM      2  C   UNL     1      47.684   7.251  13.564  0.00  0.00    +0.000 A 
ATOM      3  C   UNL     1      47.086   7.265  12.297  0.00  0.00    +0.000 A 
ATOM      4  C   UNL     1      46.361   6.160  11.844  0.00  0.00    +0.000 A 
ATOM      5  N   UNL     1      45.744   6.238  10.601  0.00  0.00    +0.000 N 
ATOM      6  N   UNL     1      46.222   5.069  12.619  0.00  0.00    +0.000 NA
ATOM      7  C   UNL     1      46.858   5.045  13.821  0.00  0.00    +0.000 A 
ATOM      8  H   UNL     1      46.376   6.471   9.844  0.00  0.00    +0.000 HD
ENDROOT
BRANCH   1   9
ATOM      9  C   UNL     1      48.293   5.912  15.624  0.00  0.00    +0.000 C 
ATOM     10  O   UNL     1      48.556   6.841  16.369  0.00  0.00    +0.000 OA
BRANCH   9  11
ATOM     11  O   UNL     1      48.522   4.594  15.870  0.00  0.00    +0.000 OA
BRANCH  11  13
ATOM     12  C   UNL     1      47.813   2.973  17.452  0.00  0.00    +0.000 C 
ATOM     13  C   UNL     1      48.634   4.247  17.266  0.00  0.00    +0.000 C 
BRANCH  13  14
ATOM     14  C   UNL     1      50.093   3.971  17.645  0.00  0.00    +0.000 C 
BRANCH  14  15
ATOM     15  C   UNL     1      50.526   2.525  17.395  0.00  0.00    +0.000 C 
BRANCH  15  16
ATOM     16  C   UNL     1      51.999   2.352  17.786  0.00  0.00    +0.000 C 
BRANCH  16  17
ATOM     17  C   UNL     1      52.460   0.896  17.661  0.00  0.00    +0.000 C 
BRANCH  17  18
ATOM     18  N   UNL     1      53.925   0.759  17.549  0.00  0.00    +0.000 NA
ATOM     19  C   UNL     1      54.641   1.646  18.471  0.00  0.00    +0.000 C 
ATOM     20  C   UNL     1      54.313  -0.630  17.809  0.00  0.00    +0.000 C 
ENDBRANCH  17  18
ENDBRANCH  16  17
ENDBRANCH  15  16
ENDBRANCH  14  15
ENDBRANCH  13  14
ENDBRANCH  11  13
ENDBRANCH   9  11
ENDBRANCH   1   9
BRANCH   5  21
ATOM     21  C   UNL     1      44.653   5.343  10.258  0.00  0.00    +0.000 C 
BRANCH  21  22
ATOM     22  C   UNL     1      45.037   4.057   9.561  0.00  0.00    +0.000 A 
ATOM     23  C   UNL     1      44.362   2.867   9.859  0.00  0.00    +0.000 A 
ATOM     24  C   UNL     1      44.664   1.711   9.155  0.00  0.00    +0.000 A 
ATOM     25  N   UNL     1      45.584   1.648   8.171  0.00  0.00    +0.000 NA
ATOM     26  C   UNL     1      46.235   2.813   7.888  0.00  0.00    +0.000 A 
ATOM     27  C   UNL     1      45.999   4.020   8.545  0.00  0.00    +0.000 A 
BRANCH  26  28
ATOM     28  C   UNL     1      47.247   2.751   6.786  0.00  0.00    +0.000 C 
ATOM     29  N   UNL     1      46.993   3.551   5.698  0.00  0.00    +0.000 N 
ATOM     30  O   UNL     1      48.240   2.041   6.835  0.00  0.00    +0.000 OA
ATOM     31  H   UNL     1      46.157   4.127   5.687  0.00  0.00    +0.000 HD
ATOM     32  H   UNL     1      47.625   3.549   4.916  0.00  0.00    +0.000 HD
ENDBRANCH  26  28
ENDBRANCH  21  22
ENDBRANCH   5  21
TORSDOF 11
ENDMDL
MODEL 8
REMARK VINA RESULT:    -6.101      2.456      8.992
REMARK INTER + INTRA:         -11.089
REMARK INTER:                 -10.486
REMARK INTRA:                  -0.603
REMARK UNBOUND:                -1.064
REMARK  Name = 
REMARK  14 active torsions:
REMARK  status: ('A' for Active; 'I' for Inactive)
REMARK    1  A    between atoms: C_1  and  C_2
REMARK    2  A    between atoms: C_2  and  C_3
REMARK    3  A    between atoms: C_2  and  O_10
REMARK    4  A    between atoms: C_3  and  C_4
REMARK    5  A    between atoms: C_4  and  C_5
REMARK    6  A    between atoms: C_5  and  C_6
REMARK    7  A    between atoms: C_6  and  N_7
REMARK    8  A    between atoms: N_7  and  C_8
REMARK    9  A    between atoms: N_7  and  C_9
REMARK   10  A    between atoms: O_10  and  C_11
REMARK   11  A    between atoms: C_11  and  C_13
REMARK   12  A    between atoms: N_17  and  C_18
REMARK   13  A    between atoms: C_18  and  C_19
REMARK   14  A    between atoms: C_23  and  C_24
REMARK                            x       y       z     vdW  Elec       q    Type
REMARK                         _______ _______ _______ _____ _____    ______ ____
ROOT
ATOM      1  C   UNL     1      46.764   5.853  13.336  0.00  0.00    +0.000 A 
ATOM      2  C   UNL     1      46.195   4.745  13.953  0.00  0.00    +0.000 A 
ATOM      3  C   UNL     1      46.816   4.210  15.089  0.00  0.00    +0.000 A 
ATOM      4  C   UNL     1      47.964   4.809  15.616  0.00  0.00    +0.000 A 
ATOM      5  N   UNL     1      48.518   4.273  16.773  0.00  0.00    +0.000 N 
ATOM      6  N   UNL     1      48.485   5.910  15.044  0.00  0.00    +0.000 NA
ATOM      7  C   UNL     1      47.907   6.383  13.907  0.00  0.00    +0.000 A 
ATOM      8  H   UNL     1      48.740   3.288  16.701  0.00  0.00    +0.000 HD
ENDROOT
BRANCH   1   9
ATOM      9  C   UNL     1      46.291   6.412  12.050  0.00  0.00    +0.000 C 
ATOM     10  O   UNL     1      46.579   7.539  11.683  0.00  0.00    +0.000 OA
BRANCH   9  11
ATOM     11  O   UNL     1      45.591   5.488  11.338  0.00  0.00    +0.000 OA
BRANCH  11  13
ATOM     12  C   UNL     1      43.419   6.437  11.223  0.00  0.00    +0.000 C 
ATOM     13  C   UNL     1      44.237   5.275  11.784  0.00  0.00    +0.000 C 
BRANCH  13  14
ATOM     14  C   UNL     1      43.683   3.954  11.239  0.00  0.00    +0.000 C 
BRANCH  14  15
ATOM     15  C   UNL     1      44.766   3.006  10.718  0.00  0.00    +0.000 C 
BRANCH  15  16
ATOM     16  C   UNL     1      44.535   2.730   9.227  0.00  0.00    +0.000 C 
BRANCH  16  17
ATOM     17  C   UNL     1      45.608   1.805   8.641  0.00  0.00    +0.000 C 
BRANCH  17  18
ATOM     18  N   UNL     1      46.224   2.338   7.411  0.00  0.00    +0.000 NA
ATOM     19  C   UNL     1      46.453   3.784   7.482  0.00  0.00    +0.000 C 
ATOM     20  C   UNL     1      47.497   1.656   7.161  0.00  0.00    +0.000 C 
ENDBRANCH  17  18
ENDBRANCH  16  17
ENDBRANCH  15  16
ENDBRANCH  14  15
ENDBRANCH  13  14
ENDBRANCH  11  13
ENDBRANCH   9  11
ENDBRANCH   1   9
BRANCH   5  21
ATOM     21  C   UNL     1      49.413   5.063  17.600  0.00  0.00    +0.000 C 
BRANCH  21  22
ATOM     22  C   UNL     1      50.725   4.412  17.975  0.00  0.00    +0.000 A 
ATOM     23  C   UNL     1      51.641   5.093  18.787  0.00  0.00    +0.000 A 
ATOM     24  C   UNL     1      52.803   4.456  19.195  0.00  0.00    +0.000 A 
ATOM     25  N   UNL     1      53.125   3.189  18.860  0.00  0.00    +0.000 NA
ATOM     26  C   UNL     1      52.226   2.536  18.069  0.00  0.00    +0.000 A 
ATOM     27  C   UNL     1      51.035   3.096  17.611  0.00  0.00    +0.000 A 
BRANCH  26  28
ATOM     28  C   UNL     1      52.571   1.124  17.708  0.00  0.00    +0.000 C 
ATOM     29  N   UNL     1      51.674   0.167  18.116  0.00  0.00    +0.000 N 
ATOM     30  O   UNL     1      53.582   0.825  17.089  0.00  0.00    +0.000 OA
ATOM     31  H   UNL     1      50.845   0.448  18.632  0.00  0.00    +0.000 HD
ATOM     32  H   UNL     1      51.851  -0.803  17.918  0.00  0.00    +0.000 HD
ENDBRANCH  26  28
ENDBRANCH  21  22
ENDBRANCH   5  21
TORSDOF 11
ENDMDL
MODEL 9
REMARK VINA RESULT:    -5.824      2.341      3.774
REMARK INTER + INTRA:         -10.634
REMARK INTER:                  -9.313
REMARK INTRA:                  -1.321
REMARK UNBOUND:                -1.064
REMARK  Name = 
REMARK  14 active torsions:
REMARK  status: ('A' for Active; 'I' for Inactive)
REMARK    1  A    between atoms: C_1  and  C_2
REMARK    2  A    between atoms: C_2  and  C_3
REMARK    3  A    between atoms: C_2  and  O_10
REMARK    4  A    between atoms: C_3  and  C_4
REMARK    5  A    between atoms: C_4  and  C_5
REMARK    6  A    between atoms: C_5  and  C_6
REMARK    7  A    between atoms: C_6  and  N_7
REMARK    8  A    between atoms: N_7  and  C_8
REMARK    9  A    between atoms: N_7  and  C_9
REMARK   10  A    between atoms: O_10  and  C_11
REMARK   11  A    between atoms: C_11  and  C_13
REMARK   12  A    between atoms: N_17  and  C_18
REMARK   13  A    between atoms: C_18  and  C_19
REMARK   14  A    between atoms: C_23  and  C_24
REMARK                            x       y       z     vdW  Elec       q    Type
REMARK                         _______ _______ _______ _____ _____    ______ ____
ROOT
ATOM      1  C   UNL     1      49.865   7.760  13.936  0.00  0.00    +0.000 A 
ATOM      2  C   UNL     1      49.932   8.164  12.606  0.00  0.00    +0.000 A 
ATOM      3  C   UNL     1      48.848   7.893  11.762  0.00  0.00    +0.000 A 
ATOM      4  C   UNL     1      47.702   7.268  12.260  0.00  0.00    +0.000 A 
ATOM      5  N   UNL     1      46.631   7.064  11.396  0.00  0.00    +0.000 N 
ATOM      6  N   UNL     1      47.620   6.922  13.557  0.00  0.00    +0.000 NA
ATOM      7  C   UNL     1      48.703   7.135  14.352  0.00  0.00    +0.000 A 
ATOM      8  H   UNL     1      46.874   6.549  10.558  0.00  0.00    +0.000 HD
ENDROOT
BRANCH   1   9
ATOM      9  C   UNL     1      50.999   7.851  14.881  0.00  0.00    +0.000 C 
ATOM     10  O   UNL     1      52.148   8.018  14.507  0.00  0.00    +0.000 OA
BRANCH   9  11
ATOM     11  O   UNL     1      50.571   7.810  16.171  0.00  0.00    +0.000 OA
BRANCH  11  13
ATOM     12  C   UNL     1      51.266   7.438  18.410  0.00  0.00    +0.000 C 
ATOM     13  C   UNL     1      51.242   6.842  17.003  0.00  0.00    +0.000 C 
BRANCH  13  14
ATOM     14  C   UNL     1      50.476   5.515  17.026  0.00  0.00    +0.000 C 
BRANCH  14  15
ATOM     15  C   UNL     1      50.437   4.856  18.408  0.00  0.00    +0.000 C 
BRANCH  15  16
ATOM     16  C   UNL     1      48.992   4.488  18.763  0.00  0.00    +0.000 C 
BRANCH  16  17
ATOM     17  C   UNL     1      47.982   5.140  17.811  0.00  0.00    +0.000 C 
BRANCH  17  18
ATOM     18  N   UNL     1      47.047   4.172  17.206  0.00  0.00    +0.000 NA
ATOM     19  C   UNL     1      47.120   4.164  15.743  0.00  0.00    +0.000 C 
ATOM     20  C   UNL     1      47.331   2.827  17.716  0.00  0.00    +0.000 C 
ENDBRANCH  17  18
ENDBRANCH  16  17
ENDBRANCH  15  16
ENDBRANCH  14  15
ENDBRANCH  13  14
ENDBRANCH  11  13
ENDBRANCH   9  11
ENDBRANCH   1   9
BRANCH   5  21
ATOM     21  C   UNL     1      45.295   6.830  11.915  0.00  0.00    +0.000 C 
BRANCH  21  22
ATOM     22  C   UNL     1      44.732   5.442  11.711  0.00  0.00    +0.000 A 
ATOM     23  C   UNL     1      43.938   4.853  12.703  0.00  0.00    +0.000 A 
ATOM     24  C   UNL     1      43.357   3.615  12.472  0.00  0.00    +0.000 A 
ATOM     25  N   UNL     1      43.501   2.918  11.326  0.00  0.00    +0.000 NA
ATOM     26  C   UNL     1      44.276   3.500  10.367  0.00  0.00    +0.000 A 
ATOM     27  C   UNL     1      44.900   4.739  10.512  0.00  0.00    +0.000 A 
BRANCH  26  28
ATOM     28  C   UNL     1      44.426   2.737   9.088  0.00  0.00    +0.000 C 
ATOM     29  N   UNL     1      44.376   3.486   7.937  0.00  0.00    +0.000 N 
ATOM     30  O   UNL     1      44.584   1.525   9.052  0.00  0.00    +0.000 OA
ATOM     31  H   UNL     1      44.240   4.490   8.001  0.00  0.00    +0.000 HD
ATOM     32  H   UNL     1      44.458   3.035   7.042  0.00  0.00    +0.000 HD
ENDBRANCH  26  28
ENDBRANCH  21  22
ENDBRANCH   5  21
TORSDOF 11
ENDMDL
