MODEL 1
REMARK VINA RESULT:    -7.775      0.000      0.000
REMARK INTER + INTRA:         -10.083
REMARK INTER:                  -9.821
REMARK INTRA:                  -0.262
REMARK UNBOUND:                -0.262
REMARK  Name = 
REMARK  5 active torsions:
REMARK  status: ('A' for Active; 'I' for Inactive)
REMARK    1  A    between atoms: N_1  and  C_2
REMARK    2  A    between atoms: C_2  and  C_3
REMARK    3  A    between atoms: C_6  and  C_7
REMARK    4  A    between atoms: C_7  and  N_8
REMARK    5  A    between atoms: C_13  and  C_14
REMARK                            x       y       z     vdW  Elec       q    Type
REMARK                         _______ _______ _______ _____ _____    ______ ____
ROOT
ATOM      1  N   UNL     1      44.035   4.529  10.530  0.00  0.00    +0.000 N 
ATOM      2  C   UNL     1      43.388   3.484  11.144  0.00  0.00    +0.000 A 
ATOM      3  C   UNL     1      43.926   2.314  10.662  0.00  0.00    +0.000 A 
ATOM      4  C   UNL     1      44.857   2.657   9.646  0.00  0.00    +0.000 A 
ATOM      5  C   UNL     1      45.670   1.893   8.786  0.00  0.00    +0.000 A 
ATOM      6  C   UNL     1      46.461   2.538   7.824  0.00  0.00    +0.000 A 
ATOM      7  C   UNL     1      46.467   3.936   7.752  0.00  0.00    +0.000 A 
ATOM      8  C   UNL     1      45.695   4.714   8.620  0.00  0.00    +0.000 A 
ATOM      9  C   UNL     1      44.886   4.050   9.555  0.00  0.00    +0.000 A 
ENDROOT
BRANCH   6  10
ATOM     10  C   UNL     1      47.292   1.786   6.843  0.00  0.00    +0.000 C 
ATOM     11  N   UNL     1      48.331   2.428   6.236  0.00  0.00    +0.000 N 
ATOM     12  O   UNL     1      47.067   0.604   6.582  0.00  0.00    +0.000 OA
ATOM     13  H   UNL     1      48.608   3.379   6.412  0.00  0.00    +0.000 HD
ATOM     14  H   UNL     1      48.898   1.881   5.602  0.00  0.00    +0.000 HD
ENDBRANCH   6  10
BRANCH   1  15
ATOM     15  C   UNL     1      43.869   5.928  10.895  0.00  0.00    +0.000 C 
BRANCH  15  19
ATOM     16  C   UNL     1      47.378   6.201  12.678  0.00  0.00    +0.000 C 
ATOM     17  C   UNL     1      46.555   4.913  12.545  0.00  0.00    +0.000 C 
ATOM     18  C   UNL     1      45.104   5.084  12.985  0.00  0.00    +0.000 C 
ATOM     19  C   UNL     1      44.374   6.264  12.314  0.00  0.00    +0.000 C 
ATOM     20  C   UNL     1      45.224   7.546  12.288  0.00  0.00    +0.000 C 
ATOM     21  C   UNL     1      46.685   7.328  11.897  0.00  0.00    +0.000 C 
BRANCH  16  22
ATOM     22  C   UNL     1      47.666   6.609  14.140  0.00  0.00    +0.000 C 
BRANCH  22  23
ATOM     23  N   UNL     1      47.939   5.459  14.999  0.00  0.00    +0.000 NA
ATOM     24  H   UNL     1      47.666   4.603  14.515  0.00  0.00    +0.000 HD
ATOM     25  H   UNL     1      47.369   5.503  15.843  0.00  0.00    +0.000 HD
ENDBRANCH  22  23
ENDBRANCH  16  22
ENDBRANCH  15  19
ENDBRANCH   1  15
TORSDOF 5
ENDMDL
MODEL 2
REMARK VINA RESULT:    -7.707      1.198      1.373
REMARK INTER + INTRA:          -9.997
REMARK INTER:                  -9.219
REMARK INTRA:                  -0.778
REMARK UNBOUND:                -0.262
REMARK  Name = 
REMARK  5 active torsions:
REMARK  status: ('A' for Active; 'I' for Inactive)
REMARK    1  A    between atoms: N_1  and  C_2
REMARK    2  A    between atoms: C_2  and  C_3
REMARK    3  A    between atoms: C_6  and  C_7
REMARK    4  A    between atoms: C_7  and  N_8
REMARK    5  A    between atoms: C_13  and  C_14
REMARK                            x       y       z     vdW  Elec       q    Type
REMARK                         _______ _______ _______ _____ _____    ______ ____
ROOT
ATOM      1  N   UNL     1      44.390   4.733  10.462  0.00  0.00    +0.000 N 
ATOM      2  C   UNL     1      43.666   3.726  11.053  0.00  0.00    +0.000 A 
ATOM      3  C   UNL     1      44.072   2.535  10.498  0.00  0.00    +0.000 A 
ATOM      4  C   UNL     1      44.996   2.837   9.463  0.00  0.00    +0.000 A 
ATOM      5  C   UNL     1      45.700   2.042   8.539  0.00  0.00    +0.000 A 
ATOM      6  C   UNL     1      46.517   2.655   7.577  0.00  0.00    +0.000 A 
ATOM      7  C   UNL     1      46.656   4.048   7.568  0.00  0.00    +0.000 A 
ATOM      8  C   UNL     1      45.993   4.852   8.500  0.00  0.00    +0.000 A 
ATOM      9  C   UNL     1      45.157   4.223   9.434  0.00  0.00    +0.000 A 
ENDROOT
BRANCH   6  10
ATOM     10  C   UNL     1      47.237   1.876   6.531  0.00  0.00    +0.000 C 
ATOM     11  N   UNL     1      48.035   2.543   5.650  0.00  0.00    +0.000 N 
ATOM     12  O   UNL     1      47.134   0.651   6.457  0.00  0.00    +0.000 OA
ATOM     13  H   UNL     1      48.206   3.535   5.657  0.00  0.00    +0.000 HD
ATOM     14  H   UNL     1      48.539   1.983   4.975  0.00  0.00    +0.000 HD
ENDBRANCH   6  10
BRANCH   1  15
ATOM     15  C   UNL     1      44.373   6.123  10.896  0.00  0.00    +0.000 C 
BRANCH  15  19
ATOM     16  C   UNL     1      47.420   8.221  12.267  0.00  0.00    +0.000 C 
ATOM     17  C   UNL     1      47.513   6.797  11.705  0.00  0.00    +0.000 C 
ATOM     18  C   UNL     1      46.494   5.844  12.322  0.00  0.00    +0.000 C 
ATOM     19  C   UNL     1      45.039   6.352  12.268  0.00  0.00    +0.000 C 
ATOM     20  C   UNL     1      44.915   7.829  12.681  0.00  0.00    +0.000 C 
ATOM     21  C   UNL     1      45.986   8.744  12.089  0.00  0.00    +0.000 C 
BRANCH  16  22
ATOM     22  C   UNL     1      47.899   8.347  13.730  0.00  0.00    +0.000 C 
BRANCH  22  23
ATOM     23  N   UNL     1      47.858   9.724  14.217  0.00  0.00    +0.000 NA
ATOM     24  H   UNL     1      48.772  10.157  14.084  0.00  0.00    +0.000 HD
ATOM     25  H   UNL     1      47.678   9.742  15.220  0.00  0.00    +0.000 HD
ENDBRANCH  22  23
ENDBRANCH  16  22
ENDBRANCH  15  19
ENDBRANCH   1  15
TORSDOF 5
ENDMDL
MODEL 3
REMARK VINA RESULT:    -6.100      4.300      8.261
REMARK INTER + INTRA:          -7.967
REMARK INTER:                  -7.405
REMARK INTRA:                  -0.562
REMARK UNBOUND:                -0.262
REMARK  Name = 
REMARK  5 active torsions:
REMARK  status: ('A' for Active; 'I' for Inactive)
REMARK    1  A    between atoms: N_1  and  C_2
REMARK    2  A    between atoms: C_2  and  C_3
REMARK    3  A    between atoms: C_6  and  C_7
REMARK    4  A    between atoms: C_7  and  N_8
REMARK    5  A    between atoms: C_13  and  C_14
REMARK                            x       y       z     vdW  Elec       q    Type
REMARK                         _______ _______ _______ _____ _____    ______ ____
ROOT
ATOM      1  N   UNL     1      48.210   6.454  14.425  0.00  0.00    +0.000 N 
ATOM      2  C   UNL     1      48.819   7.681  14.522  0.00  0.00    +0.000 A 
ATOM      3  C   UNL     1      49.354   7.787  15.785  0.00  0.00    +0.000 A 
ATOM      4  C   UNL     1      48.965   6.630  16.512  0.00  0.00    +0.000 A 
ATOM      5  C   UNL     1      49.179   6.210  17.839  0.00  0.00    +0.000 A 
ATOM      6  C   UNL     1      48.604   5.012  18.289  0.00  0.00    +0.000 A 
ATOM      7  C   UNL     1      47.857   4.224  17.405  0.00  0.00    +0.000 A 
ATOM      8  C   UNL     1      47.664   4.605  16.074  0.00  0.00    +0.000 A 
ATOM      9  C   UNL     1      48.220   5.822  15.652  0.00  0.00    +0.000 A 
ENDROOT
BRANCH   6  10
ATOM     10  C   UNL     1      48.737   4.544  19.697  0.00  0.00    +0.000 C 
ATOM     11  N   UNL     1      48.442   3.245  19.987  0.00  0.00    +0.000 N 
ATOM     12  O   UNL     1      49.116   5.300  20.592  0.00  0.00    +0.000 OA
ATOM     13  H   UNL     1      48.159   2.550  19.317  0.00  0.00    +0.000 HD
ATOM     14  H   UNL     1      48.576   2.948  20.945  0.00  0.00    +0.000 HD
ENDBRANCH   6  10
BRANCH   1  15
ATOM     15  C   UNL     1      47.673   5.897  13.191  0.00  0.00    +0.000 C 
BRANCH  15  19
ATOM     16  C   UNL     1      44.859   4.478  10.817  0.00  0.00    +0.000 C 
ATOM     17  C   UNL     1      45.711   5.722  10.528  0.00  0.00    +0.000 C 
ATOM     18  C   UNL     1      45.745   6.705  11.695  0.00  0.00    +0.000 C 
ATOM     19  C   UNL     1      46.148   6.074  13.043  0.00  0.00    +0.000 C 
ATOM     20  C   UNL     1      45.429   4.740  13.309  0.00  0.00    +0.000 C 
ATOM     21  C   UNL     1      45.365   3.805  12.102  0.00  0.00    +0.000 C 
BRANCH  16  22
ATOM     22  C   UNL     1      43.342   4.761  10.875  0.00  0.00    +0.000 C 
BRANCH  22  23
ATOM     23  N   UNL     1      42.590   3.661  11.476  0.00  0.00    +0.000 NA
ATOM     24  H   UNL     1      41.614   3.722  11.188  0.00  0.00    +0.000 HD
ATOM     25  H   UNL     1      42.593   3.742  12.493  0.00  0.00    +0.000 HD
ENDBRANCH  22  23
ENDBRANCH  16  22
ENDBRANCH  15  19
ENDBRANCH   1  15
TORSDOF 5
ENDMDL
MODEL 4
REMARK VINA RESULT:    -6.010      3.365      5.783
REMARK INTER + INTRA:          -7.853
REMARK INTER:                  -7.223
REMARK INTRA:                  -0.630
REMARK UNBOUND:                -0.262
REMARK  Name = 
REMARK  5 active torsions:
REMARK  status: ('A' for Active; 'I' for Inactive)
REMARK    1  A    between atoms: N_1  and  C_2
REMARK    2  A    between atoms: C_2  and  C_3
REMARK    3  A    between atoms: C_6  and  C_7
REMARK    4  A    between atoms: C_7  and  N_8
REMARK    5  A    between atoms: C_13  and  C_14
REMARK                            x       y       z     vdW  Elec       q    Type
REMARK                         _______ _______ _______ _____ _____    ______ ____
ROOT
ATOM      1  N   UNL     1      47.810   6.380  14.021  0.00  0.00    +0.000 N 
ATOM      2  C   UNL     1      47.755   7.683  13.590  0.00  0.00    +0.000 A 
ATOM      3  C   UNL     1      46.703   7.791  12.710  0.00  0.00    +0.000 A 
ATOM      4  C   UNL     1      46.168   6.489  12.520  0.00  0.00    +0.000 A 
ATOM      5  C   UNL     1      45.127   5.983  11.718  0.00  0.00    +0.000 A 
ATOM      6  C   UNL     1      44.869   4.605  11.706  0.00  0.00    +0.000 A 
ATOM      7  C   UNL     1      45.619   3.749  12.520  0.00  0.00    +0.000 A 
ATOM      8  C   UNL     1      46.632   4.236  13.351  0.00  0.00    +0.000 A 
ATOM      9  C   UNL     1      46.897   5.613  13.326  0.00  0.00    +0.000 A 
ENDROOT
BRANCH   6  10
ATOM     10  C   UNL     1      43.826   3.998  10.830  0.00  0.00    +0.000 C 
ATOM     11  N   UNL     1      43.754   4.393   9.527  0.00  0.00    +0.000 N 
ATOM     12  O   UNL     1      43.045   3.147  11.256  0.00  0.00    +0.000 OA
ATOM     13  H   UNL     1      44.371   5.055   9.086  0.00  0.00    +0.000 HD
ATOM     14  H   UNL     1      43.060   3.937   8.949  0.00  0.00    +0.000 HD
ENDBRANCH   6  10
BRANCH   1  15
ATOM     15  C   UNL     1      48.679   5.902  15.087  0.00  0.00    +0.000 C 
BRANCH  15  19
ATOM     16  C   UNL     1      49.640   4.589  18.682  0.00  0.00    +0.000 C 
ATOM     17  C   UNL     1      49.057   3.725  17.555  0.00  0.00    +0.000 C 
ATOM     18  C   UNL     1      47.806   4.331  16.925  0.00  0.00    +0.000 C 
ATOM     19  C   UNL     1      47.977   5.790  16.456  0.00  0.00    +0.000 C 
ATOM     20  C   UNL     1      48.696   6.665  17.498  0.00  0.00    +0.000 C 
ATOM     21  C   UNL     1      49.911   6.004  18.148  0.00  0.00    +0.000 C 
BRANCH  16  22
ATOM     22  C   UNL     1      48.773   4.614  19.960  0.00  0.00    +0.000 C 
BRANCH  22  23
ATOM     23  N   UNL     1      48.353   3.278  20.378  0.00  0.00    +0.000 NA
ATOM     24  H   UNL     1      47.831   3.346  21.252  0.00  0.00    +0.000 HD
ATOM     25  H   UNL     1      49.165   2.695  20.575  0.00  0.00    +0.000 HD
ENDBRANCH  22  23
ENDBRANCH  16  22
ENDBRANCH  15  19
ENDBRANCH   1  15
TORSDOF 5
ENDMDL
MODEL 5
REMARK VINA RESULT:    -5.819      3.394      5.312
REMARK INTER + INTRA:          -7.612
REMARK INTER:                  -6.968
REMARK INTRA:                  -0.644
REMARK UNBOUND:                -0.262
REMARK  Name = 
REMARK  5 active torsions:
REMARK  status: ('A' for Active; 'I' for Inactive)
REMARK    1  A    between atoms: N_1  and  C_2
REMARK    2  A    between atoms: C_2  and  C_3
REMARK    3  A    between atoms: C_6  and  C_7
REMARK    4  A    between atoms: C_7  and  N_8
REMARK    5  A    between atoms: C_13  and  C_14
REMARK                            x       y       z     vdW  Elec       q    Type
REMARK                         _______ _______ _______ _____ _____    ______ ____
ROOT
ATOM      1  N   UNL     1      47.576   6.358  13.924  0.00  0.00    +0.000 N 
ATOM      2  C   UNL     1      47.606   5.428  14.934  0.00  0.00    +0.000 A 
ATOM      3  C   UNL     1      46.899   4.326  14.511  0.00  0.00    +0.000 A 
ATOM      4  C   UNL     1      46.334   4.638  13.246  0.00  0.00    +0.000 A 
ATOM      5  C   UNL     1      45.496   3.929  12.364  0.00  0.00    +0.000 A 
ATOM      6  C   UNL     1      45.050   4.545  11.185  0.00  0.00    +0.000 A 
ATOM      7  C   UNL     1      45.472   5.844  10.876  0.00  0.00    +0.000 A 
ATOM      8  C   UNL     1      46.332   6.551  11.721  0.00  0.00    +0.000 A 
ATOM      9  C   UNL     1      46.743   5.930  12.910  0.00  0.00    +0.000 A 
ENDROOT
BRANCH   6  10
ATOM     10  C   UNL     1      44.111   3.875  10.243  0.00  0.00    +0.000 C 
ATOM     11  N   UNL     1      43.956   4.394   8.992  0.00  0.00    +0.000 N 
ATOM     12  O   UNL     1      43.489   2.863  10.567  0.00  0.00    +0.000 OA
ATOM     13  H   UNL     1      44.447   5.194   8.630  0.00  0.00    +0.000 HD
ATOM     14  H   UNL     1      43.339   3.896   8.363  0.00  0.00    +0.000 HD
ENDBRANCH   6  10
BRANCH   1  15
ATOM     15  C   UNL     1      48.350   7.592  13.918  0.00  0.00    +0.000 C 
BRANCH  15  19
ATOM     16  C   UNL     1      50.909  10.034  12.170  0.00  0.00    +0.000 C 
ATOM     17  C   UNL     1      49.736   9.336  11.468  0.00  0.00    +0.000 C 
ATOM     18  C   UNL     1      49.687   7.835  11.737  0.00  0.00    +0.000 C 
ATOM     19  C   UNL     1      49.725   7.458  13.231  0.00  0.00    +0.000 C 
ATOM     20  C   UNL     1      50.790   8.246  14.012  0.00  0.00    +0.000 C 
ATOM     21  C   UNL     1      50.848   9.736  13.676  0.00  0.00    +0.000 C 
BRANCH  16  22
ATOM     22  C   UNL     1      52.290   9.685  11.572  0.00  0.00    +0.000 C 
BRANCH  22  23
ATOM     23  N   UNL     1      52.327   9.840  10.119  0.00  0.00    +0.000 NA
ATOM     24  H   UNL     1      52.480  10.822   9.888  0.00  0.00    +0.000 HD
ATOM     25  H   UNL     1      51.428   9.587   9.712  0.00  0.00    +0.000 HD
ENDBRANCH  22  23
ENDBRANCH  16  22
ENDBRANCH  15  19
ENDBRANCH   1  15
TORSDOF 5
ENDMDL
MODEL 6
REMARK VINA RESULT:    -5.788      4.030      6.067
REMARK INTER + INTRA:          -7.572
REMARK INTER:                  -7.064
REMARK INTRA:                  -0.508
REMARK UNBOUND:                -0.262
REMARK  Name = 
REMARK  5 active torsions:
REMARK  status: ('A' for Active; 'I' for Inactive)
REMARK    1  A    between atoms: N_1  and  C_2
REMARK    2  A    between atoms: C_2  and  C_3
REMARK    3  A    between atoms: C_6  and  C_7
REMARK    4  A    between atoms: C_7  and  N_8
REMARK    5  A    between atoms: C_13  and  C_14
REMARK                            x       y       z     vdW  Elec       q    Type
REMARK                         _______ _______ _______ _____ _____    ______ ____
ROOT
ATOM      1  N   UNL     1      46.551   4.603  13.468  0.00  0.00    +0.000 N 
ATOM      2  C   UNL     1      45.790   3.598  12.924  0.00  0.00    +0.000 A 
ATOM      3  C   UNL     1      44.941   4.165  12.002  0.00  0.00    +0.000 A 
ATOM      4  C   UNL     1      45.118   5.572  12.066  0.00  0.00    +0.000 A 
ATOM      5  C   UNL     1      44.506   6.651  11.399  0.00  0.00    +0.000 A 
ATOM      6  C   UNL     1      44.868   7.965  11.728  0.00  0.00    +0.000 A 
ATOM      7  C   UNL     1      45.861   8.194  12.688  0.00  0.00    +0.000 A 
ATOM      8  C   UNL     1      46.506   7.136  13.336  0.00  0.00    +0.000 A 
ATOM      9  C   UNL     1      46.109   5.830  13.015  0.00  0.00    +0.000 A 
ENDROOT
BRANCH   6  10
ATOM     10  C   UNL     1      44.213   9.151  11.107  0.00  0.00    +0.000 C 
ATOM     11  N   UNL     1      42.919   9.041  10.691  0.00  0.00    +0.000 N 
ATOM     12  O   UNL     1      44.810  10.220  10.977  0.00  0.00    +0.000 OA
ATOM     13  H   UNL     1      42.345   8.221  10.788  0.00  0.00    +0.000 HD
ATOM     14  H   UNL     1      42.491   9.873  10.307  0.00  0.00    +0.000 HD
ENDBRANCH   6  10
BRANCH   1  15
ATOM     15  C   UNL     1      47.683   4.389  14.359  0.00  0.00    +0.000 C 
BRANCH  15  19
ATOM     16  C   UNL     1      49.571   3.974  17.799  0.00  0.00    +0.000 C 
ATOM     17  C   UNL     1      48.735   2.884  17.116  0.00  0.00    +0.000 C 
ATOM     18  C   UNL     1      47.350   3.369  16.695  0.00  0.00    +0.000 C 
ATOM     19  C   UNL     1      47.362   4.654  15.844  0.00  0.00    +0.000 C 
ATOM     20  C   UNL     1      48.307   5.729  16.410  0.00  0.00    +0.000 C 
ATOM     21  C   UNL     1      49.663   5.197  16.873  0.00  0.00    +0.000 C 
BRANCH  16  22
ATOM     22  C   UNL     1      49.064   4.358  19.207  0.00  0.00    +0.000 C 
BRANCH  22  23
ATOM     23  N   UNL     1      48.450   3.233  19.908  0.00  0.00    +0.000 NA
ATOM     24  H   UNL     1      47.465   3.171  19.650  0.00  0.00    +0.000 HD
ATOM     25  H   UNL     1      48.471   3.386  20.915  0.00  0.00    +0.000 HD
ENDBRANCH  22  23
ENDBRANCH  16  22
ENDBRANCH  15  19
ENDBRANCH   1  15
TORSDOF 5
ENDMDL
MODEL 7
REMARK VINA RESULT:    -5.495      4.161      7.351
REMARK INTER + INTRA:          -7.202
REMARK INTER:                  -6.631
REMARK INTRA:                  -0.572
REMARK UNBOUND:                -0.262
REMARK  Name = 
REMARK  5 active torsions:
REMARK  status: ('A' for Active; 'I' for Inactive)
REMARK    1  A    between atoms: N_1  and  C_2
REMARK    2  A    between atoms: C_2  and  C_3
REMARK    3  A    between atoms: C_6  and  C_7
REMARK    4  A    between atoms: C_7  and  N_8
REMARK    5  A    between atoms: C_13  and  C_14
REMARK                            x       y       z     vdW  Elec       q    Type
REMARK                         _______ _______ _______ _____ _____    ______ ____
ROOT
ATOM      1  N   UNL     1      46.938   8.077  12.847  0.00  0.00    +0.000 N 
ATOM      2  C   UNL     1      47.179   9.174  12.056  0.00  0.00    +0.000 A 
ATOM      3  C   UNL     1      48.499   9.527  12.215  0.00  0.00    +0.000 A 
ATOM      4  C   UNL     1      49.050   8.682  13.215  0.00  0.00    +0.000 A 
ATOM      5  C   UNL     1      50.322   8.602  13.815  0.00  0.00    +0.000 A 
ATOM      6  C   UNL     1      50.547   7.673  14.841  0.00  0.00    +0.000 A 
ATOM      7  C   UNL     1      49.521   6.806  15.233  0.00  0.00    +0.000 A 
ATOM      8  C   UNL     1      48.262   6.845  14.625  0.00  0.00    +0.000 A 
ATOM      9  C   UNL     1      48.046   7.801  13.623  0.00  0.00    +0.000 A 
ENDROOT
BRANCH   6  10
ATOM     10  C   UNL     1      51.849   7.583  15.562  0.00  0.00    +0.000 C 
ATOM     11  N   UNL     1      52.984   7.363  14.839  0.00  0.00    +0.000 N 
ATOM     12  O   UNL     1      51.917   7.715  16.784  0.00  0.00    +0.000 OA
ATOM     13  H   UNL     1      53.027   7.278  13.837  0.00  0.00    +0.000 HD
ATOM     14  H   UNL     1      53.856   7.343  15.352  0.00  0.00    +0.000 HD
ENDBRANCH   6  10
BRANCH   1  15
ATOM     15  C   UNL     1      45.705   7.304  12.828  0.00  0.00    +0.000 C 
BRANCH  15  19
ATOM     16  C   UNL     1      43.286   4.349  11.833  0.00  0.00    +0.000 C 
ATOM     17  C   UNL     1      43.955   4.517  13.204  0.00  0.00    +0.000 C 
ATOM     18  C   UNL     1      45.459   4.761  13.109  0.00  0.00    +0.000 C 
ATOM     19  C   UNL     1      45.854   5.916  12.169  0.00  0.00    +0.000 C 
ATOM     20  C   UNL     1      45.093   5.877  10.832  0.00  0.00    +0.000 C 
ATOM     21  C   UNL     1      43.601   5.575  10.962  0.00  0.00    +0.000 C 
BRANCH  16  22
ATOM     22  C   UNL     1      43.651   3.029  11.119  0.00  0.00    +0.000 C 
BRANCH  22  23
ATOM     23  N   UNL     1      42.980   1.870  11.705  0.00  0.00    +0.000 NA
ATOM     24  H   UNL     1      42.778   1.190  10.973  0.00  0.00    +0.000 HD
ATOM     25  H   UNL     1      42.080   2.142  12.099  0.00  0.00    +0.000 HD
ENDBRANCH  22  23
ENDBRANCH  16  22
ENDBRANCH  15  19
ENDBRANCH   1  15
TORSDOF 5
ENDMDL
MODEL 8
REMARK VINA RESULT:    -5.394      4.012      8.110
REMARK INTER + INTRA:          -7.075
REMARK INTER:                  -6.485
REMARK INTRA:                  -0.589
REMARK UNBOUND:                -0.262
REMARK  Name = 
REMARK  5 active torsions:
REMARK  status: ('A' for Active; 'I' for Inactive)
REMARK    1  A    between atoms: N_1  and  C_2
REMARK    2  A    between atoms: C_2  and  C_3
REMARK    3  A    between atoms: C_6  and  C_7
REMARK    4  A    between atoms: C_7  and  N_8
REMARK    5  A    between atoms: C_13  and  C_14
REMARK                            x       y       z     vdW  Elec       q    Type
REMARK                         _______ _______ _______ _____ _____    ______ ____
ROOT
ATOM      1  N   UNL     1      48.519   7.323  14.426  0.00  0.00    +0.000 N 
ATOM      2  C   UNL     1      49.529   8.198  14.105  0.00  0.00    +0.000 A 
ATOM      3  C   UNL     1      50.633   7.858  14.852  0.00  0.00    +0.000 A 
ATOM      4  C   UNL     1      50.250   6.810  15.731  0.00  0.00    +0.000 A 
ATOM      5  C   UNL     1      50.933   6.099  16.736  0.00  0.00    +0.000 A 
ATOM      6  C   UNL     1      50.248   5.135  17.490  0.00  0.00    +0.000 A 
ATOM      7  C   UNL     1      48.904   4.859  17.212  0.00  0.00    +0.000 A 
ATOM      8  C   UNL     1      48.218   5.529  16.194  0.00  0.00    +0.000 A 
ATOM      9  C   UNL     1      48.911   6.512  15.472  0.00  0.00    +0.000 A 
ENDROOT
BRANCH   6  10
ATOM     10  C   UNL     1      50.894   4.394  18.610  0.00  0.00    +0.000 C 
ATOM     11  N   UNL     1      50.350   4.487  19.857  0.00  0.00    +0.000 N 
ATOM     12  O   UNL     1      51.893   3.697  18.428  0.00  0.00    +0.000 OA
ATOM     13  H   UNL     1      49.519   5.003  20.091  0.00  0.00    +0.000 HD
ATOM     14  H   UNL     1      50.789   3.944  20.589  0.00  0.00    +0.000 HD
ENDBRANCH   6  10
BRANCH   1  15
ATOM     15  C   UNL     1      47.244   7.247  13.729  0.00  0.00    +0.000 C 
BRANCH  15  19
ATOM     16  C   UNL     1      44.385   5.472  11.668  0.00  0.00    +0.000 C 
ATOM     17  C   UNL     1      44.805   5.097  13.096  0.00  0.00    +0.000 C 
ATOM     18  C   UNL     1      46.311   4.901  13.243  0.00  0.00    +0.000 C 
ATOM     19  C   UNL     1      47.156   6.081  12.722  0.00  0.00    +0.000 C 
ATOM     20  C   UNL     1      46.676   6.593  11.353  0.00  0.00    +0.000 C 
ATOM     21  C   UNL     1      45.159   6.723  11.224  0.00  0.00    +0.000 C 
BRANCH  16  22
ATOM     22  C   UNL     1      44.530   4.317  10.652  0.00  0.00    +0.000 C 
BRANCH  22  23
ATOM     23  N   UNL     1      44.148   4.711   9.297  0.00  0.00    +0.000 NA
ATOM     24  H   UNL     1      44.773   4.266   8.626  0.00  0.00    +0.000 HD
ATOM     25  H   UNL     1      44.264   5.716   9.173  0.00  0.00    +0.000 HD
ENDBRANCH  22  23
ENDBRANCH  16  22
ENDBRANCH  15  19
ENDBRANCH   1  15
TORSDOF 5
ENDMDL
MODEL 9
REMARK VINA RESULT:    -5.273      3.206      6.413
REMARK INTER + INTRA:          -6.922
REMARK INTER:                  -7.211
REMARK INTRA:                   0.289
REMARK UNBOUND:                -0.262
REMARK  Name = 
REMARK  5 active torsions:
REMARK  status: ('A' for Active; 'I' for Inactive)
REMARK    1  A    between atoms: N_1  and  C_2
REMARK    2  A    between atoms: C_2  and  C_3
REMARK    3  A    between atoms: C_6  and  C_7
REMARK    4  A    between atoms: C_7  and  N_8
REMARK    5  A    between atoms: C_13  and  C_14
REMARK                            x       y       z     vdW  Elec       q    Type
REMARK                         _______ _______ _______ _____ _____    ______ ____
ROOT
ATOM      1  N   UNL     1      44.985   5.667  13.087  0.00  0.00    +0.000 N 
ATOM      2  C   UNL     1      45.959   4.769  13.450  0.00  0.00    +0.000 A 
ATOM      3  C   UNL     1      47.148   5.453  13.548  0.00  0.00    +0.000 A 
ATOM      4  C   UNL     1      46.909   6.789  13.129  0.00  0.00    +0.000 A 
ATOM      5  C   UNL     1      47.741   7.916  12.983  0.00  0.00    +0.000 A 
ATOM      6  C   UNL     1      47.207   9.111  12.480  0.00  0.00    +0.000 A 
ATOM      7  C   UNL     1      45.846   9.188  12.166  0.00  0.00    +0.000 A 
ATOM      8  C   UNL     1      44.995   8.091  12.338  0.00  0.00    +0.000 A 
ATOM      9  C   UNL     1      45.553   6.895  12.812  0.00  0.00    +0.000 A 
ENDROOT
BRANCH   6  10
ATOM     10  C   UNL     1      48.047  10.319  12.240  0.00  0.00    +0.000 C 
ATOM     11  N   UNL     1      47.703  11.488  12.851  0.00  0.00    +0.000 N 
ATOM     12  O   UNL     1      49.043  10.276  11.517  0.00  0.00    +0.000 OA
ATOM     13  H   UNL     1      46.929  11.608  13.483  0.00  0.00    +0.000 HD
ATOM     14  H   UNL     1      48.312  12.281  12.697  0.00  0.00    +0.000 HD
ENDBRANCH   6  10
BRANCH   1  15
ATOM     15  C   UNL     1      43.561   5.366  13.044  0.00  0.00    +0.000 C 
BRANCH  15  19
ATOM     16  C   UNL     1      45.220   3.306  10.116  0.00  0.00    +0.000 C 
ATOM     17  C   UNL     1      45.195   4.838  10.212  0.00  0.00    +0.000 C 
ATOM     18  C   UNL     1      43.801   5.396  10.485  0.00  0.00    +0.000 C 
ATOM     19  C   UNL     1      43.095   4.766  11.702  0.00  0.00    +0.000 C 
ATOM     20  C   UNL     1      43.222   3.233  11.730  0.00  0.00    +0.000 C 
ATOM     21  C   UNL     1      44.618   2.708  11.397  0.00  0.00    +0.000 C 
BRANCH  16  22
ATOM     22  C   UNL     1      44.537   2.749   8.847  0.00  0.00    +0.000 C 
BRANCH  22  23
ATOM     23  N   UNL     1      45.035   3.374   7.623  0.00  0.00    +0.000 NA
ATOM     24  H   UNL     1      46.035   3.193   7.534  0.00  0.00    +0.000 HD
ATOM     25  H   UNL     1      44.931   4.387   7.673  0.00  0.00    +0.000 HD
ENDBRANCH  22  23
ENDBRANCH  16  22
ENDBRANCH  15  19
ENDBRANCH   1  15
TORSDOF 5
ENDMDL
