MODEL 1
REMARK VINA RESULT:    -8.234      0.000      0.000
REMARK INTER + INTRA:         -12.285
REMARK INTER:                 -11.363
REMARK INTRA:                  -0.922
REMARK UNBOUND:                -0.922
REMARK  Name = 
REMARK  7 active torsions:
REMARK  status: ('A' for Active; 'I' for Inactive)
REMARK    1  A    between atoms: C_2  and  C_20
REMARK    2  A    between atoms: N_3  and  C_4
REMARK    3  A    between atoms: C_4  and  C_5
REMARK    4  A    between atoms: C_8  and  C_9
REMARK    5  A    between atoms: C_9  and  C_10
REMARK    6  A    between atoms: C_10  and  O_11
REMARK    7  A    between atoms: C_10  and  C_12
REMARK                            x       y       z     vdW  Elec       q    Type
REMARK                         _______ _______ _______ _____ _____    ______ ____
ROOT
ATOM      1  C   UNL     1      46.872   8.069  13.401  0.00  0.00    +0.000 C 
ENDROOT
BRANCH   1   2
ATOM      2  C   UNL     1      46.150   7.132  12.463  0.00  0.00    +0.000 A 
ATOM      3  C   UNL     1      46.730   6.793  11.247  0.00  0.00    +0.000 A 
ATOM      4  C   UNL     1      46.058   5.916  10.397  0.00  0.00    +0.000 A 
ATOM      5  C   UNL     1      44.813   5.407  10.772  0.00  0.00    +0.000 A 
ATOM      6  C   UNL     1      44.305   5.815  12.000  0.00  0.00    +0.000 A 
ATOM      7  N   UNL     1      44.937   6.661  12.846  0.00  0.00    +0.000 NA
BRANCH   5   8
ATOM      8  C   UNL     1      44.077   4.410   9.906  0.00  0.00    +0.000 C 
BRANCH   8   9
ATOM      9  C   UNL     1      44.757   3.026   9.791  0.00  0.00    +0.000 C 
BRANCH   9  10
ATOM     10  C   UNL     1      45.248   2.702   8.358  0.00  0.00    +0.000 C 
ATOM     11  C   UNL     1      46.201   1.494   8.300  0.00  0.00    +0.000 C 
ATOM     12  C   UNL     1      46.816   1.329   6.913  0.00  0.00    +0.000 C 
ATOM     13  C   UNL     1      47.432   2.639   6.454  0.00  0.00    +0.000 C 
ATOM     14  O   UNL     1      46.424   3.648   6.420  0.00  0.00    +0.000 OA
ATOM     15  C   UNL     1      45.922   3.935   7.728  0.00  0.00    +0.000 C 
ENDBRANCH   9  10
BRANCH   9  16
ATOM     16  O   UNL     1      43.862   1.999  10.225  0.00  0.00    +0.000 OA
ATOM     17  H   UNL     1      43.352   1.689   9.458  0.00  0.00    +0.000 HD
ENDBRANCH   9  16
ENDBRANCH   8   9
ENDBRANCH   5   8
ENDBRANCH   1   2
BRANCH   1  20
ATOM     18  O   UNL     1      49.359   6.795  13.566  0.00  0.00    +0.000 OA
ATOM     19  C   UNL     1      48.642   6.825  14.562  0.00  0.00    +0.000 C 
ATOM     20  N   UNL     1      47.393   7.386  14.562  0.00  0.00    +0.000 N 
ATOM     21  H   UNL     1      46.965   7.661  15.436  0.00  0.00    +0.000 HD
BRANCH  19  22
ATOM     22  C   UNL     1      49.058   6.211  15.821  0.00  0.00    +0.000 A 
ATOM     23  C   UNL     1      50.125   6.724  16.544  0.00  0.00    +0.000 A 
ATOM     24  S   UNL     1      50.429   5.869  17.992  0.00  0.00    +0.000 S 
ATOM     25  C   UNL     1      49.134   4.803  17.699  0.00  0.00    +0.000 A 
ATOM     26  N   UNL     1      48.816   3.818  18.581  0.00  0.00    +0.000 NA
ATOM     27  C   UNL     1      47.793   3.107  18.237  0.00  0.00    +0.000 A 
ATOM     28  N   UNL     1      47.066   3.277  17.091  0.00  0.00    +0.000 N 
ATOM     29  C   UNL     1      47.389   4.214  16.143  0.00  0.00    +0.000 A 
ATOM     30  O   UNL     1      46.794   4.256  15.074  0.00  0.00    +0.000 OA
ATOM     31  C   UNL     1      48.501   5.075  16.503  0.00  0.00    +0.000 A 
ATOM     32  H   UNL     1      46.296   2.667  16.862  0.00  0.00    +0.000 HD
ENDBRANCH  19  22
ENDBRANCH   1  20
TORSDOF 7
ENDMDL
MODEL 2
REMARK VINA RESULT:    -7.842      2.407      3.949
REMARK INTER + INTRA:         -11.745
REMARK INTER:                 -10.878
REMARK INTRA:                  -0.867
REMARK UNBOUND:                -0.922
REMARK  Name = 
REMARK  7 active torsions:
REMARK  status: ('A' for Active; 'I' for Inactive)
REMARK    1  A    between atoms: C_2  and  C_20
REMARK    2  A    between atoms: N_3  and  C_4
REMARK    3  A    between atoms: C_4  and  C_5
REMARK    4  A    between atoms: C_8  and  C_9
REMARK    5  A    between atoms: C_9  and  C_10
REMARK    6  A    between atoms: C_10  and  O_11
REMARK    7  A    between atoms: C_10  and  C_12
REMARK                            x       y       z     vdW  Elec       q    Type
REMARK                         _______ _______ _______ _____ _____    ______ ____
ROOT
ATOM      1  C   UNL     1      47.079   4.654  14.848  0.00  0.00    +0.000 C 
ENDROOT
BRANCH   1   2
ATOM      2  C   UNL     1      46.271   4.520  13.581  0.00  0.00    +0.000 A 
ATOM      3  C   UNL     1      45.869   5.662  12.897  0.00  0.00    +0.000 A 
ATOM      4  C   UNL     1      45.135   5.523  11.721  0.00  0.00    +0.000 A 
ATOM      5  C   UNL     1      44.803   4.247  11.257  0.00  0.00    +0.000 A 
ATOM      6  C   UNL     1      45.236   3.166  12.016  0.00  0.00    +0.000 A 
ATOM      7  N   UNL     1      45.953   3.271  13.159  0.00  0.00    +0.000 NA
BRANCH   5   8
ATOM      8  C   UNL     1      44.058   4.051   9.957  0.00  0.00    +0.000 C 
BRANCH   8   9
ATOM      9  C   UNL     1      44.908   4.268   8.685  0.00  0.00    +0.000 C 
BRANCH   9  10
ATOM     10  C   UNL     1      45.994   3.182   8.480  0.00  0.00    +0.000 C 
ATOM     11  C   UNL     1      46.797   3.361   7.179  0.00  0.00    +0.000 C 
ATOM     12  C   UNL     1      47.714   2.171   6.915  0.00  0.00    +0.000 C 
ATOM     13  C   UNL     1      46.925   0.875   6.993  0.00  0.00    +0.000 C 
ATOM     14  O   UNL     1      46.340   0.757   8.288  0.00  0.00    +0.000 OA
ATOM     15  C   UNL     1      45.364   1.777   8.520  0.00  0.00    +0.000 C 
ENDBRANCH   9  10
BRANCH   9  16
ATOM     16  O   UNL     1      45.532   5.554   8.721  0.00  0.00    +0.000 OA
ATOM     17  H   UNL     1      44.841   6.235   8.652  0.00  0.00    +0.000 HD
ENDBRANCH   9  16
ENDBRANCH   8   9
ENDBRANCH   5   8
ENDBRANCH   1   2
BRANCH   1  20
ATOM     18  O   UNL     1      49.284   5.289  16.453  0.00  0.00    +0.000 OA
ATOM     19  C   UNL     1      48.779   6.171  15.764  0.00  0.00    +0.000 C 
ATOM     20  N   UNL     1      47.673   5.963  14.983  0.00  0.00    +0.000 N 
ATOM     21  H   UNL     1      47.469   6.595  14.222  0.00  0.00    +0.000 HD
BRANCH  19  22
ATOM     22  C   UNL     1      49.301   7.536  15.767  0.00  0.00    +0.000 A 
ATOM     23  C   UNL     1      49.433   8.244  16.954  0.00  0.00    +0.000 A 
ATOM     24  S   UNL     1      50.080   9.809  16.734  0.00  0.00    +0.000 S 
ATOM     25  C   UNL     1      50.216   9.577  15.053  0.00  0.00    +0.000 A 
ATOM     26  N   UNL     1      50.733  10.541  14.245  0.00  0.00    +0.000 NA
ATOM     27  C   UNL     1      50.799  10.210  12.997  0.00  0.00    +0.000 A 
ATOM     28  N   UNL     1      50.387   9.014  12.477  0.00  0.00    +0.000 N 
ATOM     29  C   UNL     1      49.801   8.039  13.242  0.00  0.00    +0.000 A 
ATOM     30  O   UNL     1      49.330   7.033  12.726  0.00  0.00    +0.000 OA
ATOM     31  C   UNL     1      49.747   8.338  14.662  0.00  0.00    +0.000 A 
ATOM     32  H   UNL     1      50.434   8.827  11.487  0.00  0.00    +0.000 HD
ENDBRANCH  19  22
ENDBRANCH   1  20
TORSDOF 7
ENDMDL
MODEL 3
REMARK VINA RESULT:    -7.703      2.612      3.229
REMARK INTER + INTRA:         -11.552
REMARK INTER:                 -10.558
REMARK INTRA:                  -0.995
REMARK UNBOUND:                -0.922
REMARK  Name = 
REMARK  7 active torsions:
REMARK  status: ('A' for Active; 'I' for Inactive)
REMARK    1  A    between atoms: C_2  and  C_20
REMARK    2  A    between atoms: N_3  and  C_4
REMARK    3  A    between atoms: C_4  and  C_5
REMARK    4  A    between atoms: C_8  and  C_9
REMARK    5  A    between atoms: C_9  and  C_10
REMARK    6  A    between atoms: C_10  and  O_11
REMARK    7  A    between atoms: C_10  and  C_12
REMARK                            x       y       z     vdW  Elec       q    Type
REMARK                         _______ _______ _______ _____ _____    ______ ____
ROOT
ATOM      1  C   UNL     1      47.168   4.190  15.481  0.00  0.00    +0.000 C 
ENDROOT
BRANCH   1   2
ATOM      2  C   UNL     1      46.635   4.525  14.109  0.00  0.00    +0.000 A 
ATOM      3  C   UNL     1      47.078   5.672  13.460  0.00  0.00    +0.000 A 
ATOM      4  C   UNL     1      46.588   5.961  12.188  0.00  0.00    +0.000 A 
ATOM      5  C   UNL     1      45.654   5.108  11.594  0.00  0.00    +0.000 A 
ATOM      6  C   UNL     1      45.260   3.993  12.326  0.00  0.00    +0.000 A 
ATOM      7  N   UNL     1      45.722   3.686  13.561  0.00  0.00    +0.000 NA
BRANCH   5   8
ATOM      8  C   UNL     1      45.141   5.354  10.194  0.00  0.00    +0.000 C 
BRANCH   8   9
ATOM      9  C   UNL     1      44.682   4.085   9.440  0.00  0.00    +0.000 C 
BRANCH   9  10
ATOM     10  C   UNL     1      45.857   3.254   8.867  0.00  0.00    +0.000 C 
ATOM     11  C   UNL     1      46.362   3.770   7.508  0.00  0.00    +0.000 C 
ATOM     12  C   UNL     1      47.377   2.816   6.885  0.00  0.00    +0.000 C 
ATOM     13  C   UNL     1      46.818   1.404   6.854  0.00  0.00    +0.000 C 
ATOM     14  O   UNL     1      46.513   0.988   8.183  0.00  0.00    +0.000 OA
ATOM     15  C   UNL     1      45.460   1.770   8.753  0.00  0.00    +0.000 C 
ENDBRANCH   9  10
BRANCH   9  16
ATOM     16  O   UNL     1      43.794   4.438   8.377  0.00  0.00    +0.000 OA
ATOM     17  H   UNL     1      44.145   5.226   7.928  0.00  0.00    +0.000 HD
ENDBRANCH   9  16
ENDBRANCH   8   9
ENDBRANCH   5   8
ENDBRANCH   1   2
BRANCH   1  20
ATOM     18  O   UNL     1      49.651   4.313  16.768  0.00  0.00    +0.000 OA
ATOM     19  C   UNL     1      48.957   5.325  16.723  0.00  0.00    +0.000 C 
ATOM     20  N   UNL     1      47.711   5.346  16.154  0.00  0.00    +0.000 N 
ATOM     21  H   UNL     1      47.305   6.226  15.868  0.00  0.00    +0.000 HD
BRANCH  19  22
ATOM     22  C   UNL     1      49.397   6.581  17.326  0.00  0.00    +0.000 A 
ATOM     23  C   UNL     1      50.479   7.278  16.808  0.00  0.00    +0.000 A 
ATOM     24  S   UNL     1      50.812   8.726  17.649  0.00  0.00    +0.000 S 
ATOM     25  C   UNL     1      49.511   8.469  18.717  0.00  0.00    +0.000 A 
ATOM     26  N   UNL     1      49.209   9.366  19.694  0.00  0.00    +0.000 NA
ATOM     27  C   UNL     1      48.179   9.049  20.407  0.00  0.00    +0.000 A 
ATOM     28  N   UNL     1      47.429   7.916  20.247  0.00  0.00    +0.000 N 
ATOM     29  C   UNL     1      47.733   6.954  19.319  0.00  0.00    +0.000 A 
ATOM     30  O   UNL     1      47.118   5.897  19.285  0.00  0.00    +0.000 OA
ATOM     31  C   UNL     1      48.853   7.283  18.456  0.00  0.00    +0.000 A 
ATOM     32  H   UNL     1      46.654   7.708  20.858  0.00  0.00    +0.000 HD
ENDBRANCH  19  22
ENDBRANCH   1  20
TORSDOF 7
ENDMDL
MODEL 4
REMARK VINA RESULT:    -7.669      2.194      3.528
REMARK INTER + INTRA:         -11.506
REMARK INTER:                 -10.516
REMARK INTRA:                  -0.990
REMARK UNBOUND:                -0.922
REMARK  Name = 
REMARK  7 active torsions:
REMARK  status: ('A' for Active; 'I' for Inactive)
REMARK    1  A    between atoms: C_2  and  C_20
REMARK    2  A    between atoms: N_3  and  C_4
REMARK    3  A    between atoms: C_4  and  C_5
REMARK    4  A    between atoms: C_8  and  C_9
REMARK    5  A    between atoms: C_9  and  C_10
REMARK    6  A    between atoms: C_10  and  O_11
REMARK    7  A    between atoms: C_10  and  C_12
REMARK                            x       y       z     vdW  Elec       q    Type
REMARK                         _______ _______ _______ _____ _____    ______ ____
ROOT
ATOM      1  C   UNL     1      47.157   4.048  15.388  0.00  0.00    +0.000 C 
ENDROOT
BRANCH   1   2
ATOM      2  C   UNL     1      46.600   4.383  14.026  0.00  0.00    +0.000 A 
ATOM      3  C   UNL     1      46.848   5.633  13.470  0.00  0.00    +0.000 A 
ATOM      4  C   UNL     1      46.340   5.924  12.205  0.00  0.00    +0.000 A 
ATOM      5  C   UNL     1      45.582   4.966  11.526  0.00  0.00    +0.000 A 
ATOM      6  C   UNL     1      45.374   3.751  12.169  0.00  0.00    +0.000 A 
ATOM      7  N   UNL     1      45.859   3.441  13.394  0.00  0.00    +0.000 NA
BRANCH   5   8
ATOM      8  C   UNL     1      45.060   5.219  10.131  0.00  0.00    +0.000 C 
BRANCH   8   9
ATOM      9  C   UNL     1      44.636   3.950   9.357  0.00  0.00    +0.000 C 
BRANCH   9  10
ATOM     10  C   UNL     1      45.836   3.137   8.809  0.00  0.00    +0.000 C 
ATOM     11  C   UNL     1      46.365   3.666   7.463  0.00  0.00    +0.000 C 
ATOM     12  C   UNL     1      47.408   2.728   6.861  0.00  0.00    +0.000 C 
ATOM     13  C   UNL     1      46.869   1.309   6.811  0.00  0.00    +0.000 C 
ATOM     14  O   UNL     1      46.540   0.883   8.132  0.00  0.00    +0.000 OA
ATOM     15  C   UNL     1      45.463   1.648   8.679  0.00  0.00    +0.000 C 
ENDBRANCH   9  10
BRANCH   9  16
ATOM     16  O   UNL     1      43.771   4.298   8.274  0.00  0.00    +0.000 OA
ATOM     17  H   UNL     1      43.695   5.267   8.238  0.00  0.00    +0.000 HD
ENDBRANCH   9  16
ENDBRANCH   8   9
ENDBRANCH   5   8
ENDBRANCH   1   2
BRANCH   1  20
ATOM     18  O   UNL     1      49.449   4.062  16.996  0.00  0.00    +0.000 OA
ATOM     19  C   UNL     1      48.865   5.123  16.788  0.00  0.00    +0.000 C 
ATOM     20  N   UNL     1      47.713   5.204  16.051  0.00  0.00    +0.000 N 
ATOM     21  H   UNL     1      47.433   6.090  15.654  0.00  0.00    +0.000 HD
BRANCH  19  22
ATOM     22  C   UNL     1      49.339   6.380  17.361  0.00  0.00    +0.000 A 
ATOM     23  C   UNL     1      49.272   6.609  18.728  0.00  0.00    +0.000 A 
ATOM     24  S   UNL     1      49.896   8.131  19.186  0.00  0.00    +0.000 S 
ATOM     25  C   UNL     1      50.285   8.518  17.574  0.00  0.00    +0.000 A 
ATOM     26  N   UNL     1      50.886   9.696  17.255  0.00  0.00    +0.000 NA
ATOM     27  C   UNL     1      51.145   9.836  15.996  0.00  0.00    +0.000 A 
ATOM     28  N   UNL     1      50.851   8.919  15.025  0.00  0.00    +0.000 N 
ATOM     29  C   UNL     1      50.189   7.748  15.291  0.00  0.00    +0.000 A 
ATOM     30  O   UNL     1      49.830   7.009  14.384  0.00  0.00    +0.000 OA
ATOM     31  C   UNL     1      49.918   7.516  16.698  0.00  0.00    +0.000 A 
ATOM     32  H   UNL     1      51.049   9.101  14.053  0.00  0.00    +0.000 HD
ENDBRANCH  19  22
ENDBRANCH   1  20
TORSDOF 7
ENDMDL
MODEL 5
REMARK VINA RESULT:    -7.631      2.202      2.561
REMARK INTER + INTRA:         -11.453
REMARK INTER:                 -10.601
REMARK INTRA:                  -0.853
REMARK UNBOUND:                -0.922
REMARK  Name = 
REMARK  7 active torsions:
REMARK  status: ('A' for Active; 'I' for Inactive)
REMARK    1  A    between atoms: C_2  and  C_20
REMARK    2  A    between atoms: N_3  and  C_4
REMARK    3  A    between atoms: C_4  and  C_5
REMARK    4  A    between atoms: C_8  and  C_9
REMARK    5  A    between atoms: C_9  and  C_10
REMARK    6  A    between atoms: C_10  and  O_11
REMARK    7  A    between atoms: C_10  and  C_12
REMARK                            x       y       z     vdW  Elec       q    Type
REMARK                         _______ _______ _______ _____ _____    ______ ____
ROOT
ATOM      1  C   UNL     1      48.144   6.904  14.003  0.00  0.00    +0.000 C 
ENDROOT
BRANCH   1   2
ATOM      2  C   UNL     1      47.136   6.250  13.089  0.00  0.00    +0.000 A 
ATOM      3  C   UNL     1      46.777   6.877  11.901  0.00  0.00    +0.000 A 
ATOM      4  C   UNL     1      45.855   6.255  11.060  0.00  0.00    +0.000 A 
ATOM      5  C   UNL     1      45.299   5.027  11.428  0.00  0.00    +0.000 A 
ATOM      6  C   UNL     1      45.708   4.485  12.642  0.00  0.00    +0.000 A 
ATOM      7  N   UNL     1      46.603   5.065  13.475  0.00  0.00    +0.000 NA
BRANCH   5   8
ATOM      8  C   UNL     1      44.340   4.293  10.520  0.00  0.00    +0.000 C 
BRANCH   8   9
ATOM      9  C   UNL     1      44.785   2.866  10.126  0.00  0.00    +0.000 C 
BRANCH   9  10
ATOM     10  C   UNL     1      45.214   2.745   8.642  0.00  0.00    +0.000 C 
ATOM     11  C   UNL     1      46.173   1.570   8.379  0.00  0.00    +0.000 C 
ATOM     12  C   UNL     1      46.727   1.602   6.958  0.00  0.00    +0.000 C 
ATOM     13  C   UNL     1      47.311   2.971   6.654  0.00  0.00    +0.000 C 
ATOM     14  O   UNL     1      46.294   3.961   6.801  0.00  0.00    +0.000 OA
ATOM     15  C   UNL     1      45.849   4.062   8.156  0.00  0.00    +0.000 C 
ENDBRANCH   9  10
BRANCH   9  16
ATOM     16  O   UNL     1      43.736   1.932  10.389  0.00  0.00    +0.000 OA
ATOM     17  H   UNL     1      42.973   2.416  10.748  0.00  0.00    +0.000 HD
ENDBRANCH   9  16
ENDBRANCH   8   9
ENDBRANCH   5   8
ENDBRANCH   1   2
BRANCH   1  20
ATOM     18  O   UNL     1      50.257   6.388  15.765  0.00  0.00    +0.000 OA
ATOM     19  C   UNL     1      49.104   6.271  16.172  0.00  0.00    +0.000 C 
ATOM     20  N   UNL     1      48.010   6.459  15.370  0.00  0.00    +0.000 N 
ATOM     21  H   UNL     1      47.110   6.651  15.787  0.00  0.00    +0.000 HD
BRANCH  19  22
ATOM     22  C   UNL     1      48.818   5.868  17.547  0.00  0.00    +0.000 A 
ATOM     23  C   UNL     1      49.051   4.568  17.971  0.00  0.00    +0.000 A 
ATOM     24  S   UNL     1      48.666   4.318  19.616  0.00  0.00    +0.000 S 
ATOM     25  C   UNL     1      48.194   5.942  19.810  0.00  0.00    +0.000 A 
ATOM     26  N   UNL     1      47.770   6.417  21.011  0.00  0.00    +0.000 NA
ATOM     27  C   UNL     1      47.472   7.674  21.011  0.00  0.00    +0.000 A 
ATOM     28  N   UNL     1      47.545   8.500  19.922  0.00  0.00    +0.000 N 
ATOM     29  C   UNL     1      47.904   8.051  18.678  0.00  0.00    +0.000 A 
ATOM     30  O   UNL     1      47.838   8.787  17.702  0.00  0.00    +0.000 OA
ATOM     31  C   UNL     1      48.298   6.655  18.632  0.00  0.00    +0.000 A 
ATOM     32  H   UNL     1      47.266   9.467  19.978  0.00  0.00    +0.000 HD
ENDBRANCH  19  22
ENDBRANCH   1  20
TORSDOF 7
ENDMDL
MODEL 6
REMARK VINA RESULT:    -7.574      1.815      2.180
REMARK INTER + INTRA:         -11.375
REMARK INTER:                 -10.589
REMARK INTRA:                  -0.786
REMARK UNBOUND:                -0.922
REMARK  Name = 
REMARK  7 active torsions:
REMARK  status: ('A' for Active; 'I' for Inactive)
REMARK    1  A    between atoms: C_2  and  C_20
REMARK    2  A    between atoms: N_3  and  C_4
REMARK    3  A    between atoms: C_4  and  C_5
REMARK    4  A    between atoms: C_8  and  C_9
REMARK    5  A    between atoms: C_9  and  C_10
REMARK    6  A    between atoms: C_10  and  O_11
REMARK    7  A    between atoms: C_10  and  C_12
REMARK                            x       y       z     vdW  Elec       q    Type
REMARK                         _______ _______ _______ _____ _____    ______ ____
ROOT
ATOM      1  C   UNL     1      48.244   6.631  13.772  0.00  0.00    +0.000 C 
ENDROOT
BRANCH   1   2
ATOM      2  C   UNL     1      47.134   5.780  13.204  0.00  0.00    +0.000 A 
ATOM      3  C   UNL     1      46.135   6.373  12.440  0.00  0.00    +0.000 A 
ATOM      4  C   UNL     1      45.124   5.573  11.911  0.00  0.00    +0.000 A 
ATOM      5  C   UNL     1      45.122   4.199  12.166  0.00  0.00    +0.000 A 
ATOM      6  C   UNL     1      46.154   3.700  12.953  0.00  0.00    +0.000 A 
ATOM      7  N   UNL     1      47.150   4.452  13.476  0.00  0.00    +0.000 NA
BRANCH   5   8
ATOM      8  C   UNL     1      44.077   3.289  11.565  0.00  0.00    +0.000 C 
BRANCH   8   9
ATOM      9  C   UNL     1      43.960   3.365  10.025  0.00  0.00    +0.000 C 
BRANCH   9  10
ATOM     10  C   UNL     1      45.306   3.127   9.296  0.00  0.00    +0.000 C 
ATOM     11  C   UNL     1      45.553   4.111   8.138  0.00  0.00    +0.000 C 
ATOM     12  C   UNL     1      46.783   3.724   7.322  0.00  0.00    +0.000 C 
ATOM     13  C   UNL     1      46.695   2.267   6.902  0.00  0.00    +0.000 C 
ATOM     14  O   UNL     1      46.605   1.445   8.064  0.00  0.00    +0.000 OA
ATOM     15  C   UNL     1      45.390   1.677   8.781  0.00  0.00    +0.000 C 
ENDBRANCH   9  10
BRANCH   9  16
ATOM     16  O   UNL     1      43.431   4.634   9.633  0.00  0.00    +0.000 OA
ATOM     17  H   UNL     1      43.490   5.241  10.390  0.00  0.00    +0.000 HD
ENDBRANCH   9  16
ENDBRANCH   8   9
ENDBRANCH   5   8
ENDBRANCH   1   2
BRANCH   1  20
ATOM     18  O   UNL     1      50.553   6.906  15.331  0.00  0.00    +0.000 OA
ATOM     19  C   UNL     1      49.473   6.754  15.894  0.00  0.00    +0.000 C 
ATOM     20  N   UNL     1      48.299   6.567  15.213  0.00  0.00    +0.000 N 
ATOM     21  H   UNL     1      47.418   6.745  15.674  0.00  0.00    +0.000 HD
BRANCH  19  22
ATOM     22  C   UNL     1      49.371   6.712  17.351  0.00  0.00    +0.000 A 
ATOM     23  C   UNL     1      49.530   7.863  18.109  0.00  0.00    +0.000 A 
ATOM     24  S   UNL     1      49.353   7.594  19.786  0.00  0.00    +0.000 S 
ATOM     25  C   UNL     1      49.043   5.938  19.544  0.00  0.00    +0.000 A 
ATOM     26  N   UNL     1      48.775   5.108  20.587  0.00  0.00    +0.000 NA
ATOM     27  C   UNL     1      48.533   3.885  20.245  0.00  0.00    +0.000 A 
ATOM     28  N   UNL     1      48.544   3.409  18.962  0.00  0.00    +0.000 N 
ATOM     29  C   UNL     1      48.872   4.194  17.887  0.00  0.00    +0.000 A 
ATOM     30  O   UNL     1      48.995   3.708  16.770  0.00  0.00    +0.000 OA
ATOM     31  C   UNL     1      49.104   5.590  18.208  0.00  0.00    +0.000 A 
ATOM     32  H   UNL     1      48.379   2.435  18.762  0.00  0.00    +0.000 HD
ENDBRANCH  19  22
ENDBRANCH   1  20
TORSDOF 7
ENDMDL
MODEL 7
REMARK VINA RESULT:    -7.108      3.537      7.793
REMARK INTER + INTRA:         -10.731
REMARK INTER:                  -9.791
REMARK INTRA:                  -0.940
REMARK UNBOUND:                -0.922
REMARK  Name = 
REMARK  7 active torsions:
REMARK  status: ('A' for Active; 'I' for Inactive)
REMARK    1  A    between atoms: C_2  and  C_20
REMARK    2  A    between atoms: N_3  and  C_4
REMARK    3  A    between atoms: C_4  and  C_5
REMARK    4  A    between atoms: C_8  and  C_9
REMARK    5  A    between atoms: C_9  and  C_10
REMARK    6  A    between atoms: C_10  and  O_11
REMARK    7  A    between atoms: C_10  and  C_12
REMARK                            x       y       z     vdW  Elec       q    Type
REMARK                         _______ _______ _______ _____ _____    ______ ____
ROOT
ATOM      1  C   UNL     1      47.942   8.245  12.552  0.00  0.00    +0.000 C 
ENDROOT
BRANCH   1   2
ATOM      2  C   UNL     1      48.341   7.946  13.977  0.00  0.00    +0.000 A 
ATOM      3  C   UNL     1      48.199   8.927  14.951  0.00  0.00    +0.000 A 
ATOM      4  C   UNL     1      48.558   8.633  16.265  0.00  0.00    +0.000 A 
ATOM      5  C   UNL     1      49.066   7.370  16.578  0.00  0.00    +0.000 A 
ATOM      6  C   UNL     1      49.187   6.459  15.534  0.00  0.00    +0.000 A 
ATOM      7  N   UNL     1      48.842   6.717  14.251  0.00  0.00    +0.000 NA
BRANCH   5   8
ATOM      8  C   UNL     1      49.414   6.991  17.999  0.00  0.00    +0.000 C 
BRANCH   8   9
ATOM      9  C   UNL     1      48.272   6.308  18.785  0.00  0.00    +0.000 C 
BRANCH   9  10
ATOM     10  C   UNL     1      48.190   4.780  18.544  0.00  0.00    +0.000 C 
ATOM     11  C   UNL     1      49.514   4.170  18.050  0.00  0.00    +0.000 C 
ATOM     12  C   UNL     1      49.342   2.712  17.636  0.00  0.00    +0.000 C 
ATOM     13  C   UNL     1      48.185   2.577  16.661  0.00  0.00    +0.000 C 
ATOM     14  O   UNL     1      46.990   3.049  17.280  0.00  0.00    +0.000 OA
ATOM     15  C   UNL     1      47.057   4.451  17.554  0.00  0.00    +0.000 C 
ENDBRANCH   9  10
BRANCH   9  16
ATOM     16  O   UNL     1      47.017   6.905  18.450  0.00  0.00    +0.000 OA
ATOM     17  H   UNL     1      47.139   7.867  18.385  0.00  0.00    +0.000 HD
ENDBRANCH   9  16
ENDBRANCH   8   9
ENDBRANCH   5   8
ENDBRANCH   1   2
BRANCH   1  20
ATOM     18  O   UNL     1      45.240   8.011  11.858  0.00  0.00    +0.000 OA
ATOM     19  C   UNL     1      46.008   7.098  11.566  0.00  0.00    +0.000 C 
ATOM     20  N   UNL     1      47.335   7.107  11.904  0.00  0.00    +0.000 N 
ATOM     21  H   UNL     1      47.983   6.513  11.405  0.00  0.00    +0.000 HD
BRANCH  19  22
ATOM     22  C   UNL     1      45.541   5.901  10.870  0.00  0.00    +0.000 A 
ATOM     23  C   UNL     1      45.874   5.674   9.543  0.00  0.00    +0.000 A 
ATOM     24  S   UNL     1      45.242   4.210   8.932  0.00  0.00    +0.000 S 
ATOM     25  C   UNL     1      44.521   3.833  10.428  0.00  0.00    +0.000 A 
ATOM     26  N   UNL     1      43.829   2.676  10.608  0.00  0.00    +0.000 NA
ATOM     27  C   UNL     1      43.364   2.516  11.803  0.00  0.00    +0.000 A 
ATOM     28  N   UNL     1      43.513   3.406  12.832  0.00  0.00    +0.000 N 
ATOM     29  C   UNL     1      44.146   4.612  12.679  0.00  0.00    +0.000 A 
ATOM     30  O   UNL     1      44.153   5.437  13.583  0.00  0.00    +0.000 OA
ATOM     31  C   UNL     1      44.733   4.822  11.368  0.00  0.00    +0.000 A 
ATOM     32  H   UNL     1      43.097   3.239  13.735  0.00  0.00    +0.000 HD
ENDBRANCH  19  22
ENDBRANCH   1  20
TORSDOF 7
ENDMDL
MODEL 8
REMARK VINA RESULT:    -6.852      2.744      3.752
REMARK INTER + INTRA:         -10.378
REMARK INTER:                 -10.039
REMARK INTRA:                  -0.339
REMARK UNBOUND:                -0.922
REMARK  Name = 
REMARK  7 active torsions:
REMARK  status: ('A' for Active; 'I' for Inactive)
REMARK    1  A    between atoms: C_2  and  C_20
REMARK    2  A    between atoms: N_3  and  C_4
REMARK    3  A    between atoms: C_4  and  C_5
REMARK    4  A    between atoms: C_8  and  C_9
REMARK    5  A    between atoms: C_9  and  C_10
REMARK    6  A    between atoms: C_10  and  O_11
REMARK    7  A    between atoms: C_10  and  C_12
REMARK                            x       y       z     vdW  Elec       q    Type
REMARK                         _______ _______ _______ _____ _____    ______ ____
ROOT
ATOM      1  C   UNL     1      46.852   5.635  14.424  0.00  0.00    +0.000 C 
ENDROOT
BRANCH   1   2
ATOM      2  C   UNL     1      46.112   5.092  13.226  0.00  0.00    +0.000 A 
ATOM      3  C   UNL     1      45.534   5.971  12.317  0.00  0.00    +0.000 A 
ATOM      4  C   UNL     1      44.866   5.455  11.208  0.00  0.00    +0.000 A 
ATOM      5  C   UNL     1      44.776   4.072  11.035  0.00  0.00    +0.000 A 
ATOM      6  C   UNL     1      45.372   3.272  12.004  0.00  0.00    +0.000 A 
ATOM      7  N   UNL     1      46.029   3.746  13.088  0.00  0.00    +0.000 NA
BRANCH   5   8
ATOM      8  C   UNL     1      44.110   3.472   9.818  0.00  0.00    +0.000 C 
BRANCH   8   9
ATOM      9  C   UNL     1      44.626   4.015   8.465  0.00  0.00    +0.000 C 
BRANCH   9  10
ATOM     10  C   UNL     1      45.364   2.948   7.618  0.00  0.00    +0.000 C 
ATOM     11  C   UNL     1      45.872   1.756   8.449  0.00  0.00    +0.000 C 
ATOM     12  C   UNL     1      46.760   0.831   7.622  0.00  0.00    +0.000 C 
ATOM     13  C   UNL     1      47.854   1.630   6.936  0.00  0.00    +0.000 C 
ATOM     14  O   UNL     1      47.259   2.614   6.092  0.00  0.00    +0.000 OA
ATOM     15  C   UNL     1      46.534   3.588   6.847  0.00  0.00    +0.000 C 
ENDBRANCH   9  10
BRANCH   9  16
ATOM     16  O   UNL     1      45.496   5.129   8.679  0.00  0.00    +0.000 OA
ATOM     17  H   UNL     1      46.067   4.933   9.442  0.00  0.00    +0.000 HD
ENDBRANCH   9  16
ENDBRANCH   8   9
ENDBRANCH   5   8
ENDBRANCH   1   2
BRANCH   1  20
ATOM     18  O   UNL     1      47.312   8.386  14.177  0.00  0.00    +0.000 OA
ATOM     19  C   UNL     1      48.248   7.611  14.003  0.00  0.00    +0.000 C 
ATOM     20  N   UNL     1      48.106   6.249  14.060  0.00  0.00    +0.000 N 
ATOM     21  H   UNL     1      48.918   5.666  14.212  0.00  0.00    +0.000 HD
BRANCH  19  22
ATOM     22  C   UNL     1      49.587   8.093  13.670  0.00  0.00    +0.000 A 
ATOM     23  C   UNL     1      49.796   8.901  12.562  0.00  0.00    +0.000 A 
ATOM     24  S   UNL     1      51.427   9.367  12.368  0.00  0.00    +0.000 S 
ATOM     25  C   UNL     1      51.895   8.515  13.766  0.00  0.00    +0.000 A 
ATOM     26  N   UNL     1      53.184   8.516  14.198  0.00  0.00    +0.000 NA
ATOM     27  C   UNL     1      53.380   7.849  15.287  0.00  0.00    +0.000 A 
ATOM     28  N   UNL     1      52.416   7.170  15.979  0.00  0.00    +0.000 N 
ATOM     29  C   UNL     1      51.117   7.087  15.547  0.00  0.00    +0.000 A 
ATOM     30  O   UNL     1      50.309   6.369  16.121  0.00  0.00    +0.000 OA
ATOM     31  C   UNL     1      50.829   7.861  14.353  0.00  0.00    +0.000 A 
ATOM     32  H   UNL     1      52.638   6.639  16.807  0.00  0.00    +0.000 HD
ENDBRANCH  19  22
ENDBRANCH   1  20
TORSDOF 7
ENDMDL
MODEL 9
REMARK VINA RESULT:    -6.746      3.120      8.283
REMARK INTER + INTRA:         -10.232
REMARK INTER:                  -9.226
REMARK INTRA:                  -1.005
REMARK UNBOUND:                -0.922
REMARK  Name = 
REMARK  7 active torsions:
REMARK  status: ('A' for Active; 'I' for Inactive)
REMARK    1  A    between atoms: C_2  and  C_20
REMARK    2  A    between atoms: N_3  and  C_4
REMARK    3  A    between atoms: C_4  and  C_5
REMARK    4  A    between atoms: C_8  and  C_9
REMARK    5  A    between atoms: C_9  and  C_10
REMARK    6  A    between atoms: C_10  and  O_11
REMARK    7  A    between atoms: C_10  and  C_12
REMARK                            x       y       z     vdW  Elec       q    Type
REMARK                         _______ _______ _______ _____ _____    ______ ____
ROOT
ATOM      1  C   UNL     1      47.127   7.949  12.042  0.00  0.00    +0.000 C 
ENDROOT
BRANCH   1   2
ATOM      2  C   UNL     1      47.926   8.006  13.322  0.00  0.00    +0.000 A 
ATOM      3  C   UNL     1      47.574   8.916  14.312  0.00  0.00    +0.000 A 
ATOM      4  C   UNL     1      48.312   8.949  15.494  0.00  0.00    +0.000 A 
ATOM      5  C   UNL     1      49.395   8.082  15.659  0.00  0.00    +0.000 A 
ATOM      6  C   UNL     1      49.680   7.217  14.608  0.00  0.00    +0.000 A 
ATOM      7  N   UNL     1      48.979   7.162  13.452  0.00  0.00    +0.000 NA
BRANCH   5   8
ATOM      8  C   UNL     1      50.185   8.045  16.947  0.00  0.00    +0.000 C 
BRANCH   8   9
ATOM      9  C   UNL     1      49.647   7.060  18.009  0.00  0.00    +0.000 C 
BRANCH   9  10
ATOM     10  C   UNL     1      49.059   5.762  17.400  0.00  0.00    +0.000 C 
ATOM     11  C   UNL     1      47.708   5.357  18.017  0.00  0.00    +0.000 C 
ATOM     12  C   UNL     1      47.261   3.979  17.537  0.00  0.00    +0.000 C 
ATOM     13  C   UNL     1      48.374   2.967  17.742  0.00  0.00    +0.000 C 
ATOM     14  O   UNL     1      49.529   3.382  17.014  0.00  0.00    +0.000 OA
ATOM     15  C   UNL     1      50.066   4.603  17.529  0.00  0.00    +0.000 C 
ENDBRANCH   9  10
BRANCH   9  16
ATOM     16  O   UNL     1      48.648   7.696  18.811  0.00  0.00    +0.000 OA
ATOM     17  H   UNL     1      48.525   8.604  18.488  0.00  0.00    +0.000 HD
ENDBRANCH   9  16
ENDBRANCH   8   9
ENDBRANCH   5   8
ENDBRANCH   1   2
BRANCH   1  20
ATOM     18  O   UNL     1      44.385   7.508  11.690  0.00  0.00    +0.000 OA
ATOM     19  C   UNL     1      45.151   6.548  11.642  0.00  0.00    +0.000 C 
ATOM     20  N   UNL     1      46.500   6.663  11.846  0.00  0.00    +0.000 N 
ATOM     21  H   UNL     1      47.122   5.941  11.512  0.00  0.00    +0.000 HD
BRANCH  19  22
ATOM     22  C   UNL     1      44.660   5.192  11.408  0.00  0.00    +0.000 A 
ATOM     23  C   UNL     1      43.903   4.535  12.367  0.00  0.00    +0.000 A 
ATOM     24  S   UNL     1      43.418   2.970  11.884  0.00  0.00    +0.000 S 
ATOM     25  C   UNL     1      44.192   3.135  10.377  0.00  0.00    +0.000 A 
ATOM     26  N   UNL     1      44.145   2.146   9.445  0.00  0.00    +0.000 NA
ATOM     27  C   UNL     1      44.755   2.427   8.340  0.00  0.00    +0.000 A 
ATOM     28  N   UNL     1      45.417   3.596   8.082  0.00  0.00    +0.000 N 
ATOM     29  C   UNL     1      45.545   4.593   9.013  0.00  0.00    +0.000 A 
ATOM     30  O   UNL     1      46.249   5.570   8.794  0.00  0.00    +0.000 OA
ATOM     31  C   UNL     1      44.836   4.351  10.256  0.00  0.00    +0.000 A 
ATOM     32  H   UNL     1      45.902   3.742   7.210  0.00  0.00    +0.000 HD
ENDBRANCH  19  22
ENDBRANCH   1  20
TORSDOF 7
ENDMDL
