MODEL 1
REMARK VINA RESULT:    -8.908      0.000      0.000
REMARK INTER + INTRA:         -12.687
REMARK INTER:                 -12.033
REMARK INTRA:                  -0.654
REMARK UNBOUND:                -0.654
REMARK  Name = 
REMARK  7 active torsions:
REMARK  status: ('A' for Active; 'I' for Inactive)
REMARK    1  A    between atoms: C_1  and  N_2
REMARK    2  A    between atoms: N_2  and  C_3
REMARK    3  A    between atoms: C_3  and  C_4
REMARK    4  A    between atoms: C_7  and  C_8
REMARK    5  A    between atoms: C_8  and  N_9
REMARK    6  A    between atoms: C_10  and  C_12
REMARK    7  A    between atoms: C_20  and  C_22
REMARK                            x       y       z     vdW  Elec       q    Type
REMARK                         _______ _______ _______ _____ _____    ______ ____
ROOT
ATOM      1  C   UNL     1      47.277   5.629  13.410  0.00  0.00    +0.000 A 
ATOM      2  C   UNL     1      48.027   6.270  14.401  0.00  0.00    +0.000 A 
ATOM      3  C   UNL     1      48.172   5.678  15.651  0.00  0.00    +0.000 A 
ATOM      4  C   UNL     1      47.545   4.459  15.887  0.00  0.00    +0.000 A 
ATOM      5  N   UNL     1      46.868   3.786  14.920  0.00  0.00    +0.000 NA
ATOM      6  C   UNL     1      46.750   4.382  13.712  0.00  0.00    +0.000 A 
ENDROOT
BRANCH   1   7
ATOM      7  C   UNL     1      47.004   6.290  12.091  0.00  0.00    +0.000 C 
BRANCH   7   9
ATOM      8  C   UNL     1      45.910   8.582  12.109  0.00  0.00    +0.000 C 
ATOM      9  N   UNL     1      45.817   7.135  11.960  0.00  0.00    +0.000 N 
ATOM     10  C   UNL     1      44.559   6.646  11.557  0.00  0.00    +0.000 C 
ATOM     11  O   UNL     1      43.619   7.413  11.354  0.00  0.00    +0.000 OA
BRANCH  10  12
ATOM     12  C   UNL     1      44.349   5.196  11.416  0.00  0.00    +0.000 A 
ATOM     13  C   UNL     1      43.593   4.422  12.282  0.00  0.00    +0.000 A 
ATOM     14  S   UNL     1      43.473   2.785  11.810  0.00  0.00    +0.000 S 
ATOM     15  C   UNL     1      44.298   3.091  10.356  0.00  0.00    +0.000 A 
ATOM     16  N   UNL     1      44.446   2.117   9.418  0.00  0.00    +0.000 NA
ATOM     17  C   UNL     1      45.023   2.514   8.333  0.00  0.00    +0.000 A 
ATOM     18  N   UNL     1      45.499   3.782   8.118  0.00  0.00    +0.000 N 
ATOM     19  C   UNL     1      45.498   4.760   9.092  0.00  0.00    +0.000 A 
ATOM     20  O   UNL     1      46.143   5.791   8.952  0.00  0.00    +0.000 OA
ATOM     21  C   UNL     1      44.745   4.397  10.279  0.00  0.00    +0.000 A 
ATOM     22  H   UNL     1      46.003   4.007   7.272  0.00  0.00    +0.000 HD
ENDBRANCH  10  12
ENDBRANCH   7   9
ENDBRANCH   1   7
BRANCH   4  23
ATOM     23  C   UNL     1      47.573   3.847  17.266  0.00  0.00    +0.000 C 
BRANCH  23  24
ATOM     24  N   UNL     1      48.884   3.382  17.652  0.00  0.00    +0.000 N 
ATOM     25  C   UNL     1      49.534   2.366  17.000  0.00  0.00    +0.000 C 
ATOM     26  O   UNL     1      49.016   1.732  16.084  0.00  0.00    +0.000 OA
ATOM     27  H   UNL     1      49.290   3.795  18.482  0.00  0.00    +0.000 HD
BRANCH  25  28
ATOM     28  C   UNL     1      50.880   2.108  17.435  0.00  0.00    +0.000 A 
ATOM     29  N   UNL     1      51.369   0.827  17.574  0.00  0.00    +0.000 N 
ATOM     30  C   UNL     1      52.677   0.904  17.945  0.00  0.00    +0.000 A 
ATOM     31  N   UNL     1      53.061   2.150  18.075  0.00  0.00    +0.000 NA
ATOM     32  C   UNL     1      51.958   2.911  17.763  0.00  0.00    +0.000 A 
ATOM     33 CL   UNL     1      52.037   4.614  17.787  0.00  0.00    +0.000 Cl
ATOM     34  H   UNL     1      50.836  -0.017  17.404  0.00  0.00    +0.000 HD
ENDBRANCH  25  28
ENDBRANCH  23  24
ENDBRANCH   4  23
TORSDOF 6
ENDMDL
MODEL 2
REMARK VINA RESULT:    -8.396      1.508      2.247
REMARK INTER + INTRA:         -11.996
REMARK INTER:                 -10.910
REMARK INTRA:                  -1.086
REMARK UNBOUND:                -0.654
REMARK  Name = 
REMARK  7 active torsions:
REMARK  status: ('A' for Active; 'I' for Inactive)
REMARK    1  A    between atoms: C_1  and  N_2
REMARK    2  A    between atoms: N_2  and  C_3
REMARK    3  A    between atoms: C_3  and  C_4
REMARK    4  A    between atoms: C_7  and  C_8
REMARK    5  A    between atoms: C_8  and  N_9
REMARK    6  A    between atoms: C_10  and  C_12
REMARK    7  A    between atoms: C_20  and  C_22
REMARK                            x       y       z     vdW  Elec       q    Type
REMARK                         _______ _______ _______ _____ _____    ______ ____
ROOT
ATOM      1  C   UNL     1      47.535   5.566  14.104  0.00  0.00    +0.000 A 
ATOM      2  C   UNL     1      46.763   4.413  14.279  0.00  0.00    +0.000 A 
ATOM      3  C   UNL     1      46.841   3.702  15.472  0.00  0.00    +0.000 A 
ATOM      4  C   UNL     1      47.708   4.155  16.461  0.00  0.00    +0.000 A 
ATOM      5  N   UNL     1      48.417   5.308  16.341  0.00  0.00    +0.000 NA
ATOM      6  C   UNL     1      48.314   5.983  15.174  0.00  0.00    +0.000 A 
ENDROOT
BRANCH   1   7
ATOM      7  C   UNL     1      47.563   6.292  12.792  0.00  0.00    +0.000 C 
BRANCH   7   9
ATOM      8  C   UNL     1      46.799   8.668  13.260  0.00  0.00    +0.000 C 
ATOM      9  N   UNL     1      46.623   7.393  12.577  0.00  0.00    +0.000 N 
ATOM     10  C   UNL     1      45.589   7.352  11.620  0.00  0.00    +0.000 C 
ATOM     11  O   UNL     1      44.896   8.343  11.400  0.00  0.00    +0.000 OA
BRANCH  10  12
ATOM     12  C   UNL     1      45.305   6.099  10.904  0.00  0.00    +0.000 A 
ATOM     13  C   UNL     1      45.862   5.745   9.686  0.00  0.00    +0.000 A 
ATOM     14  S   UNL     1      45.397   4.194   9.144  0.00  0.00    +0.000 S 
ATOM     15  C   UNL     1      44.559   3.884  10.591  0.00  0.00    +0.000 A 
ATOM     16  N   UNL     1      44.004   2.667  10.830  0.00  0.00    +0.000 NA
ATOM     17  C   UNL     1      43.469   2.553  12.001  0.00  0.00    +0.000 A 
ATOM     18  N   UNL     1      43.405   3.555  12.934  0.00  0.00    +0.000 N 
ATOM     19  C   UNL     1      43.828   4.844  12.681  0.00  0.00    +0.000 A 
ATOM     20  O   UNL     1      43.538   5.764  13.435  0.00  0.00    +0.000 OA
ATOM     21  C   UNL     1      44.550   4.984  11.429  0.00  0.00    +0.000 A 
ATOM     22  H   UNL     1      42.911   3.420  13.803  0.00  0.00    +0.000 HD
ENDBRANCH  10  12
ENDBRANCH   7   9
ENDBRANCH   1   7
BRANCH   4  23
ATOM     23  C   UNL     1      47.915   3.342  17.716  0.00  0.00    +0.000 C 
BRANCH  23  24
ATOM     24  N   UNL     1      49.292   2.954  17.917  0.00  0.00    +0.000 N 
ATOM     25  C   UNL     1      49.967   2.132  17.053  0.00  0.00    +0.000 C 
ATOM     26  O   UNL     1      49.425   1.610  16.080  0.00  0.00    +0.000 OA
ATOM     27  H   UNL     1      49.733   3.263  18.774  0.00  0.00    +0.000 HD
BRANCH  25  28
ATOM     28  C   UNL     1      51.364   1.942  17.335  0.00  0.00    +0.000 A 
ATOM     29  N   UNL     1      51.941   0.691  17.356  0.00  0.00    +0.000 N 
ATOM     30  C   UNL     1      53.273   0.837  17.597  0.00  0.00    +0.000 A 
ATOM     31  N   UNL     1      53.592   2.098  17.754  0.00  0.00    +0.000 NA
ATOM     32  C   UNL     1      52.419   2.798  17.595  0.00  0.00    +0.000 A 
ATOM     33 CL   UNL     1      52.397   4.500  17.701  0.00  0.00    +0.000 Cl
ATOM     34  H   UNL     1      51.445  -0.177  17.196  0.00  0.00    +0.000 HD
ENDBRANCH  25  28
ENDBRANCH  23  24
ENDBRANCH   4  23
TORSDOF 6
ENDMDL
MODEL 3
REMARK VINA RESULT:    -8.126      4.049      8.532
REMARK INTER + INTRA:         -11.631
REMARK INTER:                 -10.531
REMARK INTRA:                  -1.099
REMARK UNBOUND:                -0.654
REMARK  Name = 
REMARK  7 active torsions:
REMARK  status: ('A' for Active; 'I' for Inactive)
REMARK    1  A    between atoms: C_1  and  N_2
REMARK    2  A    between atoms: N_2  and  C_3
REMARK    3  A    between atoms: C_3  and  C_4
REMARK    4  A    between atoms: C_7  and  C_8
REMARK    5  A    between atoms: C_8  and  N_9
REMARK    6  A    between atoms: C_10  and  C_12
REMARK    7  A    between atoms: C_20  and  C_22
REMARK                            x       y       z     vdW  Elec       q    Type
REMARK                         _______ _______ _______ _____ _____    ______ ____
ROOT
ATOM      1  C   UNL     1      46.367   6.275  13.005  0.00  0.00    +0.000 A 
ATOM      2  C   UNL     1      45.676   6.592  11.832  0.00  0.00    +0.000 A 
ATOM      3  C   UNL     1      45.030   5.590  11.117  0.00  0.00    +0.000 A 
ATOM      4  C   UNL     1      45.105   4.282  11.587  0.00  0.00    +0.000 A 
ATOM      5  N   UNL     1      45.713   3.960  12.759  0.00  0.00    +0.000 NA
ATOM      6  C   UNL     1      46.325   4.957  13.437  0.00  0.00    +0.000 A 
ENDROOT
BRANCH   1   7
ATOM      7  C   UNL     1      47.171   7.308  13.739  0.00  0.00    +0.000 C 
BRANCH   7   9
ATOM      8  C   UNL     1      49.248   6.931  12.328  0.00  0.00    +0.000 C 
ATOM      9  N   UNL     1      48.626   7.301  13.593  0.00  0.00    +0.000 N 
ATOM     10  C   UNL     1      49.506   7.769  14.589  0.00  0.00    +0.000 C 
ATOM     11  O   UNL     1      50.715   7.846  14.377  0.00  0.00    +0.000 OA
BRANCH  10  12
ATOM     12  C   UNL     1      48.983   8.131  15.915  0.00  0.00    +0.000 A 
ATOM     13  C   UNL     1      48.615   9.412  16.294  0.00  0.00    +0.000 A 
ATOM     14  S   UNL     1      47.971   9.502  17.873  0.00  0.00    +0.000 S 
ATOM     15  C   UNL     1      48.021   7.811  18.044  0.00  0.00    +0.000 A 
ATOM     16  N   UNL     1      47.503   7.205  19.146  0.00  0.00    +0.000 NA
ATOM     17  C   UNL     1      47.540   5.914  19.103  0.00  0.00    +0.000 A 
ATOM     18  N   UNL     1      48.082   5.180  18.079  0.00  0.00    +0.000 N 
ATOM     19  C   UNL     1      48.743   5.753  17.012  0.00  0.00    +0.000 A 
ATOM     20  O   UNL     1      49.420   5.075  16.251  0.00  0.00    +0.000 OA
ATOM     21  C   UNL     1      48.613   7.198  16.956  0.00  0.00    +0.000 A 
ATOM     22  H   UNL     1      48.141   4.174  18.142  0.00  0.00    +0.000 HD
ENDBRANCH  10  12
ENDBRANCH   7   9
ENDBRANCH   1   7
BRANCH   4  23
ATOM     23  C   UNL     1      44.526   3.151  10.774  0.00  0.00    +0.000 C 
BRANCH  23  24
ATOM     24  N   UNL     1      45.436   2.653   9.769  0.00  0.00    +0.000 N 
ATOM     25  C   UNL     1      45.420   3.090   8.470  0.00  0.00    +0.000 C 
ATOM     26  O   UNL     1      44.583   3.887   8.052  0.00  0.00    +0.000 OA
ATOM     27  H   UNL     1      46.057   1.903  10.046  0.00  0.00    +0.000 HD
BRANCH  25  28
ATOM     28  C   UNL     1      46.470   2.581   7.629  0.00  0.00    +0.000 A 
ATOM     29  N   UNL     1      47.299   3.416   6.912  0.00  0.00    +0.000 N 
ATOM     30  C   UNL     1      48.218   2.652   6.260  0.00  0.00    +0.000 A 
ATOM     31  N   UNL     1      48.024   1.377   6.490  0.00  0.00    +0.000 NA
ATOM     32  C   UNL     1      46.943   1.314   7.337  0.00  0.00    +0.000 A 
ATOM     33 CL   UNL     1      46.366  -0.185   7.909  0.00  0.00    +0.000 Cl
ATOM     34  H   UNL     1      47.235   4.427   6.903  0.00  0.00    +0.000 HD
ENDBRANCH  25  28
ENDBRANCH  23  24
ENDBRANCH   4  23
TORSDOF 6
ENDMDL
MODEL 4
REMARK VINA RESULT:    -7.747      4.297      8.792
REMARK INTER + INTRA:         -11.119
REMARK INTER:                  -9.907
REMARK INTRA:                  -1.213
REMARK UNBOUND:                -0.654
REMARK  Name = 
REMARK  7 active torsions:
REMARK  status: ('A' for Active; 'I' for Inactive)
REMARK    1  A    between atoms: C_1  and  N_2
REMARK    2  A    between atoms: N_2  and  C_3
REMARK    3  A    between atoms: C_3  and  C_4
REMARK    4  A    between atoms: C_7  and  C_8
REMARK    5  A    between atoms: C_8  and  N_9
REMARK    6  A    between atoms: C_10  and  C_12
REMARK    7  A    between atoms: C_20  and  C_22
REMARK                            x       y       z     vdW  Elec       q    Type
REMARK                         _______ _______ _______ _____ _____    ______ ____
ROOT
ATOM      1  C   UNL     1      46.735   6.407  13.162  0.00  0.00    +0.000 A 
ATOM      2  C   UNL     1      46.377   5.125  13.593  0.00  0.00    +0.000 A 
ATOM      3  C   UNL     1      45.595   4.314  12.778  0.00  0.00    +0.000 A 
ATOM      4  C   UNL     1      45.172   4.814  11.551  0.00  0.00    +0.000 A 
ATOM      5  N   UNL     1      45.562   6.028  11.082  0.00  0.00    +0.000 NA
ATOM      6  C   UNL     1      46.330   6.791  11.892  0.00  0.00    +0.000 A 
ENDROOT
BRANCH   1   7
ATOM      7  C   UNL     1      47.480   7.350  14.060  0.00  0.00    +0.000 C 
BRANCH   7   9
ATOM      8  C   UNL     1      49.750   7.610  12.951  0.00  0.00    +0.000 C 
ATOM      9  N   UNL     1      48.939   7.267  14.113  0.00  0.00    +0.000 N 
ATOM     10  C   UNL     1      49.657   6.989  15.293  0.00  0.00    +0.000 C 
ATOM     11  O   UNL     1      50.885   7.039  15.311  0.00  0.00    +0.000 OA
BRANCH  10  12
ATOM     12  C   UNL     1      48.934   6.594  16.512  0.00  0.00    +0.000 A 
ATOM     13  C   UNL     1      48.690   5.284  16.893  0.00  0.00    +0.000 A 
ATOM     14  S   UNL     1      47.894   5.144  18.397  0.00  0.00    +0.000 S 
ATOM     15  C   UNL     1      47.987   6.821  18.659  0.00  0.00    +0.000 A 
ATOM     16  N   UNL     1      47.576   7.368  19.834  0.00  0.00    +0.000 NA
ATOM     17  C   UNL     1      47.779   8.641  19.922  0.00  0.00    +0.000 A 
ATOM     18  N   UNL     1      48.317   9.419  18.929  0.00  0.00    +0.000 N 
ATOM     19  C   UNL     1      48.616   8.931  17.673  0.00  0.00    +0.000 A 
ATOM     20  O   UNL     1      48.861   9.689  16.744  0.00  0.00    +0.000 OA
ATOM     21  C   UNL     1      48.524   7.486  17.573  0.00  0.00    +0.000 A 
ATOM     22  H   UNL     1      48.384  10.420  19.037  0.00  0.00    +0.000 HD
ENDBRANCH  10  12
ENDBRANCH   7   9
ENDBRANCH   1   7
BRANCH   4  23
ATOM     23  C   UNL     1      44.220   4.015  10.696  0.00  0.00    +0.000 C 
BRANCH  23  24
ATOM     24  N   UNL     1      44.886   3.039   9.866  0.00  0.00    +0.000 N 
ATOM     25  C   UNL     1      45.245   3.290   8.567  0.00  0.00    +0.000 C 
ATOM     26  O   UNL     1      44.962   4.340   7.995  0.00  0.00    +0.000 OA
ATOM     27  H   UNL     1      45.023   2.119  10.263  0.00  0.00    +0.000 HD
BRANCH  25  28
ATOM     28  C   UNL     1      46.008   2.256   7.921  0.00  0.00    +0.000 A 
ATOM     29  N   UNL     1      46.090   0.980   8.436  0.00  0.00    +0.000 N 
ATOM     30  C   UNL     1      46.830   0.220   7.583  0.00  0.00    +0.000 A 
ATOM     31  N   UNL     1      47.250   0.924   6.561  0.00  0.00    +0.000 NA
ATOM     32  C   UNL     1      46.749   2.191   6.755  0.00  0.00    +0.000 A 
ATOM     33 CL   UNL     1      47.048   3.430   5.623  0.00  0.00    +0.000 Cl
ATOM     34  H   UNL     1      45.649   0.674   9.294  0.00  0.00    +0.000 HD
ENDBRANCH  25  28
ENDBRANCH  23  24
ENDBRANCH   4  23
TORSDOF 6
ENDMDL
MODEL 5
REMARK VINA RESULT:    -7.552      3.695      8.272
REMARK INTER + INTRA:         -10.855
REMARK INTER:                  -9.141
REMARK INTRA:                  -1.714
REMARK UNBOUND:                -0.654
REMARK  Name = 
REMARK  7 active torsions:
REMARK  status: ('A' for Active; 'I' for Inactive)
REMARK    1  A    between atoms: C_1  and  N_2
REMARK    2  A    between atoms: N_2  and  C_3
REMARK    3  A    between atoms: C_3  and  C_4
REMARK    4  A    between atoms: C_7  and  C_8
REMARK    5  A    between atoms: C_8  and  N_9
REMARK    6  A    between atoms: C_10  and  C_12
REMARK    7  A    between atoms: C_20  and  C_22
REMARK                            x       y       z     vdW  Elec       q    Type
REMARK                         _______ _______ _______ _____ _____    ______ ____
ROOT
ATOM      1  C   UNL     1      50.052   7.947  16.834  0.00  0.00    +0.000 A 
ATOM      2  C   UNL     1      50.098   7.071  15.745  0.00  0.00    +0.000 A 
ATOM      3  C   UNL     1      49.277   7.291  14.645  0.00  0.00    +0.000 A 
ATOM      4  C   UNL     1      48.411   8.379  14.667  0.00  0.00    +0.000 A 
ATOM      5  N   UNL     1      48.396   9.281  15.684  0.00  0.00    +0.000 NA
ATOM      6  C   UNL     1      49.212   9.046  16.736  0.00  0.00    +0.000 A 
ENDROOT
BRANCH   1   7
ATOM      7  C   UNL     1      50.838   7.678  18.083  0.00  0.00    +0.000 C 
BRANCH   7   9
ATOM      8  C   UNL     1      49.587   8.318  20.198  0.00  0.00    +0.000 C 
ATOM      9  N   UNL     1      50.119   7.300  19.300  0.00  0.00    +0.000 N 
ATOM     10  C   UNL     1      49.776   5.971  19.615  0.00  0.00    +0.000 C 
ATOM     11  O   UNL     1      49.074   5.716  20.593  0.00  0.00    +0.000 OA
BRANCH  10  12
ATOM     12  C   UNL     1      50.295   4.867  18.793  0.00  0.00    +0.000 A 
ATOM     13  C   UNL     1      51.570   4.335  18.904  0.00  0.00    +0.000 A 
ATOM     14  S   UNL     1      51.852   3.010  17.864  0.00  0.00    +0.000 S 
ATOM     15  C   UNL     1      50.234   3.008  17.345  0.00  0.00    +0.000 A 
ATOM     16  N   UNL     1      49.768   2.038  16.514  0.00  0.00    +0.000 NA
ATOM     17  C   UNL     1      48.502   2.118  16.267  0.00  0.00    +0.000 A 
ATOM     18  N   UNL     1      47.673   3.101  16.743  0.00  0.00    +0.000 N 
ATOM     19  C   UNL     1      48.129   4.181  17.471  0.00  0.00    +0.000 A 
ATOM     20  O   UNL     1      47.414   5.155  17.670  0.00  0.00    +0.000 OA
ATOM     21  C   UNL     1      49.517   4.063  17.878  0.00  0.00    +0.000 A 
ATOM     22  H   UNL     1      46.707   3.144  16.454  0.00  0.00    +0.000 HD
ENDBRANCH  10  12
ENDBRANCH   7   9
ENDBRANCH   1   7
BRANCH   4  23
ATOM     23  C   UNL     1      47.416   8.578  13.551  0.00  0.00    +0.000 C 
BRANCH  23  24
ATOM     24  N   UNL     1      46.338   7.616  13.575  0.00  0.00    +0.000 N 
ATOM     25  C   UNL     1      46.148   6.687  12.585  0.00  0.00    +0.000 C 
ATOM     26  O   UNL     1      46.842   6.653  11.571  0.00  0.00    +0.000 OA
ATOM     27  H   UNL     1      45.671   7.696  14.332  0.00  0.00    +0.000 HD
BRANCH  25  28
ATOM     28  C   UNL     1      45.104   5.728  12.822  0.00  0.00    +0.000 A 
ATOM     29  N   UNL     1      43.771   6.080  12.799  0.00  0.00    +0.000 N 
ATOM     30  C   UNL     1      43.028   4.958  13.004  0.00  0.00    +0.000 A 
ATOM     31  N   UNL     1      43.791   3.907  13.179  0.00  0.00    +0.000 NA
ATOM     32  C   UNL     1      45.083   4.367  13.070  0.00  0.00    +0.000 A 
ATOM     33 CL   UNL     1      46.405   3.300  13.214  0.00  0.00    +0.000 Cl
ATOM     34  H   UNL     1      43.424   7.016  12.634  0.00  0.00    +0.000 HD
ENDBRANCH  25  28
ENDBRANCH  23  24
ENDBRANCH   4  23
TORSDOF 6
ENDMDL
MODEL 6
REMARK VINA RESULT:    -7.549      3.184      8.524
REMARK INTER + INTRA:         -10.851
REMARK INTER:                  -9.700
REMARK INTRA:                  -1.150
REMARK UNBOUND:                -0.654
REMARK  Name = 
REMARK  7 active torsions:
REMARK  status: ('A' for Active; 'I' for Inactive)
REMARK    1  A    between atoms: C_1  and  N_2
REMARK    2  A    between atoms: N_2  and  C_3
REMARK    3  A    between atoms: C_3  and  C_4
REMARK    4  A    between atoms: C_7  and  C_8
REMARK    5  A    between atoms: C_8  and  N_9
REMARK    6  A    between atoms: C_10  and  C_12
REMARK    7  A    between atoms: C_20  and  C_22
REMARK                            x       y       z     vdW  Elec       q    Type
REMARK                         _______ _______ _______ _____ _____    ______ ____
ROOT
ATOM      1  C   UNL     1      48.685   7.256  15.036  0.00  0.00    +0.000 A 
ATOM      2  C   UNL     1      48.200   8.529  14.720  0.00  0.00    +0.000 A 
ATOM      3  C   UNL     1      47.231   8.675  13.734  0.00  0.00    +0.000 A 
ATOM      4  C   UNL     1      46.779   7.539  13.071  0.00  0.00    +0.000 A 
ATOM      5  N   UNL     1      47.185   6.287  13.406  0.00  0.00    +0.000 NA
ATOM      6  C   UNL     1      48.122   6.174  14.375  0.00  0.00    +0.000 A 
ENDROOT
BRANCH   1   7
ATOM      7  C   UNL     1      49.810   7.071  16.012  0.00  0.00    +0.000 C 
BRANCH   7   9
ATOM      8  C   UNL     1      49.829   8.753  17.914  0.00  0.00    +0.000 C 
ATOM      9  N   UNL     1      49.584   7.404  17.418  0.00  0.00    +0.000 N 
ATOM     10  C   UNL     1      49.000   6.514  18.341  0.00  0.00    +0.000 C 
ATOM     11  O   UNL     1      48.729   6.879  19.484  0.00  0.00    +0.000 OA
BRANCH  10  12
ATOM     12  C   UNL     1      48.748   5.118  17.951  0.00  0.00    +0.000 A 
ATOM     13  C   UNL     1      47.540   4.641  17.468  0.00  0.00    +0.000 A 
ATOM     14  S   UNL     1      47.581   2.991  17.029  0.00  0.00    +0.000 S 
ATOM     15  C   UNL     1      49.253   2.902  17.324  0.00  0.00    +0.000 A 
ATOM     16  N   UNL     1      49.953   1.772  17.039  0.00  0.00    +0.000 NA
ATOM     17  C   UNL     1      51.225   1.876  17.240  0.00  0.00    +0.000 A 
ATOM     18  N   UNL     1      51.851   2.990  17.737  0.00  0.00    +0.000 N 
ATOM     19  C   UNL     1      51.165   4.105  18.172  0.00  0.00    +0.000 A 
ATOM     20  O   UNL     1      51.724   4.975  18.828  0.00  0.00    +0.000 OA
ATOM     21  C   UNL     1      49.750   4.082  17.846  0.00  0.00    +0.000 A 
ATOM     22  H   UNL     1      52.840   2.980  17.936  0.00  0.00    +0.000 HD
ENDBRANCH  10  12
ENDBRANCH   7   9
ENDBRANCH   1   7
BRANCH   4  23
ATOM     23  C   UNL     1      45.824   7.670  11.910  0.00  0.00    +0.000 C 
BRANCH  23  24
ATOM     24  N   UNL     1      45.669   6.444  11.163  0.00  0.00    +0.000 N 
ATOM     25  C   UNL     1      44.480   5.766  11.085  0.00  0.00    +0.000 C 
ATOM     26  O   UNL     1      43.478   6.120  11.703  0.00  0.00    +0.000 OA
ATOM     27  H   UNL     1      46.505   6.054  10.745  0.00  0.00    +0.000 HD
BRANCH  25  28
ATOM     28  C   UNL     1      44.467   4.630  10.204  0.00  0.00    +0.000 A 
ATOM     29  N   UNL     1      44.968   4.695   8.922  0.00  0.00    +0.000 N 
ATOM     30  C   UNL     1      44.866   3.460   8.358  0.00  0.00    +0.000 A 
ATOM     31  N   UNL     1      44.313   2.605   9.183  0.00  0.00    +0.000 NA
ATOM     32  C   UNL     1      44.059   3.314  10.334  0.00  0.00    +0.000 A 
ATOM     33 CL   UNL     1      43.353   2.557  11.688  0.00  0.00    +0.000 Cl
ATOM     34  H   UNL     1      45.361   5.526   8.496  0.00  0.00    +0.000 HD
ENDBRANCH  25  28
ENDBRANCH  23  24
ENDBRANCH   4  23
TORSDOF 6
ENDMDL
MODEL 7
REMARK VINA RESULT:    -7.396      3.688      8.412
REMARK INTER + INTRA:         -10.644
REMARK INTER:                  -9.205
REMARK INTRA:                  -1.439
REMARK UNBOUND:                -0.654
REMARK  Name = 
REMARK  7 active torsions:
REMARK  status: ('A' for Active; 'I' for Inactive)
REMARK    1  A    between atoms: C_1  and  N_2
REMARK    2  A    between atoms: N_2  and  C_3
REMARK    3  A    between atoms: C_3  and  C_4
REMARK    4  A    between atoms: C_7  and  C_8
REMARK    5  A    between atoms: C_8  and  N_9
REMARK    6  A    between atoms: C_10  and  C_12
REMARK    7  A    between atoms: C_20  and  C_22
REMARK                            x       y       z     vdW  Elec       q    Type
REMARK                         _______ _______ _______ _____ _____    ______ ____
ROOT
ATOM      1  C   UNL     1      48.810   7.977  15.905  0.00  0.00    +0.000 A 
ATOM      2  C   UNL     1      47.943   8.894  15.301  0.00  0.00    +0.000 A 
ATOM      3  C   UNL     1      47.519   8.687  13.994  0.00  0.00    +0.000 A 
ATOM      4  C   UNL     1      47.988   7.570  13.310  0.00  0.00    +0.000 A 
ATOM      5  N   UNL     1      48.777   6.632  13.896  0.00  0.00    +0.000 NA
ATOM      6  C   UNL     1      49.166   6.855  15.172  0.00  0.00    +0.000 A 
ENDROOT
BRANCH   1   7
ATOM      7  C   UNL     1      49.379   8.227  17.271  0.00  0.00    +0.000 C 
BRANCH   7   9
ATOM      8  C   UNL     1      47.569   8.783  18.964  0.00  0.00    +0.000 C 
ATOM      9  N   UNL     1      48.578   7.869  18.442  0.00  0.00    +0.000 N 
ATOM     10  C   UNL     1      48.623   6.600  19.052  0.00  0.00    +0.000 C 
ATOM     11  O   UNL     1      47.851   6.312  19.965  0.00  0.00    +0.000 OA
BRANCH  10  12
ATOM     12  C   UNL     1      49.632   5.619  18.624  0.00  0.00    +0.000 A 
ATOM     13  C   UNL     1      50.944   5.592  19.071  0.00  0.00    +0.000 A 
ATOM     14  S   UNL     1      51.853   4.286  18.452  0.00  0.00    +0.000 S 
ATOM     15  C   UNL     1      50.483   3.628  17.690  0.00  0.00    +0.000 A 
ATOM     16  N   UNL     1      50.545   2.426  17.058  0.00  0.00    +0.000 NA
ATOM     17  C   UNL     1      49.410   2.016  16.594  0.00  0.00    +0.000 A 
ATOM     18  N   UNL     1      48.234   2.716  16.670  0.00  0.00    +0.000 N 
ATOM     19  C   UNL     1      48.155   3.998  17.174  0.00  0.00    +0.000 A 
ATOM     20  O   UNL     1      47.153   4.681  17.007  0.00  0.00    +0.000 OA
ATOM     21  C   UNL     1      49.375   4.445  17.821  0.00  0.00    +0.000 A 
ATOM     22  H   UNL     1      47.398   2.368  16.225  0.00  0.00    +0.000 HD
ENDBRANCH  10  12
ENDBRANCH   7   9
ENDBRANCH   1   7
BRANCH   4  23
ATOM     23  C   UNL     1      47.652   7.379  11.851  0.00  0.00    +0.000 C 
BRANCH  23  24
ATOM     24  N   UNL     1      46.744   6.281  11.619  0.00  0.00    +0.000 N 
ATOM     25  C   UNL     1      45.409   6.461  11.367  0.00  0.00    +0.000 C 
ATOM     26  O   UNL     1      44.877   7.569  11.391  0.00  0.00    +0.000 OA
ATOM     27  H   UNL     1      47.121   5.347  11.716  0.00  0.00    +0.000 HD
BRANCH  25  28
ATOM     28  C   UNL     1      44.670   5.272  11.038  0.00  0.00    +0.000 A 
ATOM     29  N   UNL     1      44.920   4.551   9.890  0.00  0.00    +0.000 N 
ATOM     30  C   UNL     1      44.107   3.459   9.883  0.00  0.00    +0.000 A 
ATOM     31  N   UNL     1      43.333   3.437  10.940  0.00  0.00    +0.000 NA
ATOM     32  C   UNL     1      43.668   4.554  11.668  0.00  0.00    +0.000 A 
ATOM     33 CL   UNL     1      42.900   4.894  13.151  0.00  0.00    +0.000 Cl
ATOM     34  H   UNL     1      45.612   4.797   9.193  0.00  0.00    +0.000 HD
ENDBRANCH  25  28
ENDBRANCH  23  24
ENDBRANCH   4  23
TORSDOF 6
ENDMDL
MODEL 8
REMARK VINA RESULT:    -7.097      3.483      8.496
REMARK INTER + INTRA:         -10.241
REMARK INTER:                  -9.324
REMARK INTRA:                  -0.916
REMARK UNBOUND:                -0.654
REMARK  Name = 
REMARK  7 active torsions:
REMARK  status: ('A' for Active; 'I' for Inactive)
REMARK    1  A    between atoms: C_1  and  N_2
REMARK    2  A    between atoms: N_2  and  C_3
REMARK    3  A    between atoms: C_3  and  C_4
REMARK    4  A    between atoms: C_7  and  C_8
REMARK    5  A    between atoms: C_8  and  N_9
REMARK    6  A    between atoms: C_10  and  C_12
REMARK    7  A    between atoms: C_20  and  C_22
REMARK                            x       y       z     vdW  Elec       q    Type
REMARK                         _______ _______ _______ _____ _____    ______ ____
ROOT
ATOM      1  C   UNL     1      47.752   6.253  13.463  0.00  0.00    +0.000 A 
ATOM      2  C   UNL     1      47.570   6.984  12.285  0.00  0.00    +0.000 A 
ATOM      3  C   UNL     1      46.551   6.638  11.405  0.00  0.00    +0.000 A 
ATOM      4  C   UNL     1      45.743   5.549  11.718  0.00  0.00    +0.000 A 
ATOM      5  N   UNL     1      45.857   4.865  12.886  0.00  0.00    +0.000 NA
ATOM      6  C   UNL     1      46.852   5.231  13.727  0.00  0.00    +0.000 A 
ENDROOT
BRANCH   1   7
ATOM      7  C   UNL     1      48.909   6.525  14.378  0.00  0.00    +0.000 C 
BRANCH   7   9
ATOM      8  C   UNL     1      48.567   8.870  15.289  0.00  0.00    +0.000 C 
ATOM      9  N   UNL     1      48.715   7.436  15.506  0.00  0.00    +0.000 N 
ATOM     10  C   UNL     1      48.525   6.999  16.831  0.00  0.00    +0.000 C 
ATOM     11  O   UNL     1      48.255   7.798  17.726  0.00  0.00    +0.000 OA
BRANCH  10  12
ATOM     12  C   UNL     1      48.691   5.575  17.162  0.00  0.00    +0.000 A 
ATOM     13  C   UNL     1      47.680   4.630  17.103  0.00  0.00    +0.000 A 
ATOM     14  S   UNL     1      48.200   3.046  17.472  0.00  0.00    +0.000 S 
ATOM     15  C   UNL     1      49.821   3.547  17.571  0.00  0.00    +0.000 A 
ATOM     16  N   UNL     1      50.821   2.644  17.756  0.00  0.00    +0.000 NA
ATOM     17  C   UNL     1      52.006   3.159  17.732  0.00  0.00    +0.000 A 
ATOM     18  N   UNL     1      52.277   4.495  17.580  0.00  0.00    +0.000 N 
ATOM     19  C   UNL     1      51.292   5.459  17.531  0.00  0.00    +0.000 A 
ATOM     20  O   UNL     1      51.566   6.648  17.641  0.00  0.00    +0.000 OA
ATOM     21  C   UNL     1      49.950   4.916  17.426  0.00  0.00    +0.000 A 
ATOM     22  H   UNL     1      53.224   4.838  17.641  0.00  0.00    +0.000 HD
ENDBRANCH  10  12
ENDBRANCH   7   9
ENDBRANCH   1   7
BRANCH   4  23
ATOM     23  C   UNL     1      44.711   5.064  10.730  0.00  0.00    +0.000 C 
BRANCH  23  24
ATOM     24  N   UNL     1      45.211   4.034   9.849  0.00  0.00    +0.000 N 
ATOM     25  C   UNL     1      45.861   4.310   8.675  0.00  0.00    +0.000 C 
ATOM     26  O   UNL     1      46.003   5.456   8.253  0.00  0.00    +0.000 OA
ATOM     27  H   UNL     1      45.001   3.076  10.101  0.00  0.00    +0.000 HD
BRANCH  25  28
ATOM     28  C   UNL     1      46.400   3.174   7.978  0.00  0.00    +0.000 A 
ATOM     29  N   UNL     1      47.472   3.285   7.120  0.00  0.00    +0.000 N 
ATOM     30  C   UNL     1      47.783   2.042   6.658  0.00  0.00    +0.000 A 
ATOM     31  N   UNL     1      46.969   1.138   7.143  0.00  0.00    +0.000 NA
ATOM     32  C   UNL     1      46.103   1.822   7.964  0.00  0.00    +0.000 A 
ATOM     33 CL   UNL     1      44.880   1.001   8.822  0.00  0.00    +0.000 Cl
ATOM     34  H   UNL     1      47.950   4.151   6.900  0.00  0.00    +0.000 HD
ENDBRANCH  25  28
ENDBRANCH  23  24
ENDBRANCH   4  23
TORSDOF 6
ENDMDL
MODEL 9
REMARK VINA RESULT:    -6.653      4.019      8.711
REMARK INTER + INTRA:          -9.640
REMARK INTER:                  -7.960
REMARK INTRA:                  -1.680
REMARK UNBOUND:                -0.654
REMARK  Name = 
REMARK  7 active torsions:
REMARK  status: ('A' for Active; 'I' for Inactive)
REMARK    1  A    between atoms: C_1  and  N_2
REMARK    2  A    between atoms: N_2  and  C_3
REMARK    3  A    between atoms: C_3  and  C_4
REMARK    4  A    between atoms: C_7  and  C_8
REMARK    5  A    between atoms: C_8  and  N_9
REMARK    6  A    between atoms: C_10  and  C_12
REMARK    7  A    between atoms: C_20  and  C_22
REMARK                            x       y       z     vdW  Elec       q    Type
REMARK                         _______ _______ _______ _____ _____    ______ ____
ROOT
ATOM      1  C   UNL     1      50.314   8.371  15.854  0.00  0.00    +0.000 A 
ATOM      2  C   UNL     1      49.084   8.739  16.408  0.00  0.00    +0.000 A 
ATOM      3  C   UNL     1      47.971   8.884  15.586  0.00  0.00    +0.000 A 
ATOM      4  C   UNL     1      48.121   8.673  14.219  0.00  0.00    +0.000 A 
ATOM      5  N   UNL     1      49.288   8.250  13.668  0.00  0.00    +0.000 NA
ATOM      6  C   UNL     1      50.351   8.109  14.493  0.00  0.00    +0.000 A 
ENDROOT
BRANCH   1   7
ATOM      7  C   UNL     1      51.559   8.316  16.691  0.00  0.00    +0.000 C 
BRANCH   7   9
ATOM      8  C   UNL     1      53.359   6.695  15.930  0.00  0.00    +0.000 C 
ATOM      9  N   UNL     1      52.261   7.040  16.824  0.00  0.00    +0.000 N 
ATOM     10  C   UNL     1      52.029   6.135  17.879  0.00  0.00    +0.000 C 
ATOM     11  O   UNL     1      52.722   5.128  18.009  0.00  0.00    +0.000 OA
BRANCH  10  12
ATOM     12  C   UNL     1      50.919   6.372  18.814  0.00  0.00    +0.000 A 
ATOM     13  C   UNL     1      50.999   7.165  19.948  0.00  0.00    +0.000 A 
ATOM     14  S   UNL     1      49.521   7.308  20.790  0.00  0.00    +0.000 S 
ATOM     15  C   UNL     1      48.692   6.441  19.585  0.00  0.00    +0.000 A 
ATOM     16  N   UNL     1      47.341   6.291  19.637  0.00  0.00    +0.000 NA
ATOM     17  C   UNL     1      46.840   5.680  18.615  0.00  0.00    +0.000 A 
ATOM     18  N   UNL     1      47.569   5.171  17.571  0.00  0.00    +0.000 N 
ATOM     19  C   UNL     1      48.949   5.176  17.547  0.00  0.00    +0.000 A 
ATOM     20  O   UNL     1      49.568   4.506  16.731  0.00  0.00    +0.000 OA
ATOM     21  C   UNL     1      49.547   5.965  18.609  0.00  0.00    +0.000 A 
ATOM     22  H   UNL     1      47.120   4.643  16.838  0.00  0.00    +0.000 HD
ENDBRANCH  10  12
ENDBRANCH   7   9
ENDBRANCH   1   7
BRANCH   4  23
ATOM     23  C   UNL     1      46.971   8.944  13.281  0.00  0.00    +0.000 C 
BRANCH  23  24
ATOM     24  N   UNL     1      45.955   7.919  13.320  0.00  0.00    +0.000 N 
ATOM     25  C   UNL     1      46.022   6.777  12.564  0.00  0.00    +0.000 C 
ATOM     26  O   UNL     1      46.919   6.579  11.747  0.00  0.00    +0.000 OA
ATOM     27  H   UNL     1      45.138   8.105  13.887  0.00  0.00    +0.000 HD
BRANCH  25  28
ATOM     28  C   UNL     1      44.992   5.804  12.811  0.00  0.00    +0.000 A 
ATOM     29  N   UNL     1      43.655   6.140  12.803  0.00  0.00    +0.000 N 
ATOM     30  C   UNL     1      42.928   5.008  13.013  0.00  0.00    +0.000 A 
ATOM     31  N   UNL     1      43.706   3.967  13.178  0.00  0.00    +0.000 NA
ATOM     32  C   UNL     1      44.991   4.443  13.056  0.00  0.00    +0.000 A 
ATOM     33 CL   UNL     1      46.327   3.392  13.183  0.00  0.00    +0.000 Cl
ATOM     34  H   UNL     1      43.294   7.072  12.644  0.00  0.00    +0.000 HD
ENDBRANCH  25  28
ENDBRANCH  23  24
ENDBRANCH   4  23
TORSDOF 6
ENDMDL
