MODEL 1
REMARK VINA RESULT:    -8.425      0.000      0.000
REMARK INTER + INTRA:         -12.413
REMARK INTER:                 -11.380
REMARK INTRA:                  -1.034
REMARK UNBOUND:                -1.034
REMARK  Name = 
REMARK  7 active torsions:
REMARK  status: ('A' for Active; 'I' for Inactive)
REMARK    1  A    between atoms: C_1  and  C_2
REMARK    2  A    between atoms: C_2  and  N_3
REMARK    3  A    between atoms: C_2  and  C_13
REMARK    4  A    between atoms: C_4  and  C_6
REMARK    5  A    between atoms: C_16  and  C_17
REMARK    6  A    between atoms: C_17  and  N_18
REMARK    7  A    between atoms: C_19  and  C_21
REMARK                            x       y       z     vdW  Elec       q    Type
REMARK                         _______ _______ _______ _____ _____    ______ ____
ROOT
ATOM      1  C   UNL     1      45.549   5.003  11.981  0.00  0.00    +0.000 A 
ATOM      2  C   UNL     1      46.220   6.126  11.477  0.00  0.00    +0.000 A 
ATOM      3  C   UNL     1      47.207   6.769  12.233  0.00  0.00    +0.000 A 
ATOM      4  C   UNL     1      47.555   6.295  13.506  0.00  0.00    +0.000 A 
ATOM      5  C   UNL     1      46.886   5.172  14.009  0.00  0.00    +0.000 A 
ATOM      6  C   UNL     1      45.909   4.525  13.250  0.00  0.00    +0.000 A 
ENDROOT
BRANCH   1   8
ATOM      7  C   UNL     1      43.219   5.276  11.058  0.00  0.00    +0.000 C 
ATOM      8  C   UNL     1      44.430   4.350  11.182  0.00  0.00    +0.000 C 
BRANCH   8   9
ATOM      9  N   UNL     1      44.923   3.953   9.867  0.00  0.00    +0.000 N 
ATOM     10  C   UNL     1      44.827   2.667   9.389  0.00  0.00    +0.000 C 
ATOM     11  O   UNL     1      44.221   1.784   9.994  0.00  0.00    +0.000 OA
ATOM     12  H   UNL     1      45.607   4.562   9.421  0.00  0.00    +0.000 HD
BRANCH  10  13
ATOM     13  C   UNL     1      45.470   2.439   8.016  0.00  0.00    +0.000 C 
ATOM     14  C   UNL     1      46.218   1.096   7.983  0.00  0.00    +0.000 C 
ATOM     15  C   UNL     1      47.168   0.997   6.798  0.00  0.00    +0.000 C 
ATOM     16  C   UNL     1      48.183   2.116   6.900  0.00  0.00    +0.000 C 
ATOM     17  N   UNL     1      47.532   3.399   6.991  0.00  0.00    +0.000 N 
ATOM     18  C   UNL     1      46.317   3.626   7.569  0.00  0.00    +0.000 C 
ATOM     19  O   UNL     1      45.902   4.786   7.632  0.00  0.00    +0.000 OA
ATOM     20  H   UNL     1      48.058   4.237   6.774  0.00  0.00    +0.000 HD
ENDBRANCH  10  13
ENDBRANCH   8   9
ENDBRANCH   1   8
BRANCH   4  21
ATOM     21  C   UNL     1      48.587   7.003  14.347  0.00  0.00    +0.000 C 
BRANCH  21  22
ATOM     22  N   UNL     1      48.250   6.941  15.748  0.00  0.00    +0.000 N 
ATOM     23  C   UNL     1      49.044   6.290  16.655  0.00  0.00    +0.000 C 
ATOM     24  O   UNL     1      50.093   5.743  16.332  0.00  0.00    +0.000 OA
ATOM     25  H   UNL     1      47.295   7.173  15.995  0.00  0.00    +0.000 HD
BRANCH  23  26
ATOM     26  C   UNL     1      48.601   6.346  18.055  0.00  0.00    +0.000 A 
ATOM     27  C   UNL     1      48.657   5.198  18.841  0.00  0.00    +0.000 A 
ATOM     28  S   UNL     1      48.188   5.462  20.459  0.00  0.00    +0.000 S 
ATOM     29  C   UNL     1      47.848   7.101  20.154  0.00  0.00    +0.000 A 
ATOM     30  N   UNL     1      47.381   7.917  21.139  0.00  0.00    +0.000 NA
ATOM     31  C   UNL     1      47.142   9.126  20.760  0.00  0.00    +0.000 A 
ATOM     32  N   UNL     1      47.331   9.600  19.489  0.00  0.00    +0.000 N 
ATOM     33  C   UNL     1      47.814   8.819  18.467  0.00  0.00    +0.000 A 
ATOM     34  O   UNL     1      47.994   9.277  17.342  0.00  0.00    +0.000 OA
ATOM     35  C   UNL     1      48.099   7.446  18.840  0.00  0.00    +0.000 A 
ATOM     36  H   UNL     1      47.130  10.561  19.252  0.00  0.00    +0.000 HD
ENDBRANCH  23  26
ENDBRANCH  21  22
ENDBRANCH   4  21
TORSDOF 6
ENDMDL
MODEL 2
REMARK VINA RESULT:    -8.351      1.612      2.356
REMARK INTER + INTRA:         -12.314
REMARK INTER:                 -10.976
REMARK INTRA:                  -1.338
REMARK UNBOUND:                -1.034
REMARK  Name = 
REMARK  7 active torsions:
REMARK  status: ('A' for Active; 'I' for Inactive)
REMARK    1  A    between atoms: C_1  and  C_2
REMARK    2  A    between atoms: C_2  and  N_3
REMARK    3  A    between atoms: C_2  and  C_13
REMARK    4  A    between atoms: C_4  and  C_6
REMARK    5  A    between atoms: C_16  and  C_17
REMARK    6  A    between atoms: C_17  and  N_18
REMARK    7  A    between atoms: C_19  and  C_21
REMARK                            x       y       z     vdW  Elec       q    Type
REMARK                         _______ _______ _______ _____ _____    ______ ____
ROOT
ATOM      1  C   UNL     1      45.008   5.412  12.102  0.00  0.00    +0.000 A 
ATOM      2  C   UNL     1      45.840   4.801  13.050  0.00  0.00    +0.000 A 
ATOM      3  C   UNL     1      46.895   5.508  13.639  0.00  0.00    +0.000 A 
ATOM      4  C   UNL     1      47.133   6.848  13.301  0.00  0.00    +0.000 A 
ATOM      5  C   UNL     1      46.301   7.459  12.356  0.00  0.00    +0.000 A 
ATOM      6  C   UNL     1      45.243   6.756  11.776  0.00  0.00    +0.000 A 
ENDROOT
BRANCH   1   8
ATOM      7  C   UNL     1      42.598   5.410  11.359  0.00  0.00    +0.000 C 
ATOM      8  C   UNL     1      43.906   4.617  11.416  0.00  0.00    +0.000 C 
BRANCH   8   9
ATOM      9  N   UNL     1      44.336   4.220  10.080  0.00  0.00    +0.000 N 
ATOM     10  C   UNL     1      44.955   3.019   9.819  0.00  0.00    +0.000 C 
ATOM     11  O   UNL     1      45.092   2.151  10.678  0.00  0.00    +0.000 OA
ATOM     12  H   UNL     1      44.447   4.957   9.386  0.00  0.00    +0.000 HD
BRANCH  10  13
ATOM     13  C   UNL     1      45.394   2.822   8.364  0.00  0.00    +0.000 C 
ATOM     14  C   UNL     1      45.990   1.419   8.162  0.00  0.00    +0.000 C 
ATOM     15  C   UNL     1      46.769   1.308   6.859  0.00  0.00    +0.000 C 
ATOM     16  C   UNL     1      47.900   2.316   6.887  0.00  0.00    +0.000 C 
ATOM     17  N   UNL     1      47.400   3.646   7.130  0.00  0.00    +0.000 N 
ATOM     18  C   UNL     1      46.297   3.950   7.873  0.00  0.00    +0.000 C 
ATOM     19  O   UNL     1      46.016   5.138   8.052  0.00  0.00    +0.000 OA
ATOM     20  H   UNL     1      47.979   4.442   6.892  0.00  0.00    +0.000 HD
ENDBRANCH  10  13
ENDBRANCH   8   9
ENDBRANCH   1   8
BRANCH   4  21
ATOM     21  C   UNL     1      48.291   7.608  13.898  0.00  0.00    +0.000 C 
BRANCH  21  22
ATOM     22  N   UNL     1      48.286   7.522  15.338  0.00  0.00    +0.000 N 
ATOM     23  C   UNL     1      49.339   6.991  16.034  0.00  0.00    +0.000 C 
ATOM     24  O   UNL     1      50.351   6.580  15.476  0.00  0.00    +0.000 OA
ATOM     25  H   UNL     1      47.388   7.632  15.795  0.00  0.00    +0.000 HD
BRANCH  23  26
ATOM     26  C   UNL     1      49.217   7.007  17.499  0.00  0.00    +0.000 A 
ATOM     27  C   UNL     1      49.194   8.225  18.174  0.00  0.00    +0.000 A 
ATOM     28  S   UNL     1      48.960   8.061  19.855  0.00  0.00    +0.000 S 
ATOM     29  C   UNL     1      48.930   6.363  19.745  0.00  0.00    +0.000 A 
ATOM     30  N   UNL     1      48.772   5.590  20.854  0.00  0.00    +0.000 NA
ATOM     31  C   UNL     1      48.795   4.320  20.626  0.00  0.00    +0.000 A 
ATOM     32  N   UNL     1      48.955   3.750  19.391  0.00  0.00    +0.000 N 
ATOM     33  C   UNL     1      49.103   4.489  18.243  0.00  0.00    +0.000 A 
ATOM     34  O   UNL     1      49.223   3.950  17.145  0.00  0.00    +0.000 OA
ATOM     35  C   UNL     1      49.085   5.926  18.443  0.00  0.00    +0.000 A 
ATOM     36  H   UNL     1      48.961   2.747  19.273  0.00  0.00    +0.000 HD
ENDBRANCH  23  26
ENDBRANCH  21  22
ENDBRANCH   4  21
TORSDOF 6
ENDMDL
MODEL 3
REMARK VINA RESULT:    -8.034      2.686      3.613
REMARK INTER + INTRA:         -11.886
REMARK INTER:                 -10.830
REMARK INTRA:                  -1.056
REMARK UNBOUND:                -1.034
REMARK  Name = 
REMARK  7 active torsions:
REMARK  status: ('A' for Active; 'I' for Inactive)
REMARK    1  A    between atoms: C_1  and  C_2
REMARK    2  A    between atoms: C_2  and  N_3
REMARK    3  A    between atoms: C_2  and  C_13
REMARK    4  A    between atoms: C_4  and  C_6
REMARK    5  A    between atoms: C_16  and  C_17
REMARK    6  A    between atoms: C_17  and  N_18
REMARK    7  A    between atoms: C_19  and  C_21
REMARK                            x       y       z     vdW  Elec       q    Type
REMARK                         _______ _______ _______ _____ _____    ______ ____
ROOT
ATOM      1  C   UNL     1      45.819   4.795  12.510  0.00  0.00    +0.000 A 
ATOM      2  C   UNL     1      46.374   4.581  13.779  0.00  0.00    +0.000 A 
ATOM      3  C   UNL     1      47.253   5.514  14.343  0.00  0.00    +0.000 A 
ATOM      4  C   UNL     1      47.586   6.688  13.654  0.00  0.00    +0.000 A 
ATOM      5  C   UNL     1      47.030   6.903  12.387  0.00  0.00    +0.000 A 
ATOM      6  C   UNL     1      46.146   5.978  11.830  0.00  0.00    +0.000 A 
ENDROOT
BRANCH   1   8
ATOM      7  C   UNL     1      43.440   4.111  12.030  0.00  0.00    +0.000 C 
ATOM      8  C   UNL     1      44.918   3.745  11.875  0.00  0.00    +0.000 C 
BRANCH   8   9
ATOM      9  N   UNL     1      45.270   3.570  10.471  0.00  0.00    +0.000 N 
ATOM     10  C   UNL     1      44.781   2.542   9.699  0.00  0.00    +0.000 C 
ATOM     11  O   UNL     1      43.927   1.759  10.112  0.00  0.00    +0.000 OA
ATOM     12  H   UNL     1      46.112   4.037  10.138  0.00  0.00    +0.000 HD
BRANCH  10  13
ATOM     13  C   UNL     1      45.329   2.492   8.268  0.00  0.00    +0.000 C 
ATOM     14  C   UNL     1      46.158   1.215   8.049  0.00  0.00    +0.000 C 
ATOM     15  C   UNL     1      47.018   1.298   6.796  0.00  0.00    +0.000 C 
ATOM     16  C   UNL     1      47.963   2.472   6.936  0.00  0.00    +0.000 C 
ATOM     17  N   UNL     1      47.238   3.690   7.200  0.00  0.00    +0.000 N 
ATOM     18  C   UNL     1      46.060   3.774   7.882  0.00  0.00    +0.000 C 
ATOM     19  O   UNL     1      45.577   4.890   8.090  0.00  0.00    +0.000 OA
ATOM     20  H   UNL     1      47.691   4.581   7.031  0.00  0.00    +0.000 HD
ENDBRANCH  10  13
ENDBRANCH   8   9
ENDBRANCH   1   8
BRANCH   4  21
ATOM     21  C   UNL     1      48.563   7.681  14.232  0.00  0.00    +0.000 C 
BRANCH  21  22
ATOM     22  N   UNL     1      49.702   7.014  14.815  0.00  0.00    +0.000 N 
ATOM     23  C   UNL     1      49.944   7.039  16.163  0.00  0.00    +0.000 C 
ATOM     24  O   UNL     1      49.197   7.612  16.950  0.00  0.00    +0.000 OA
ATOM     25  H   UNL     1      50.443   6.743  14.178  0.00  0.00    +0.000 HD
BRANCH  23  26
ATOM     26  C   UNL     1      51.115   6.279  16.621  0.00  0.00    +0.000 A 
ATOM     27  C   UNL     1      52.372   6.879  16.610  0.00  0.00    +0.000 A 
ATOM     28  S   UNL     1      53.600   5.886  17.254  0.00  0.00    +0.000 S 
ATOM     29  C   UNL     1      52.508   4.610  17.524  0.00  0.00    +0.000 A 
ATOM     30  N   UNL     1      52.925   3.429  18.057  0.00  0.00    +0.000 NA
ATOM     31  C   UNL     1      51.997   2.542  18.181  0.00  0.00    +0.000 A 
ATOM     32  N   UNL     1      50.686   2.727  17.828  0.00  0.00    +0.000 N 
ATOM     33  C   UNL     1      50.216   3.905  17.301  0.00  0.00    +0.000 A 
ATOM     34  O   UNL     1      49.030   4.050  17.013  0.00  0.00    +0.000 OA
ATOM     35  C   UNL     1      51.222   4.938  17.139  0.00  0.00    +0.000 A 
ATOM     36  H   UNL     1      50.001   1.996  17.953  0.00  0.00    +0.000 HD
ENDBRANCH  23  26
ENDBRANCH  21  22
ENDBRANCH   4  21
TORSDOF 6
ENDMDL
MODEL 4
REMARK VINA RESULT:    -7.615      3.626      5.119
REMARK INTER + INTRA:         -11.320
REMARK INTER:                 -10.021
REMARK INTRA:                  -1.299
REMARK UNBOUND:                -1.034
REMARK  Name = 
REMARK  7 active torsions:
REMARK  status: ('A' for Active; 'I' for Inactive)
REMARK    1  A    between atoms: C_1  and  C_2
REMARK    2  A    between atoms: C_2  and  N_3
REMARK    3  A    between atoms: C_2  and  C_13
REMARK    4  A    between atoms: C_4  and  C_6
REMARK    5  A    between atoms: C_16  and  C_17
REMARK    6  A    between atoms: C_17  and  N_18
REMARK    7  A    between atoms: C_19  and  C_21
REMARK                            x       y       z     vdW  Elec       q    Type
REMARK                         _______ _______ _______ _____ _____    ______ ____
ROOT
ATOM      1  C   UNL     1      46.855   5.750  13.149  0.00  0.00    +0.000 A 
ATOM      2  C   UNL     1      47.623   6.374  14.142  0.00  0.00    +0.000 A 
ATOM      3  C   UNL     1      47.954   5.697  15.322  0.00  0.00    +0.000 A 
ATOM      4  C   UNL     1      47.535   4.375  15.528  0.00  0.00    +0.000 A 
ATOM      5  C   UNL     1      46.770   3.751  14.536  0.00  0.00    +0.000 A 
ATOM      6  C   UNL     1      46.448   4.423  13.355  0.00  0.00    +0.000 A 
ENDROOT
BRANCH   1   8
ATOM      7  C   UNL     1      47.568   7.423  11.402  0.00  0.00    +0.000 C 
ATOM      8  C   UNL     1      46.442   6.515  11.899  0.00  0.00    +0.000 C 
BRANCH   8   9
ATOM      9  N   UNL     1      46.024   5.581  10.859  0.00  0.00    +0.000 N 
ATOM     10  C   UNL     1      44.708   5.249  10.636  0.00  0.00    +0.000 C 
ATOM     11  O   UNL     1      43.782   5.801  11.228  0.00  0.00    +0.000 OA
ATOM     12  H   UNL     1      46.730   4.945  10.491  0.00  0.00    +0.000 HD
BRANCH  10  13
ATOM     13  C   UNL     1      44.484   4.196   9.545  0.00  0.00    +0.000 C 
ATOM     14  C   UNL     1      44.124   2.837  10.170  0.00  0.00    +0.000 C 
ATOM     15  C   UNL     1      44.260   1.694   9.174  0.00  0.00    +0.000 C 
ATOM     16  C   UNL     1      45.695   1.642   8.693  0.00  0.00    +0.000 C 
ATOM     17  N   UNL     1      46.104   2.913   8.147  0.00  0.00    +0.000 N 
ATOM     18  C   UNL     1      45.644   4.130   8.556  0.00  0.00    +0.000 C 
ATOM     19  O   UNL     1      46.124   5.144   8.044  0.00  0.00    +0.000 OA
ATOM     20  H   UNL     1      46.911   2.951   7.537  0.00  0.00    +0.000 HD
ENDBRANCH  10  13
ENDBRANCH   8   9
ENDBRANCH   1   8
BRANCH   4  21
ATOM     21  C   UNL     1      47.850   3.648  16.812  0.00  0.00    +0.000 C 
BRANCH  21  22
ATOM     22  N   UNL     1      49.274   3.549  17.019  0.00  0.00    +0.000 N 
ATOM     23  C   UNL     1      49.875   4.029  18.154  0.00  0.00    +0.000 C 
ATOM     24  O   UNL     1      49.236   4.549  19.062  0.00  0.00    +0.000 OA
ATOM     25  H   UNL     1      49.838   3.345  16.203  0.00  0.00    +0.000 HD
BRANCH  23  26
ATOM     26  C   UNL     1      51.327   3.821  18.250  0.00  0.00    +0.000 A 
ATOM     27  C   UNL     1      52.142   4.856  18.702  0.00  0.00    +0.000 A 
ATOM     28  S   UNL     1      53.784   4.414  18.834  0.00  0.00    +0.000 S 
ATOM     29  C   UNL     1      53.471   2.848  18.248  0.00  0.00    +0.000 A 
ATOM     30  N   UNL     1      54.474   1.940  18.097  0.00  0.00    +0.000 NA
ATOM     31  C   UNL     1      54.097   0.804  17.619  0.00  0.00    +0.000 A 
ATOM     32  N   UNL     1      52.807   0.485  17.282  0.00  0.00    +0.000 N 
ATOM     33  C   UNL     1      51.761   1.362  17.431  0.00  0.00    +0.000 A 
ATOM     34  O   UNL     1      50.611   1.041  17.141  0.00  0.00    +0.000 OA
ATOM     35  C   UNL     1      52.131   2.659  17.966  0.00  0.00    +0.000 A 
ATOM     36  H   UNL     1      52.571  -0.425  16.915  0.00  0.00    +0.000 HD
ENDBRANCH  23  26
ENDBRANCH  21  22
ENDBRANCH   4  21
TORSDOF 6
ENDMDL
MODEL 5
REMARK VINA RESULT:    -7.381      3.591      5.741
REMARK INTER + INTRA:         -11.004
REMARK INTER:                  -9.746
REMARK INTRA:                  -1.258
REMARK UNBOUND:                -1.034
REMARK  Name = 
REMARK  7 active torsions:
REMARK  status: ('A' for Active; 'I' for Inactive)
REMARK    1  A    between atoms: C_1  and  C_2
REMARK    2  A    between atoms: C_2  and  N_3
REMARK    3  A    between atoms: C_2  and  C_13
REMARK    4  A    between atoms: C_4  and  C_6
REMARK    5  A    between atoms: C_16  and  C_17
REMARK    6  A    between atoms: C_17  and  N_18
REMARK    7  A    between atoms: C_19  and  C_21
REMARK                            x       y       z     vdW  Elec       q    Type
REMARK                         _______ _______ _______ _____ _____    ______ ____
ROOT
ATOM      1  C   UNL     1      48.172   7.579  14.180  0.00  0.00    +0.000 A 
ATOM      2  C   UNL     1      48.269   6.293  14.730  0.00  0.00    +0.000 A 
ATOM      3  C   UNL     1      48.651   6.112  16.065  0.00  0.00    +0.000 A 
ATOM      4  C   UNL     1      48.932   7.216  16.883  0.00  0.00    +0.000 A 
ATOM      5  C   UNL     1      48.834   8.500  16.334  0.00  0.00    +0.000 A 
ATOM      6  C   UNL     1      48.443   8.680  15.005  0.00  0.00    +0.000 A 
ENDROOT
BRANCH   1   8
ATOM      7  C   UNL     1      49.024   8.272  11.910  0.00  0.00    +0.000 C 
ATOM      8  C   UNL     1      47.822   7.764  12.710  0.00  0.00    +0.000 C 
BRANCH   8   9
ATOM      9  N   UNL     1      47.315   6.513  12.157  0.00  0.00    +0.000 N 
ATOM     10  C   UNL     1      45.977   6.197  12.124  0.00  0.00    +0.000 C 
ATOM     11  O   UNL     1      45.105   6.996  12.462  0.00  0.00    +0.000 OA
ATOM     12  H   UNL     1      47.975   5.742  12.064  0.00  0.00    +0.000 HD
BRANCH  10  13
ATOM     13  C   UNL     1      45.656   4.805  11.569  0.00  0.00    +0.000 C 
ATOM     14  C   UNL     1      44.447   4.865  10.620  0.00  0.00    +0.000 C 
ATOM     15  C   UNL     1      43.865   3.486  10.345  0.00  0.00    +0.000 C 
ATOM     16  C   UNL     1      43.420   2.879  11.659  0.00  0.00    +0.000 C 
ATOM     17  N   UNL     1      44.505   2.850  12.608  0.00  0.00    +0.000 N 
ATOM     18  C   UNL     1      45.521   3.759  12.671  0.00  0.00    +0.000 C 
ATOM     19  O   UNL     1      46.354   3.650  13.575  0.00  0.00    +0.000 OA
ATOM     20  H   UNL     1      44.448   2.227  13.405  0.00  0.00    +0.000 HD
ENDBRANCH  10  13
ENDBRANCH   8   9
ENDBRANCH   1   8
BRANCH   4  21
ATOM     21  C   UNL     1      49.384   7.033  18.310  0.00  0.00    +0.000 C 
BRANCH  21  22
ATOM     22  N   UNL     1      50.283   5.911  18.433  0.00  0.00    +0.000 N 
ATOM     23  C   UNL     1      51.594   5.989  18.045  0.00  0.00    +0.000 C 
ATOM     24  O   UNL     1      52.082   7.018  17.592  0.00  0.00    +0.000 OA
ATOM     25  H   UNL     1      49.856   5.004  18.578  0.00  0.00    +0.000 HD
BRANCH  23  26
ATOM     26  C   UNL     1      52.404   4.783  18.270  0.00  0.00    +0.000 A 
ATOM     27  C   UNL     1      53.678   4.902  18.820  0.00  0.00    +0.000 A 
ATOM     28  S   UNL     1      54.440   3.401  19.090  0.00  0.00    +0.000 S 
ATOM     29  C   UNL     1      53.121   2.547  18.440  0.00  0.00    +0.000 A 
ATOM     30  N   UNL     1      53.133   1.188  18.359  0.00  0.00    +0.000 NA
ATOM     31  C   UNL     1      52.080   0.676  17.820  0.00  0.00    +0.000 A 
ATOM     32  N   UNL     1      51.008   1.395  17.359  0.00  0.00    +0.000 N 
ATOM     33  C   UNL     1      50.943   2.765  17.433  0.00  0.00    +0.000 A 
ATOM     34  O   UNL     1      49.960   3.382  17.031  0.00  0.00    +0.000 OA
ATOM     35  C   UNL     1      52.107   3.393  18.031  0.00  0.00    +0.000 A 
ATOM     36  H   UNL     1      50.207   0.937  16.950  0.00  0.00    +0.000 HD
ENDBRANCH  23  26
ENDBRANCH  21  22
ENDBRANCH   4  21
TORSDOF 6
ENDMDL
MODEL 6
REMARK VINA RESULT:    -7.351      4.140      5.887
REMARK INTER + INTRA:         -10.963
REMARK INTER:                  -9.570
REMARK INTRA:                  -1.392
REMARK UNBOUND:                -1.034
REMARK  Name = 
REMARK  7 active torsions:
REMARK  status: ('A' for Active; 'I' for Inactive)
REMARK    1  A    between atoms: C_1  and  C_2
REMARK    2  A    between atoms: C_2  and  N_3
REMARK    3  A    between atoms: C_2  and  C_13
REMARK    4  A    between atoms: C_4  and  C_6
REMARK    5  A    between atoms: C_16  and  C_17
REMARK    6  A    between atoms: C_17  and  N_18
REMARK    7  A    between atoms: C_19  and  C_21
REMARK                            x       y       z     vdW  Elec       q    Type
REMARK                         _______ _______ _______ _____ _____    ______ ____
ROOT
ATOM      1  C   UNL     1      45.301   5.509  12.040  0.00  0.00    +0.000 A 
ATOM      2  C   UNL     1      45.802   5.066  13.272  0.00  0.00    +0.000 A 
ATOM      3  C   UNL     1      46.907   5.692  13.863  0.00  0.00    +0.000 A 
ATOM      4  C   UNL     1      47.527   6.784  13.239  0.00  0.00    +0.000 A 
ATOM      5  C   UNL     1      47.026   7.227  12.009  0.00  0.00    +0.000 A 
ATOM      6  C   UNL     1      45.918   6.610  11.426  0.00  0.00    +0.000 A 
ENDROOT
BRANCH   1   8
ATOM      7  C   UNL     1      42.893   5.663  11.307  0.00  0.00    +0.000 C 
ATOM      8  C   UNL     1      44.143   4.782  11.372  0.00  0.00    +0.000 C 
BRANCH   8   9
ATOM      9  N   UNL     1      44.538   4.334  10.041  0.00  0.00    +0.000 N 
ATOM     10  C   UNL     1      45.070   3.089   9.798  0.00  0.00    +0.000 C 
ATOM     11  O   UNL     1      45.150   2.227  10.670  0.00  0.00    +0.000 OA
ATOM     12  H   UNL     1      44.697   5.051   9.334  0.00  0.00    +0.000 HD
BRANCH  10  13
ATOM     13  C   UNL     1      45.487   2.838   8.344  0.00  0.00    +0.000 C 
ATOM     14  C   UNL     1      46.052   1.417   8.179  0.00  0.00    +0.000 C 
ATOM     15  C   UNL     1      46.814   1.251   6.872  0.00  0.00    +0.000 C 
ATOM     16  C   UNL     1      47.964   2.236   6.854  0.00  0.00    +0.000 C 
ATOM     17  N   UNL     1      47.494   3.583   7.062  0.00  0.00    +0.000 N 
ATOM     18  C   UNL     1      46.406   3.932   7.808  0.00  0.00    +0.000 C 
ATOM     19  O   UNL     1      46.150   5.130   7.953  0.00  0.00    +0.000 OA
ATOM     20  H   UNL     1      48.086   4.360   6.792  0.00  0.00    +0.000 HD
ENDBRANCH  10  13
ENDBRANCH   8   9
ENDBRANCH   1   8
BRANCH   4  21
ATOM     21  C   UNL     1      48.743   7.440  13.844  0.00  0.00    +0.000 C 
BRANCH  21  22
ATOM     22  N   UNL     1      49.904   7.260  13.007  0.00  0.00    +0.000 N 
ATOM     23  C   UNL     1      50.342   8.242  12.157  0.00  0.00    +0.000 C 
ATOM     24  O   UNL     1      49.786   9.332  12.076  0.00  0.00    +0.000 OA
ATOM     25  H   UNL     1      50.231   6.309  12.883  0.00  0.00    +0.000 HD
BRANCH  23  26
ATOM     26  C   UNL     1      51.563   7.938  11.397  0.00  0.00    +0.000 A 
ATOM     27  C   UNL     1      51.465   7.560  10.061  0.00  0.00    +0.000 A 
ATOM     28  S   UNL     1      52.980   7.330   9.312  0.00  0.00    +0.000 S 
ATOM     29  C   UNL     1      53.812   7.678  10.754  0.00  0.00    +0.000 A 
ATOM     30  N   UNL     1      55.172   7.643  10.806  0.00  0.00    +0.000 NA
ATOM     31  C   UNL     1      55.668   7.901  11.969  0.00  0.00    +0.000 A 
ATOM     32  N   UNL     1      54.931   8.199  13.085  0.00  0.00    +0.000 N 
ATOM     33  C   UNL     1      53.559   8.261  13.077  0.00  0.00    +0.000 A 
ATOM     34  O   UNL     1      52.925   8.552  14.088  0.00  0.00    +0.000 OA
ATOM     35  C   UNL     1      52.949   7.976  11.791  0.00  0.00    +0.000 A 
ATOM     36  H   UNL     1      55.376   8.397  13.969  0.00  0.00    +0.000 HD
ENDBRANCH  23  26
ENDBRANCH  21  22
ENDBRANCH   4  21
TORSDOF 6
ENDMDL
MODEL 7
REMARK VINA RESULT:    -7.217      3.156      9.657
REMARK INTER + INTRA:         -10.783
REMARK INTER:                  -9.382
REMARK INTRA:                  -1.401
REMARK UNBOUND:                -1.034
REMARK  Name = 
REMARK  7 active torsions:
REMARK  status: ('A' for Active; 'I' for Inactive)
REMARK    1  A    between atoms: C_1  and  C_2
REMARK    2  A    between atoms: C_2  and  N_3
REMARK    3  A    between atoms: C_2  and  C_13
REMARK    4  A    between atoms: C_4  and  C_6
REMARK    5  A    between atoms: C_16  and  C_17
REMARK    6  A    between atoms: C_17  and  N_18
REMARK    7  A    between atoms: C_19  and  C_21
REMARK                            x       y       z     vdW  Elec       q    Type
REMARK                         _______ _______ _______ _____ _____    ______ ____
ROOT
ATOM      1  C   UNL     1      49.377   8.140  15.621  0.00  0.00    +0.000 A 
ATOM      2  C   UNL     1      49.885   7.368  14.568  0.00  0.00    +0.000 A 
ATOM      3  C   UNL     1      49.229   7.322  13.332  0.00  0.00    +0.000 A 
ATOM      4  C   UNL     1      48.055   8.059  13.119  0.00  0.00    +0.000 A 
ATOM      5  C   UNL     1      47.548   8.831  14.171  0.00  0.00    +0.000 A 
ATOM      6  C   UNL     1      48.209   8.885  15.400  0.00  0.00    +0.000 A 
ENDROOT
BRANCH   1   8
ATOM      7  C   UNL     1      49.312   9.014  17.986  0.00  0.00    +0.000 C 
ATOM      8  C   UNL     1      50.059   8.132  16.982  0.00  0.00    +0.000 C 
BRANCH   8   9
ATOM      9  N   UNL     1      50.174   6.763  17.473  0.00  0.00    +0.000 N 
ATOM     10  C   UNL     1      51.199   6.345  18.291  0.00  0.00    +0.000 C 
ATOM     11  O   UNL     1      52.030   7.124  18.752  0.00  0.00    +0.000 OA
ATOM     12  H   UNL     1      49.661   6.041  16.970  0.00  0.00    +0.000 HD
BRANCH  10  13
ATOM     13  C   UNL     1      51.181   4.852  18.636  0.00  0.00    +0.000 C 
ATOM     14  C   UNL     1      52.082   4.061  17.673  0.00  0.00    +0.000 C 
ATOM     15  C   UNL     1      51.810   2.564  17.732  0.00  0.00    +0.000 C 
ATOM     16  C   UNL     1      50.364   2.322  17.353  0.00  0.00    +0.000 C 
ATOM     17  N   UNL     1      49.475   3.086  18.192  0.00  0.00    +0.000 N 
ATOM     18  C   UNL     1      49.763   4.300  18.745  0.00  0.00    +0.000 C 
ATOM     19  O   UNL     1      48.885   4.874  19.395  0.00  0.00    +0.000 OA
ATOM     20  H   UNL     1      48.501   2.815  18.256  0.00  0.00    +0.000 HD
ENDBRANCH  10  13
ENDBRANCH   8   9
ENDBRANCH   1   8
BRANCH   4  21
ATOM     21  C   UNL     1      47.316   7.986  11.806  0.00  0.00    +0.000 C 
BRANCH  21  22
ATOM     22  N   UNL     1      46.669   6.707  11.643  0.00  0.00    +0.000 N 
ATOM     23  C   UNL     1      45.309   6.595  11.514  0.00  0.00    +0.000 C 
ATOM     24  O   UNL     1      44.570   7.574  11.511  0.00  0.00    +0.000 OA
ATOM     25  H   UNL     1      47.219   5.888  11.875  0.00  0.00    +0.000 HD
BRANCH  23  26
ATOM     26  C   UNL     1      44.792   5.235  11.309  0.00  0.00    +0.000 A 
ATOM     27  C   UNL     1      44.042   4.625  12.312  0.00  0.00    +0.000 A 
ATOM     28  S   UNL     1      43.450   3.088  11.873  0.00  0.00    +0.000 S 
ATOM     29  C   UNL     1      44.213   3.162  10.355  0.00  0.00    +0.000 A 
ATOM     30  N   UNL     1      44.116   2.133   9.468  0.00  0.00    +0.000 NA
ATOM     31  C   UNL     1      44.766   2.314   8.369  0.00  0.00    +0.000 A 
ATOM     32  N   UNL     1      45.499   3.432   8.068  0.00  0.00    +0.000 N 
ATOM     33  C   UNL     1      45.613   4.500   8.923  0.00  0.00    +0.000 A 
ATOM     34  O   UNL     1      46.260   5.499   8.617  0.00  0.00    +0.000 OA
ATOM     35  C   UNL     1      44.901   4.347  10.178  0.00  0.00    +0.000 A 
ATOM     36  H   UNL     1      45.984   3.519   7.186  0.00  0.00    +0.000 HD
ENDBRANCH  23  26
ENDBRANCH  21  22
ENDBRANCH   4  21
TORSDOF 6
ENDMDL
MODEL 8
REMARK VINA RESULT:    -7.006      6.148      9.537
REMARK INTER + INTRA:         -10.497
REMARK INTER:                  -9.403
REMARK INTRA:                  -1.094
REMARK UNBOUND:                -1.034
REMARK  Name = 
REMARK  7 active torsions:
REMARK  status: ('A' for Active; 'I' for Inactive)
REMARK    1  A    between atoms: C_1  and  C_2
REMARK    2  A    between atoms: C_2  and  N_3
REMARK    3  A    between atoms: C_2  and  C_13
REMARK    4  A    between atoms: C_4  and  C_6
REMARK    5  A    between atoms: C_16  and  C_17
REMARK    6  A    between atoms: C_17  and  N_18
REMARK    7  A    between atoms: C_19  and  C_21
REMARK                            x       y       z     vdW  Elec       q    Type
REMARK                         _______ _______ _______ _____ _____    ______ ____
ROOT
ATOM      1  C   UNL     1      48.567   8.524  11.953  0.00  0.00    +0.000 A 
ATOM      2  C   UNL     1      49.487   7.505  11.669  0.00  0.00    +0.000 A 
ATOM      3  C   UNL     1      50.768   7.809  11.194  0.00  0.00    +0.000 A 
ATOM      4  C   UNL     1      51.162   9.141  11.004  0.00  0.00    +0.000 A 
ATOM      5  C   UNL     1      50.245  10.159  11.289  0.00  0.00    +0.000 A 
ATOM      6  C   UNL     1      48.970   9.856  11.773  0.00  0.00    +0.000 A 
ENDROOT
BRANCH   1   8
ATOM      7  C   UNL     1      46.170   9.299  12.047  0.00  0.00    +0.000 C 
ATOM      8  C   UNL     1      47.154   8.183  12.405  0.00  0.00    +0.000 C 
BRANCH   8   9
ATOM      9  N   UNL     1      46.738   6.912  11.823  0.00  0.00    +0.000 N 
ATOM     10  C   UNL     1      45.724   6.145  12.348  0.00  0.00    +0.000 C 
ATOM     11  O   UNL     1      45.025   6.531  13.283  0.00  0.00    +0.000 OA
ATOM     12  H   UNL     1      47.396   6.444  11.201  0.00  0.00    +0.000 HD
BRANCH  10  13
ATOM     13  C   UNL     1      45.488   4.809  11.634  0.00  0.00    +0.000 C 
ATOM     14  C   UNL     1      44.254   4.893  10.721  0.00  0.00    +0.000 C 
ATOM     15  C   UNL     1      43.765   3.517  10.290  0.00  0.00    +0.000 C 
ATOM     16  C   UNL     1      43.400   2.726  11.529  0.00  0.00    +0.000 C 
ATOM     17  N   UNL     1      44.508   2.664  12.448  0.00  0.00    +0.000 N 
ATOM     18  C   UNL     1      45.458   3.631  12.603  0.00  0.00    +0.000 C 
ATOM     19  O   UNL     1      46.320   3.477  13.473  0.00  0.00    +0.000 OA
ATOM     20  H   UNL     1      44.517   1.947  13.164  0.00  0.00    +0.000 HD
ENDBRANCH  10  13
ENDBRANCH   8   9
ENDBRANCH   1   8
BRANCH   4  21
ATOM     21  C   UNL     1      52.525   9.480  10.454  0.00  0.00    +0.000 C 
BRANCH  21  22
ATOM     22  N   UNL     1      52.781   8.774   9.222  0.00  0.00    +0.000 N 
ATOM     23  C   UNL     1      54.002   8.818   8.603  0.00  0.00    +0.000 C 
ATOM     24  O   UNL     1      54.950   9.442   9.070  0.00  0.00    +0.000 OA
ATOM     25  H   UNL     1      51.969   8.456   8.705  0.00  0.00    +0.000 HD
BRANCH  23  26
ATOM     26  C   UNL     1      54.133   8.016   7.379  0.00  0.00    +0.000 A 
ATOM     27  C   UNL     1      54.441   8.643   6.174  0.00  0.00    +0.000 A 
ATOM     28  S   UNL     1      54.639   7.554   4.877  0.00  0.00    +0.000 S 
ATOM     29  C   UNL     1      54.275   6.218   5.865  0.00  0.00    +0.000 A 
ATOM     30  N   UNL     1      54.256   4.954   5.360  0.00  0.00    +0.000 NA
ATOM     31  C   UNL     1      53.938   4.043   6.215  0.00  0.00    +0.000 A 
ATOM     32  N   UNL     1      53.644   4.275   7.533  0.00  0.00    +0.000 N 
ATOM     33  C   UNL     1      53.665   5.530   8.091  0.00  0.00    +0.000 A 
ATOM     34  O   UNL     1      53.418   5.705   9.282  0.00  0.00    +0.000 OA
ATOM     35  C   UNL     1      54.016   6.594   7.170  0.00  0.00    +0.000 A 
ATOM     36  H   UNL     1      53.406   3.518   8.158  0.00  0.00    +0.000 HD
ENDBRANCH  23  26
ENDBRANCH  21  22
ENDBRANCH   4  21
TORSDOF 6
ENDMDL
MODEL 9
REMARK VINA RESULT:    -6.697      5.799      9.339
REMARK INTER + INTRA:         -10.080
REMARK INTER:                  -8.612
REMARK INTRA:                  -1.469
REMARK UNBOUND:                -1.034
REMARK  Name = 
REMARK  7 active torsions:
REMARK  status: ('A' for Active; 'I' for Inactive)
REMARK    1  A    between atoms: C_1  and  C_2
REMARK    2  A    between atoms: C_2  and  N_3
REMARK    3  A    between atoms: C_2  and  C_13
REMARK    4  A    between atoms: C_4  and  C_6
REMARK    5  A    between atoms: C_16  and  C_17
REMARK    6  A    between atoms: C_17  and  N_18
REMARK    7  A    between atoms: C_19  and  C_21
REMARK                            x       y       z     vdW  Elec       q    Type
REMARK                         _______ _______ _______ _____ _____    ______ ____
ROOT
ATOM      1  C   UNL     1      49.597   7.335  13.663  0.00  0.00    +0.000 A 
ATOM      2  C   UNL     1      49.344   7.326  12.284  0.00  0.00    +0.000 A 
ATOM      3  C   UNL     1      50.132   8.080  11.407  0.00  0.00    +0.000 A 
ATOM      4  C   UNL     1      51.200   8.850  11.889  0.00  0.00    +0.000 A 
ATOM      5  C   UNL     1      51.454   8.859  13.266  0.00  0.00    +0.000 A 
ATOM      6  C   UNL     1      50.673   8.098  14.139  0.00  0.00    +0.000 A 
ENDROOT
BRANCH   1   8
ATOM      7  C   UNL     1      48.711   7.181  16.019  0.00  0.00    +0.000 C 
ATOM      8  C   UNL     1      48.694   6.566  14.617  0.00  0.00    +0.000 C 
BRANCH   8   9
ATOM      9  N   UNL     1      47.337   6.513  14.085  0.00  0.00    +0.000 N 
ATOM     10  C   UNL     1      46.750   5.348  13.648  0.00  0.00    +0.000 C 
ATOM     11  O   UNL     1      47.291   4.251  13.776  0.00  0.00    +0.000 OA
ATOM     12  H   UNL     1      46.928   7.387  13.759  0.00  0.00    +0.000 HD
BRANCH  10  13
ATOM     13  C   UNL     1      45.345   5.515  13.057  0.00  0.00    +0.000 C 
ATOM     14  C   UNL     1      44.684   4.145  12.833  0.00  0.00    +0.000 C 
ATOM     15  C   UNL     1      43.470   4.236  11.919  0.00  0.00    +0.000 C 
ATOM     16  C   UNL     1      43.916   4.784  10.580  0.00  0.00    +0.000 C 
ATOM     17  N   UNL     1      44.594   6.047  10.738  0.00  0.00    +0.000 N 
ATOM     18  C   UNL     1      45.339   6.410  11.821  0.00  0.00    +0.000 C 
ATOM     19  O   UNL     1      45.918   7.500  11.800  0.00  0.00    +0.000 OA
ATOM     20  H   UNL     1      44.688   6.661   9.938  0.00  0.00    +0.000 HD
ENDBRANCH  10  13
ENDBRANCH   8   9
ENDBRANCH   1   8
BRANCH   4  21
ATOM     21  C   UNL     1      52.031   9.700  10.960  0.00  0.00    +0.000 C 
BRANCH  21  22
ATOM     22  N   UNL     1      52.273   9.021   9.709  0.00  0.00    +0.000 N 
ATOM     23  C   UNL     1      53.454   9.158   9.029  0.00  0.00    +0.000 C 
ATOM     24  O   UNL     1      54.377   9.845   9.453  0.00  0.00    +0.000 OA
ATOM     25  H   UNL     1      51.461   8.648   9.232  0.00  0.00    +0.000 HD
BRANCH  23  26
ATOM     26  C   UNL     1      53.579   8.374   7.792  0.00  0.00    +0.000 A 
ATOM     27  C   UNL     1      53.677   9.031   6.568  0.00  0.00    +0.000 A 
ATOM     28  S   UNL     1      53.902   7.973   5.250  0.00  0.00    +0.000 S 
ATOM     29  C   UNL     1      53.827   6.605   6.258  0.00  0.00    +0.000 A 
ATOM     30  N   UNL     1      53.939   5.348   5.748  0.00  0.00    +0.000 NA
ATOM     31  C   UNL     1      53.837   4.406   6.623  0.00  0.00    +0.000 A 
ATOM     32  N   UNL     1      53.641   4.602   7.965  0.00  0.00    +0.000 N 
ATOM     33  C   UNL     1      53.538   5.851   8.527  0.00  0.00    +0.000 A 
ATOM     34  O   UNL     1      53.384   5.997   9.737  0.00  0.00    +0.000 OA
ATOM     35  C   UNL     1      53.644   6.949   7.584  0.00  0.00    +0.000 A 
ATOM     36  H   UNL     1      53.574   3.824   8.604  0.00  0.00    +0.000 HD
ENDBRANCH  23  26
ENDBRANCH  21  22
ENDBRANCH   4  21
TORSDOF 6
ENDMDL
