MODEL 1
REMARK VINA RESULT:    -6.533      0.000      0.000
REMARK INTER + INTRA:          -8.140
REMARK INTER:                  -7.679
REMARK INTRA:                  -0.462
REMARK UNBOUND:                -0.462
REMARK  Name = 
REMARK  4 active torsions:
REMARK  status: ('A' for Active; 'I' for Inactive)
REMARK    1  A    between atoms: C_1  and  C_2
REMARK    2  A    between atoms: C_2  and  N_3
REMARK    3  A    between atoms: C_2  and  C_10
REMARK    4  A    between atoms: N_3  and  C_4
REMARK                            x       y       z     vdW  Elec       q    Type
REMARK                         _______ _______ _______ _____ _____    ______ ____
ROOT
ATOM      1  C   UNL     1      42.376   5.503  11.767  0.00  0.00    +0.000 C 
ATOM      2  C   UNL     1      43.529   4.614  11.297  0.00  0.00    +0.000 C 
ENDROOT
BRANCH   2   3
ATOM      3  C   UNL     1      44.767   5.001  12.118  0.00  0.00    +0.000 A 
ATOM      4  C   UNL     1      45.498   6.134  11.758  0.00  0.00    +0.000 A 
ATOM      5  C   UNL     1      46.714   6.384  12.387  0.00  0.00    +0.000 A 
ATOM      6  C   UNL     1      47.170   5.503  13.360  0.00  0.00    +0.000 A 
ATOM      7  C   UNL     1      46.374   4.417  13.682  0.00  0.00    +0.000 A 
ATOM      8  N   UNL     1      45.186   4.151  13.096  0.00  0.00    +0.000 NA
ENDBRANCH   2   3
BRANCH   2   9
ATOM      9  N   UNL     1      43.769   4.799   9.859  0.00  0.00    +0.000 N 
ATOM     10  H   UNL     1      43.873   5.785   9.624  0.00  0.00    +0.000 HD
BRANCH   9  11
ATOM     11  C   UNL     1      44.577   3.923   9.136  0.00  0.00    +0.000 A 
ATOM     12  C   UNL     1      45.529   4.348   8.207  0.00  0.00    +0.000 A 
ATOM     13  C   UNL     1      46.348   3.413   7.586  0.00  0.00    +0.000 A 
ATOM     14  N   UNL     1      46.290   2.089   7.823  0.00  0.00    +0.000 NA
ATOM     15  C   UNL     1      45.385   1.692   8.738  0.00  0.00    +0.000 A 
ATOM     16  C   UNL     1      44.536   2.556   9.419  0.00  0.00    +0.000 A 
ENDBRANCH   9  11
ENDBRANCH   2   9
TORSDOF 3
ENDMDL
MODEL 2
REMARK VINA RESULT:    -6.522      1.369      5.369
REMARK INTER + INTRA:          -8.127
REMARK INTER:                  -8.065
REMARK INTRA:                  -0.063
REMARK UNBOUND:                -0.462
REMARK  Name = 
REMARK  4 active torsions:
REMARK  status: ('A' for Active; 'I' for Inactive)
REMARK    1  A    between atoms: C_1  and  C_2
REMARK    2  A    between atoms: C_2  and  N_3
REMARK    3  A    between atoms: C_2  and  C_10
REMARK    4  A    between atoms: N_3  and  C_4
REMARK                            x       y       z     vdW  Elec       q    Type
REMARK                         _______ _______ _______ _____ _____    ______ ____
ROOT
ATOM      1  C   UNL     1      44.383   2.281   9.895  0.00  0.00    +0.000 C 
ATOM      2  C   UNL     1      44.595   3.304   8.777  0.00  0.00    +0.000 C 
ENDROOT
BRANCH   2   3
ATOM      3  C   UNL     1      45.789   2.822   7.941  0.00  0.00    +0.000 A 
ATOM      4  C   UNL     1      46.245   3.612   6.884  0.00  0.00    +0.000 A 
ATOM      5  C   UNL     1      47.206   3.097   6.019  0.00  0.00    +0.000 A 
ATOM      6  C   UNL     1      47.691   1.813   6.228  0.00  0.00    +0.000 A 
ATOM      7  C   UNL     1      47.211   1.102   7.315  0.00  0.00    +0.000 A 
ATOM      8  N   UNL     1      46.285   1.576   8.177  0.00  0.00    +0.000 NA
ENDBRANCH   2   3
BRANCH   2   9
ATOM      9  N   UNL     1      44.847   4.638   9.340  0.00  0.00    +0.000 N 
ATOM     10  H   UNL     1      44.753   5.363   8.630  0.00  0.00    +0.000 HD
BRANCH   9  11
ATOM     11  C   UNL     1      44.403   4.985  10.615  0.00  0.00    +0.000 A 
ATOM     12  C   UNL     1      43.053   5.126  10.945  0.00  0.00    +0.000 A 
ATOM     13  C   UNL     1      42.691   5.399  12.259  0.00  0.00    +0.000 A 
ATOM     14  N   UNL     1      43.574   5.541  13.266  0.00  0.00    +0.000 NA
ATOM     15  C   UNL     1      44.872   5.380  12.942  0.00  0.00    +0.000 A 
ATOM     16  C   UNL     1      45.323   5.090  11.660  0.00  0.00    +0.000 A 
ENDBRANCH   9  11
ENDBRANCH   2   9
TORSDOF 3
ENDMDL
MODEL 3
REMARK VINA RESULT:    -6.451      1.455      5.500
REMARK INTER + INTRA:          -8.045
REMARK INTER:                  -7.913
REMARK INTRA:                  -0.132
REMARK UNBOUND:                -0.462
REMARK  Name = 
REMARK  4 active torsions:
REMARK  status: ('A' for Active; 'I' for Inactive)
REMARK    1  A    between atoms: C_1  and  C_2
REMARK    2  A    between atoms: C_2  and  N_3
REMARK    3  A    between atoms: C_2  and  C_10
REMARK    4  A    between atoms: N_3  and  C_4
REMARK                            x       y       z     vdW  Elec       q    Type
REMARK                         _______ _______ _______ _____ _____    ______ ____
ROOT
ATOM      1  C   UNL     1      44.400   2.323   9.751  0.00  0.00    +0.000 C 
ATOM      2  C   UNL     1      44.644   3.433   8.726  0.00  0.00    +0.000 C 
ENDROOT
BRANCH   2   3
ATOM      3  C   UNL     1      45.722   2.929   7.757  0.00  0.00    +0.000 A 
ATOM      4  C   UNL     1      46.315   1.685   7.982  0.00  0.00    +0.000 A 
ATOM      5  C   UNL     1      47.411   1.308   7.213  0.00  0.00    +0.000 A 
ATOM      6  C   UNL     1      47.889   2.175   6.238  0.00  0.00    +0.000 A 
ATOM      7  C   UNL     1      47.230   3.378   6.056  0.00  0.00    +0.000 A 
ATOM      8  N   UNL     1      46.159   3.771   6.780  0.00  0.00    +0.000 NA
ENDBRANCH   2   3
BRANCH   2   9
ATOM      9  N   UNL     1      45.071   4.669   9.398  0.00  0.00    +0.000 N 
ATOM     10  H   UNL     1      45.164   5.437   8.735  0.00  0.00    +0.000 HD
BRANCH   9  11
ATOM     11  C   UNL     1      44.586   5.018  10.656  0.00  0.00    +0.000 A 
ATOM     12  C   UNL     1      43.225   5.144  10.945  0.00  0.00    +0.000 A 
ATOM     13  C   UNL     1      42.821   5.421  12.246  0.00  0.00    +0.000 A 
ATOM     14  N   UNL     1      43.672   5.580  13.278  0.00  0.00    +0.000 NA
ATOM     15  C   UNL     1      44.981   5.433  12.994  0.00  0.00    +0.000 A 
ATOM     16  C   UNL     1      45.473   5.141  11.727  0.00  0.00    +0.000 A 
ENDBRANCH   9  11
ENDBRANCH   2   9
TORSDOF 3
ENDMDL
MODEL 4
REMARK VINA RESULT:    -6.235      0.839      1.780
REMARK INTER + INTRA:          -7.790
REMARK INTER:                  -7.305
REMARK INTRA:                  -0.486
REMARK UNBOUND:                -0.462
REMARK  Name = 
REMARK  4 active torsions:
REMARK  status: ('A' for Active; 'I' for Inactive)
REMARK    1  A    between atoms: C_1  and  C_2
REMARK    2  A    between atoms: C_2  and  N_3
REMARK    3  A    between atoms: C_2  and  C_10
REMARK    4  A    between atoms: N_3  and  C_4
REMARK                            x       y       z     vdW  Elec       q    Type
REMARK                         _______ _______ _______ _____ _____    ______ ____
ROOT
ATOM      1  C   UNL     1      42.675   5.143  11.622  0.00  0.00    +0.000 C 
ATOM      2  C   UNL     1      43.825   4.252  11.147  0.00  0.00    +0.000 C 
ENDROOT
BRANCH   2   3
ATOM      3  C   UNL     1      45.101   4.746  11.844  0.00  0.00    +0.000 A 
ATOM      4  C   UNL     1      45.628   4.009  12.906  0.00  0.00    +0.000 A 
ATOM      5  C   UNL     1      46.675   4.545  13.649  0.00  0.00    +0.000 A 
ATOM      6  C   UNL     1      47.173   5.799  13.316  0.00  0.00    +0.000 A 
ATOM      7  C   UNL     1      46.616   6.456  12.233  0.00  0.00    +0.000 A 
ATOM      8  N   UNL     1      45.605   5.959  11.486  0.00  0.00    +0.000 NA
ENDBRANCH   2   3
BRANCH   2   9
ATOM      9  N   UNL     1      43.959   4.320   9.686  0.00  0.00    +0.000 N 
ATOM     10  H   UNL     1      43.870   5.279   9.350  0.00  0.00    +0.000 HD
BRANCH   9  11
ATOM     11  C   UNL     1      44.879   3.529   9.001  0.00  0.00    +0.000 A 
ATOM     12  C   UNL     1      44.975   2.145   9.170  0.00  0.00    +0.000 A 
ATOM     13  C   UNL     1      45.868   1.418   8.391  0.00  0.00    +0.000 A 
ATOM     14  N   UNL     1      46.669   1.967   7.458  0.00  0.00    +0.000 NA
ATOM     15  C   UNL     1      46.552   3.298   7.286  0.00  0.00    +0.000 A 
ATOM     16  C   UNL     1      45.676   4.101   8.008  0.00  0.00    +0.000 A 
ENDBRANCH   9  11
ENDBRANCH   2   9
TORSDOF 3
ENDMDL
MODEL 5
REMARK VINA RESULT:    -6.061      1.783      5.125
REMARK INTER + INTRA:          -7.585
REMARK INTER:                  -7.339
REMARK INTRA:                  -0.246
REMARK UNBOUND:                -0.462
REMARK  Name = 
REMARK  4 active torsions:
REMARK  status: ('A' for Active; 'I' for Inactive)
REMARK    1  A    between atoms: C_1  and  C_2
REMARK    2  A    between atoms: C_2  and  N_3
REMARK    3  A    between atoms: C_2  and  C_10
REMARK    4  A    between atoms: N_3  and  C_4
REMARK                            x       y       z     vdW  Elec       q    Type
REMARK                         _______ _______ _______ _____ _____    ______ ____
ROOT
ATOM      1  C   UNL     1      44.692   3.071  11.118  0.00  0.00    +0.000 C 
ATOM      2  C   UNL     1      44.205   3.652   9.789  0.00  0.00    +0.000 C 
ENDROOT
BRANCH   2   3
ATOM      3  C   UNL     1      45.160   3.151   8.696  0.00  0.00    +0.000 A 
ATOM      4  C   UNL     1      45.613   1.832   8.738  0.00  0.00    +0.000 A 
ATOM      5  C   UNL     1      46.611   1.430   7.856  0.00  0.00    +0.000 A 
ATOM      6  C   UNL     1      47.132   2.349   6.953  0.00  0.00    +0.000 A 
ATOM      7  C   UNL     1      46.611   3.631   6.954  0.00  0.00    +0.000 A 
ATOM      8  N   UNL     1      45.637   4.051   7.791  0.00  0.00    +0.000 NA
ENDBRANCH   2   3
BRANCH   2   9
ATOM      9  N   UNL     1      44.188   5.121   9.845  0.00  0.00    +0.000 N 
ATOM     10  H   UNL     1      43.258   5.488   9.647  0.00  0.00    +0.000 HD
BRANCH   9  11
ATOM     11  C   UNL     1      44.918   5.821  10.803  0.00  0.00    +0.000 A 
ATOM     12  C   UNL     1      46.302   5.999  10.733  0.00  0.00    +0.000 A 
ATOM     13  C   UNL     1      46.944   6.778  11.689  0.00  0.00    +0.000 A 
ATOM     14  N   UNL     1      46.309   7.392  12.706  0.00  0.00    +0.000 NA
ATOM     15  C   UNL     1      44.972   7.234  12.750  0.00  0.00    +0.000 A 
ATOM     16  C   UNL     1      44.246   6.488  11.830  0.00  0.00    +0.000 A 
ENDBRANCH   9  11
ENDBRANCH   2   9
TORSDOF 3
ENDMDL
MODEL 6
REMARK VINA RESULT:    -5.796      1.322      4.730
REMARK INTER + INTRA:          -7.275
REMARK INTER:                  -7.568
REMARK INTRA:                   0.293
REMARK UNBOUND:                -0.462
REMARK  Name = 
REMARK  4 active torsions:
REMARK  status: ('A' for Active; 'I' for Inactive)
REMARK    1  A    between atoms: C_1  and  C_2
REMARK    2  A    between atoms: C_2  and  N_3
REMARK    3  A    between atoms: C_2  and  C_10
REMARK    4  A    between atoms: N_3  and  C_4
REMARK                            x       y       z     vdW  Elec       q    Type
REMARK                         _______ _______ _______ _____ _____    ______ ____
ROOT
ATOM      1  C   UNL     1      43.316   3.715  11.380  0.00  0.00    +0.000 C 
ATOM      2  C   UNL     1      43.838   4.640  10.278  0.00  0.00    +0.000 C 
ENDROOT
BRANCH   2   3
ATOM      3  C   UNL     1      44.833   3.828   9.437  0.00  0.00    +0.000 A 
ATOM      4  C   UNL     1      45.582   4.476   8.453  0.00  0.00    +0.000 A 
ATOM      5  C   UNL     1      46.348   3.716   7.574  0.00  0.00    +0.000 A 
ATOM      6  C   UNL     1      46.352   2.332   7.698  0.00  0.00    +0.000 A 
ATOM      7  C   UNL     1      45.606   1.766   8.717  0.00  0.00    +0.000 A 
ATOM      8  N   UNL     1      44.859   2.475   9.591  0.00  0.00    +0.000 NA
ENDBRANCH   2   3
BRANCH   2   9
ATOM      9  N   UNL     1      44.481   5.825  10.862  0.00  0.00    +0.000 N 
ATOM     10  H   UNL     1      43.804   6.568  11.033  0.00  0.00    +0.000 HD
BRANCH   9  11
ATOM     11  C   UNL     1      45.497   5.710  11.809  0.00  0.00    +0.000 A 
ATOM     12  C   UNL     1      45.461   4.796  12.864  0.00  0.00    +0.000 A 
ATOM     13  C   UNL     1      46.551   4.692  13.721  0.00  0.00    +0.000 A 
ATOM     14  N   UNL     1      47.672   5.429  13.602  0.00  0.00    +0.000 NA
ATOM     15  C   UNL     1      47.706   6.291  12.567  0.00  0.00    +0.000 A 
ATOM     16  C   UNL     1      46.671   6.450  11.653  0.00  0.00    +0.000 A 
ENDBRANCH   9  11
ENDBRANCH   2   9
TORSDOF 3
ENDMDL
MODEL 7
REMARK VINA RESULT:    -5.375      2.571      4.694
REMARK INTER + INTRA:          -6.780
REMARK INTER:                  -6.385
REMARK INTRA:                  -0.394
REMARK UNBOUND:                -0.462
REMARK  Name = 
REMARK  4 active torsions:
REMARK  status: ('A' for Active; 'I' for Inactive)
REMARK    1  A    between atoms: C_1  and  C_2
REMARK    2  A    between atoms: C_2  and  N_3
REMARK    3  A    between atoms: C_2  and  C_10
REMARK    4  A    between atoms: N_3  and  C_4
REMARK                            x       y       z     vdW  Elec       q    Type
REMARK                         _______ _______ _______ _____ _____    ______ ____
ROOT
ATOM      1  C   UNL     1      47.628   5.593  13.729  0.00  0.00    +0.000 C 
ATOM      2  C   UNL     1      46.553   4.770  14.442  0.00  0.00    +0.000 C 
ENDROOT
BRANCH   2   3
ATOM      3  C   UNL     1      47.239   4.029  15.598  0.00  0.00    +0.000 A 
ATOM      4  C   UNL     1      47.278   4.622  16.861  0.00  0.00    +0.000 A 
ATOM      5  C   UNL     1      48.050   4.037  17.860  0.00  0.00    +0.000 A 
ATOM      6  C   UNL     1      48.761   2.877  17.579  0.00  0.00    +0.000 A 
ATOM      7  C   UNL     1      48.649   2.334  16.312  0.00  0.00    +0.000 A 
ATOM      8  N   UNL     1      47.902   2.872  15.322  0.00  0.00    +0.000 NA
ENDBRANCH   2   3
BRANCH   2   9
ATOM      9  N   UNL     1      45.923   3.826  13.508  0.00  0.00    +0.000 N 
ATOM     10  H   UNL     1      45.720   2.936  13.961  0.00  0.00    +0.000 HD
BRANCH   9  11
ATOM     11  C   UNL     1      44.985   4.248  12.569  0.00  0.00    +0.000 A 
ATOM     12  C   UNL     1      44.934   3.757  11.262  0.00  0.00    +0.000 A 
ATOM     13  C   UNL     1      43.917   4.174  10.410  0.00  0.00    +0.000 A 
ATOM     14  N   UNL     1      42.949   5.040  10.765  0.00  0.00    +0.000 NA
ATOM     15  C   UNL     1      42.993   5.489  12.034  0.00  0.00    +0.000 A 
ATOM     16  C   UNL     1      43.962   5.116  12.958  0.00  0.00    +0.000 A 
ENDBRANCH   9  11
ENDBRANCH   2   9
TORSDOF 3
ENDMDL
MODEL 8
REMARK VINA RESULT:    -5.191      3.022      6.650
REMARK INTER + INTRA:          -6.563
REMARK INTER:                  -6.207
REMARK INTRA:                  -0.356
REMARK UNBOUND:                -0.462
REMARK  Name = 
REMARK  4 active torsions:
REMARK  status: ('A' for Active; 'I' for Inactive)
REMARK    1  A    between atoms: C_1  and  C_2
REMARK    2  A    between atoms: C_2  and  N_3
REMARK    3  A    between atoms: C_2  and  C_10
REMARK    4  A    between atoms: N_3  and  C_4
REMARK                            x       y       z     vdW  Elec       q    Type
REMARK                         _______ _______ _______ _____ _____    ______ ____
ROOT
ATOM      1  C   UNL     1      47.225   5.974  13.311  0.00  0.00    +0.000 C 
ATOM      2  C   UNL     1      46.656   4.648  13.819  0.00  0.00    +0.000 C 
ENDROOT
BRANCH   2   3
ATOM      3  C   UNL     1      45.292   4.449  13.143  0.00  0.00    +0.000 A 
ATOM      4  C   UNL     1      45.111   3.370  12.277  0.00  0.00    +0.000 A 
ATOM      5  C   UNL     1      43.940   3.290  11.530  0.00  0.00    +0.000 A 
ATOM      6  C   UNL     1      42.978   4.283  11.665  0.00  0.00    +0.000 A 
ATOM      7  C   UNL     1      43.218   5.306  12.566  0.00  0.00    +0.000 A 
ATOM      8  N   UNL     1      44.340   5.408  13.312  0.00  0.00    +0.000 NA
ENDBRANCH   2   3
BRANCH   2   9
ATOM      9  N   UNL     1      46.523   4.672  15.283  0.00  0.00    +0.000 N 
ATOM     10  H   UNL     1      45.595   4.369  15.576  0.00  0.00    +0.000 HD
BRANCH   9  11
ATOM     11  C   UNL     1      47.570   4.284  16.116  0.00  0.00    +0.000 A 
ATOM     12  C   UNL     1      47.959   2.954  16.288  0.00  0.00    +0.000 A 
ATOM     13  C   UNL     1      49.065   2.657  17.077  0.00  0.00    +0.000 A 
ATOM     14  N   UNL     1      49.810   3.588  17.704  0.00  0.00    +0.000 NA
ATOM     15  C   UNL     1      49.441   4.869  17.512  0.00  0.00    +0.000 A 
ATOM     16  C   UNL     1      48.361   5.258  16.728  0.00  0.00    +0.000 A 
ENDBRANCH   9  11
ENDBRANCH   2   9
TORSDOF 3
ENDMDL
MODEL 9
REMARK VINA RESULT:    -5.093      2.193      3.934
REMARK INTER + INTRA:          -6.448
REMARK INTER:                  -6.002
REMARK INTRA:                  -0.447
REMARK UNBOUND:                -0.462
REMARK  Name = 
REMARK  4 active torsions:
REMARK  status: ('A' for Active; 'I' for Inactive)
REMARK    1  A    between atoms: C_1  and  C_2
REMARK    2  A    between atoms: C_2  and  N_3
REMARK    3  A    between atoms: C_2  and  C_10
REMARK    4  A    between atoms: N_3  and  C_4
REMARK                            x       y       z     vdW  Elec       q    Type
REMARK                         _______ _______ _______ _____ _____    ______ ____
ROOT
ATOM      1  C   UNL     1      47.163   4.746  15.122  0.00  0.00    +0.000 C 
ATOM      2  C   UNL     1      46.983   5.147  13.656  0.00  0.00    +0.000 C 
ENDROOT
BRANCH   2   3
ATOM      3  C   UNL     1      47.919   6.335  13.391  0.00  0.00    +0.000 A 
ATOM      4  C   UNL     1      47.843   7.003  12.168  0.00  0.00    +0.000 A 
ATOM      5  C   UNL     1      48.805   7.960  11.858  0.00  0.00    +0.000 A 
ATOM      6  C   UNL     1      49.815   8.229  12.773  0.00  0.00    +0.000 A 
ATOM      7  C   UNL     1      49.807   7.545  13.976  0.00  0.00    +0.000 A 
ATOM      8  N   UNL     1      48.883   6.617  14.310  0.00  0.00    +0.000 NA
ENDBRANCH   2   3
BRANCH   2   9
ATOM      9  N   UNL     1      45.583   5.505  13.388  0.00  0.00    +0.000 N 
ATOM     10  H   UNL     1      45.445   6.514  13.425  0.00  0.00    +0.000 HD
BRANCH   9  11
ATOM     11  C   UNL     1      44.831   4.832  12.428  0.00  0.00    +0.000 A 
ATOM     12  C   UNL     1      44.861   5.151  11.068  0.00  0.00    +0.000 A 
ATOM     13  C   UNL     1      44.139   4.380  10.165  0.00  0.00    +0.000 A 
ATOM     14  N   UNL     1      43.392   3.316  10.516  0.00  0.00    +0.000 NA
ATOM     15  C   UNL     1      43.388   3.002  11.826  0.00  0.00    +0.000 A 
ATOM     16  C   UNL     1      44.091   3.706  12.796  0.00  0.00    +0.000 A 
ENDBRANCH   9  11
ENDBRANCH   2   9
TORSDOF 3
ENDMDL
