MODEL 1
REMARK VINA RESULT:    -6.854      0.000      0.000
REMARK INTER + INTRA:         -10.736
REMARK INTER:                  -9.659
REMARK INTRA:                  -1.077
REMARK UNBOUND:                -1.077
REMARK  Name = 
REMARK  10 active torsions:
REMARK  status: ('A' for Active; 'I' for Inactive)
REMARK    1  A    between atoms: C_1  and  O_2
REMARK    2  A    between atoms: O_2  and  C_3
REMARK    3  A    between atoms: C_3  and  C_5
REMARK    4  A    between atoms: C_8  and  N_9
REMARK    5  A    between atoms: N_9  and  C_10
REMARK    6  A    between atoms: C_10  and  C_11
REMARK    7  A    between atoms: C_11  and  C_12
REMARK    8  A    between atoms: C_11  and  C_13
REMARK    9  A    between atoms: C_17  and  C_18
REMARK   10  A    between atoms: C_22  and  C_23
REMARK                            x       y       z     vdW  Elec       q    Type
REMARK                         _______ _______ _______ _____ _____    ______ ____
ROOT
ATOM      1  C   UNL     1      48.273   6.860  13.440  0.00  0.00    +0.000 C 
ENDROOT
BRANCH   1   2
ATOM      2  N   UNL     1      46.831   6.802  13.721  0.00  0.00    +0.000 N 
ATOM      3  H   UNL     1      46.432   7.734  13.777  0.00  0.00    +0.000 HD
BRANCH   2   7
ATOM      4  C   UNL     1      44.464   4.030  11.678  0.00  0.00    +0.000 A 
ATOM      5  C   UNL     1      45.396   3.687  12.634  0.00  0.00    +0.000 A 
ATOM      6  N   UNL     1      46.180   4.586  13.280  0.00  0.00    +0.000 NA
ATOM      7  C   UNL     1      46.068   5.901  12.980  0.00  0.00    +0.000 A 
ATOM      8  C   UNL     1      45.126   6.341  12.037  0.00  0.00    +0.000 A 
ATOM      9  C   UNL     1      44.941   7.768  11.606  0.00  0.00    +0.000 C 
ATOM     10  C   UNL     1      44.325   5.383  11.384  0.00  0.00    +0.000 A 
BRANCH   4  11
ATOM     11  C   UNL     1      43.695   2.960  11.007  0.00  0.00    +0.000 C 
ATOM     12  O   UNL     1      42.989   2.168  11.601  0.00  0.00    +0.000 OA
BRANCH  11  14
ATOM     13  C   UNL     1      45.070   2.278   9.221  0.00  0.00    +0.000 C 
ATOM     14  O   UNL     1      43.919   2.991   9.668  0.00  0.00    +0.000 OA
ENDBRANCH  11  14
ENDBRANCH   4  11
ENDBRANCH   2   7
ENDBRANCH   1   2
BRANCH   1  15
ATOM     15  C   UNL     1      49.041   7.528  14.606  0.00  0.00    +0.000 C 
ATOM     16  C   UNL     1      50.494   7.811  14.201  0.00  0.00    +0.000 C 
BRANCH  15  17
ATOM     17  C   UNL     1      48.903   6.710  15.884  0.00  0.00    +0.000 A 
ATOM     18  C   UNL     1      49.230   7.229  17.140  0.00  0.00    +0.000 A 
ATOM     19  C   UNL     1      49.126   6.418  18.269  0.00  0.00    +0.000 A 
ATOM     20  C   UNL     1      48.708   5.103  18.128  0.00  0.00    +0.000 A 
ATOM     21  C   UNL     1      48.407   4.650  16.852  0.00  0.00    +0.000 A 
ATOM     22  N   UNL     1      48.494   5.420  15.726  0.00  0.00    +0.000 NA
BRANCH  21  23
ATOM     23  C   UNL     1      47.971   3.228  16.670  0.00  0.00    +0.000 C 
ATOM     24  N   UNL     1      46.990   2.794  17.520  0.00  0.00    +0.000 N 
ATOM     25  O   UNL     1      48.454   2.490  15.822  0.00  0.00    +0.000 OA
ATOM     26  H   UNL     1      46.666   3.399  18.263  0.00  0.00    +0.000 HD
ATOM     27  H   UNL     1      46.692   1.831  17.471  0.00  0.00    +0.000 HD
ENDBRANCH  21  23
ENDBRANCH  15  17
ENDBRANCH   1  15
TORSDOF 7
ENDMDL
MODEL 2
REMARK VINA RESULT:    -6.772      2.395      4.395
REMARK INTER + INTRA:         -10.620
REMARK INTER:                 -10.212
REMARK INTRA:                  -0.408
REMARK UNBOUND:                -1.077
REMARK  Name = 
REMARK  10 active torsions:
REMARK  status: ('A' for Active; 'I' for Inactive)
REMARK    1  A    between atoms: C_1  and  O_2
REMARK    2  A    between atoms: O_2  and  C_3
REMARK    3  A    between atoms: C_3  and  C_5
REMARK    4  A    between atoms: C_8  and  N_9
REMARK    5  A    between atoms: N_9  and  C_10
REMARK    6  A    between atoms: C_10  and  C_11
REMARK    7  A    between atoms: C_11  and  C_12
REMARK    8  A    between atoms: C_11  and  C_13
REMARK    9  A    between atoms: C_17  and  C_18
REMARK   10  A    between atoms: C_22  and  C_23
REMARK                            x       y       z     vdW  Elec       q    Type
REMARK                         _______ _______ _______ _____ _____    ______ ____
ROOT
ATOM      1  C   UNL     1      43.734   5.549  11.985  0.00  0.00    +0.000 C 
ENDROOT
BRANCH   1   2
ATOM      2  N   UNL     1      43.428   5.406  10.553  0.00  0.00    +0.000 N 
ATOM      3  H   UNL     1      43.425   6.309  10.089  0.00  0.00    +0.000 HD
BRANCH   2   7
ATOM      4  C   UNL     1      45.613   2.513   8.477  0.00  0.00    +0.000 A 
ATOM      5  C   UNL     1      45.571   3.845   8.123  0.00  0.00    +0.000 A 
ATOM      6  N   UNL     1      44.842   4.778   8.783  0.00  0.00    +0.000 NA
ATOM      7  C   UNL     1      44.098   4.406   9.850  0.00  0.00    +0.000 A 
ATOM      8  C   UNL     1      44.104   3.075  10.296  0.00  0.00    +0.000 A 
ATOM      9  C   UNL     1      43.292   2.549  11.446  0.00  0.00    +0.000 C 
ATOM     10  C   UNL     1      44.872   2.129   9.589  0.00  0.00    +0.000 A 
BRANCH   4  11
ATOM     11  C   UNL     1      46.409   1.575   7.655  0.00  0.00    +0.000 C 
ATOM     12  O   UNL     1      46.705   0.453   8.016  0.00  0.00    +0.000 OA
BRANCH  11  14
ATOM     13  C   UNL     1      48.150   2.110   6.163  0.00  0.00    +0.000 C 
ATOM     14  O   UNL     1      46.762   2.163   6.484  0.00  0.00    +0.000 OA
ENDBRANCH  11  14
ENDBRANCH   4  11
ENDBRANCH   2   7
ENDBRANCH   1   2
BRANCH   1  15
ATOM     15  C   UNL     1      44.432   6.900  12.272  0.00  0.00    +0.000 C 
ATOM     16  C   UNL     1      44.421   7.788  11.020  0.00  0.00    +0.000 C 
BRANCH  15  17
ATOM     17  C   UNL     1      45.818   6.679  12.862  0.00  0.00    +0.000 A 
ATOM     18  C   UNL     1      46.912   7.477  12.516  0.00  0.00    +0.000 A 
ATOM     19  C   UNL     1      48.167   7.199  13.054  0.00  0.00    +0.000 A 
ATOM     20  C   UNL     1      48.314   6.125  13.921  0.00  0.00    +0.000 A 
ATOM     21  C   UNL     1      47.190   5.370  14.216  0.00  0.00    +0.000 A 
ATOM     22  N   UNL     1      45.945   5.619  13.709  0.00  0.00    +0.000 NA
BRANCH  21  23
ATOM     23  C   UNL     1      47.325   4.194  15.135  0.00  0.00    +0.000 C 
ATOM     24  N   UNL     1      47.159   4.458  16.467  0.00  0.00    +0.000 N 
ATOM     25  O   UNL     1      47.572   3.064  14.733  0.00  0.00    +0.000 OA
ATOM     26  H   UNL     1      47.036   5.413  16.777  0.00  0.00    +0.000 HD
ATOM     27  H   UNL     1      47.285   3.711  17.134  0.00  0.00    +0.000 HD
ENDBRANCH  21  23
ENDBRANCH  15  17
ENDBRANCH   1  15
TORSDOF 7
ENDMDL
MODEL 3
REMARK VINA RESULT:    -6.538      1.956      2.481
REMARK INTER + INTRA:         -10.291
REMARK INTER:                  -9.320
REMARK INTRA:                  -0.971
REMARK UNBOUND:                -1.077
REMARK  Name = 
REMARK  10 active torsions:
REMARK  status: ('A' for Active; 'I' for Inactive)
REMARK    1  A    between atoms: C_1  and  O_2
REMARK    2  A    between atoms: O_2  and  C_3
REMARK    3  A    between atoms: C_3  and  C_5
REMARK    4  A    between atoms: C_8  and  N_9
REMARK    5  A    between atoms: N_9  and  C_10
REMARK    6  A    between atoms: C_10  and  C_11
REMARK    7  A    between atoms: C_11  and  C_12
REMARK    8  A    between atoms: C_11  and  C_13
REMARK    9  A    between atoms: C_17  and  C_18
REMARK   10  A    between atoms: C_22  and  C_23
REMARK                            x       y       z     vdW  Elec       q    Type
REMARK                         _______ _______ _______ _____ _____    ______ ____
ROOT
ATOM      1  C   UNL     1      49.015   7.686  15.560  0.00  0.00    +0.000 C 
ENDROOT
BRANCH   1   2
ATOM      2  N   UNL     1      49.051   6.883  14.329  0.00  0.00    +0.000 N 
ATOM      3  H   UNL     1      49.854   6.262  14.321  0.00  0.00    +0.000 HD
BRANCH   2   7
ATOM      4  C   UNL     1      45.423   5.078  13.307  0.00  0.00    +0.000 A 
ATOM      5  C   UNL     1      46.314   4.550  14.217  0.00  0.00    +0.000 A 
ATOM      6  N   UNL     1      47.502   5.125  14.530  0.00  0.00    +0.000 NA
ATOM      7  C   UNL     1      47.862   6.279  13.922  0.00  0.00    +0.000 A 
ATOM      8  C   UNL     1      47.002   6.900  13.002  0.00  0.00    +0.000 A 
ATOM      9  C   UNL     1      47.316   8.161  12.247  0.00  0.00    +0.000 C 
ATOM     10  C   UNL     1      45.775   6.279  12.698  0.00  0.00    +0.000 A 
BRANCH   4  11
ATOM     11  C   UNL     1      44.176   4.341  13.011  0.00  0.00    +0.000 C 
ATOM     12  O   UNL     1      44.146   3.159  12.728  0.00  0.00    +0.000 OA
BRANCH  11  14
ATOM     13  C   UNL     1      42.425   5.408  11.851  0.00  0.00    +0.000 C 
ATOM     14  O   UNL     1      43.110   5.179  13.082  0.00  0.00    +0.000 OA
ENDBRANCH  11  14
ENDBRANCH   4  11
ENDBRANCH   2   7
ENDBRANCH   1   2
BRANCH   1  15
ATOM     15  C   UNL     1      50.036   7.159  16.598  0.00  0.00    +0.000 C 
ATOM     16  C   UNL     1      51.406   6.942  15.942  0.00  0.00    +0.000 C 
BRANCH  15  17
ATOM     17  C   UNL     1      49.492   5.931  17.316  0.00  0.00    +0.000 A 
ATOM     18  C   UNL     1      48.612   6.029  18.398  0.00  0.00    +0.000 A 
ATOM     19  C   UNL     1      48.182   4.871  19.044  0.00  0.00    +0.000 A 
ATOM     20  C   UNL     1      48.644   3.637  18.610  0.00  0.00    +0.000 A 
ATOM     21  C   UNL     1      49.520   3.612  17.536  0.00  0.00    +0.000 A 
ATOM     22  N   UNL     1      49.957   4.728  16.878  0.00  0.00    +0.000 NA
BRANCH  21  23
ATOM     23  C   UNL     1      50.047   2.293  17.059  0.00  0.00    +0.000 C 
ATOM     24  N   UNL     1      51.023   1.727  17.835  0.00  0.00    +0.000 N 
ATOM     25  O   UNL     1      49.644   1.746  16.041  0.00  0.00    +0.000 OA
ATOM     26  H   UNL     1      51.394   2.238  18.625  0.00  0.00    +0.000 HD
ATOM     27  H   UNL     1      51.446   0.861  17.534  0.00  0.00    +0.000 HD
ENDBRANCH  21  23
ENDBRANCH  15  17
ENDBRANCH   1  15
TORSDOF 7
ENDMDL
MODEL 4
REMARK VINA RESULT:    -6.450      2.413      7.408
REMARK INTER + INTRA:         -10.167
REMARK INTER:                  -9.107
REMARK INTRA:                  -1.060
REMARK UNBOUND:                -1.077
REMARK  Name = 
REMARK  10 active torsions:
REMARK  status: ('A' for Active; 'I' for Inactive)
REMARK    1  A    between atoms: C_1  and  O_2
REMARK    2  A    between atoms: O_2  and  C_3
REMARK    3  A    between atoms: C_3  and  C_5
REMARK    4  A    between atoms: C_8  and  N_9
REMARK    5  A    between atoms: N_9  and  C_10
REMARK    6  A    between atoms: C_10  and  C_11
REMARK    7  A    between atoms: C_11  and  C_12
REMARK    8  A    between atoms: C_11  and  C_13
REMARK    9  A    between atoms: C_17  and  C_18
REMARK   10  A    between atoms: C_22  and  C_23
REMARK                            x       y       z     vdW  Elec       q    Type
REMARK                         _______ _______ _______ _____ _____    ______ ____
ROOT
ATOM      1  C   UNL     1      44.794   6.551  11.132  0.00  0.00    +0.000 C 
ENDROOT
BRANCH   1   2
ATOM      2  N   UNL     1      46.028   5.768  11.294  0.00  0.00    +0.000 N 
ATOM      3  H   UNL     1      46.698   5.986  10.563  0.00  0.00    +0.000 HD
BRANCH   2   7
ATOM      4  C   UNL     1      47.750   5.370  15.080  0.00  0.00    +0.000 A 
ATOM      5  C   UNL     1      46.766   4.536  14.592  0.00  0.00    +0.000 A 
ATOM      6  N   UNL     1      46.191   4.681  13.373  0.00  0.00    +0.000 NA
ATOM      7  C   UNL     1      46.581   5.699  12.571  0.00  0.00    +0.000 A 
ATOM      8  C   UNL     1      47.597   6.580  12.978  0.00  0.00    +0.000 A 
ATOM      9  C   UNL     1      48.082   7.759  12.184  0.00  0.00    +0.000 C 
ATOM     10  C   UNL     1      48.175   6.402  14.250  0.00  0.00    +0.000 A 
BRANCH   4  11
ATOM     11  C   UNL     1      48.274   5.143  16.444  0.00  0.00    +0.000 C 
ATOM     12  O   UNL     1      48.304   6.003  17.303  0.00  0.00    +0.000 OA
BRANCH  11  14
ATOM     13  C   UNL     1      48.451   3.239  17.819  0.00  0.00    +0.000 C 
ATOM     14  O   UNL     1      48.721   3.867  16.567  0.00  0.00    +0.000 OA
ENDBRANCH  11  14
ENDBRANCH   4  11
ENDBRANCH   2   7
ENDBRANCH   1   2
BRANCH   1  15
ATOM     15  C   UNL     1      43.615   5.649  10.694  0.00  0.00    +0.000 C 
ATOM     16  C   UNL     1      42.644   5.429  11.862  0.00  0.00    +0.000 C 
BRANCH  15  17
ATOM     17  C   UNL     1      44.125   4.360  10.062  0.00  0.00    +0.000 A 
ATOM     18  C   UNL     1      43.867   3.104  10.618  0.00  0.00    +0.000 A 
ATOM     19  C   UNL     1      44.398   1.963  10.020  0.00  0.00    +0.000 A 
ATOM     20  C   UNL     1      45.185   2.092   8.885  0.00  0.00    +0.000 A 
ATOM     21  C   UNL     1      45.407   3.367   8.390  0.00  0.00    +0.000 A 
ATOM     22  N   UNL     1      44.898   4.506   8.950  0.00  0.00    +0.000 NA
BRANCH  21  23
ATOM     23  C   UNL     1      46.268   3.535   7.175  0.00  0.00    +0.000 C 
ATOM     24  N   UNL     1      47.289   4.440   7.290  0.00  0.00    +0.000 N 
ATOM     25  O   UNL     1      46.081   2.913   6.137  0.00  0.00    +0.000 OA
ATOM     26  H   UNL     1      47.372   4.998   8.130  0.00  0.00    +0.000 HD
ATOM     27  H   UNL     1      47.871   4.626   6.487  0.00  0.00    +0.000 HD
ENDBRANCH  21  23
ENDBRANCH  15  17
ENDBRANCH   1  15
TORSDOF 7
ENDMDL
MODEL 5
REMARK VINA RESULT:    -6.426      1.955      2.203
REMARK INTER + INTRA:         -10.132
REMARK INTER:                  -9.451
REMARK INTRA:                  -0.681
REMARK UNBOUND:                -1.077
REMARK  Name = 
REMARK  10 active torsions:
REMARK  status: ('A' for Active; 'I' for Inactive)
REMARK    1  A    between atoms: C_1  and  O_2
REMARK    2  A    between atoms: O_2  and  C_3
REMARK    3  A    between atoms: C_3  and  C_5
REMARK    4  A    between atoms: C_8  and  N_9
REMARK    5  A    between atoms: N_9  and  C_10
REMARK    6  A    between atoms: C_10  and  C_11
REMARK    7  A    between atoms: C_11  and  C_12
REMARK    8  A    between atoms: C_11  and  C_13
REMARK    9  A    between atoms: C_17  and  C_18
REMARK   10  A    between atoms: C_22  and  C_23
REMARK                            x       y       z     vdW  Elec       q    Type
REMARK                         _______ _______ _______ _____ _____    ______ ____
ROOT
ATOM      1  C   UNL     1      47.728   5.380  15.700  0.00  0.00    +0.000 C 
ENDROOT
BRANCH   1   2
ATOM      2  N   UNL     1      47.487   6.165  14.480  0.00  0.00    +0.000 N 
ATOM      3  H   UNL     1      48.348   6.579  14.136  0.00  0.00    +0.000 HD
BRANCH   2   7
ATOM      4  C   UNL     1      44.959   4.449  11.630  0.00  0.00    +0.000 A 
ATOM      5  C   UNL     1      45.121   3.958  12.908  0.00  0.00    +0.000 A 
ATOM      6  N   UNL     1      45.960   4.502  13.824  0.00  0.00    +0.000 NA
ATOM      7  C   UNL     1      46.699   5.585  13.488  0.00  0.00    +0.000 A 
ATOM      8  C   UNL     1      46.576   6.166  12.216  0.00  0.00    +0.000 A 
ATOM      9  C   UNL     1      47.369   7.345  11.729  0.00  0.00    +0.000 C 
ATOM     10  C   UNL     1      45.695   5.579  11.287  0.00  0.00    +0.000 A 
BRANCH   4  11
ATOM     11  C   UNL     1      44.048   3.748  10.700  0.00  0.00    +0.000 C 
ATOM     12  O   UNL     1      43.342   2.814  11.030  0.00  0.00    +0.000 OA
BRANCH  11  14
ATOM     13  C   UNL     1      44.699   3.427   8.460  0.00  0.00    +0.000 C 
ATOM     14  O   UNL     1      44.145   4.284   9.457  0.00  0.00    +0.000 OA
ENDBRANCH  11  14
ENDBRANCH   4  11
ENDBRANCH   2   7
ENDBRANCH   1   2
BRANCH   1  15
ATOM     15  C   UNL     1      48.596   6.171  16.709  0.00  0.00    +0.000 C 
ATOM     16  C   UNL     1      49.131   7.457  16.065  0.00  0.00    +0.000 C 
BRANCH  15  17
ATOM     17  C   UNL     1      49.677   5.281  17.307  0.00  0.00    +0.000 A 
ATOM     18  C   UNL     1      50.665   5.780  18.161  0.00  0.00    +0.000 A 
ATOM     19  C   UNL     1      51.656   4.927  18.642  0.00  0.00    +0.000 A 
ATOM     20  C   UNL     1      51.654   3.594  18.257  0.00  0.00    +0.000 A 
ATOM     21  C   UNL     1      50.650   3.167  17.402  0.00  0.00    +0.000 A 
ATOM     22  N   UNL     1      49.661   3.977  16.916  0.00  0.00    +0.000 NA
BRANCH  21  23
ATOM     23  C   UNL     1      50.635   1.736  16.956  0.00  0.00    +0.000 C 
ATOM     24  N   UNL     1      51.373   0.869  17.716  0.00  0.00    +0.000 N 
ATOM     25  O   UNL     1      50.011   1.353  15.975  0.00  0.00    +0.000 OA
ATOM     26  H   UNL     1      51.942   1.226  18.472  0.00  0.00    +0.000 HD
ATOM     27  H   UNL     1      51.435  -0.098  17.434  0.00  0.00    +0.000 HD
ENDBRANCH  21  23
ENDBRANCH  15  17
ENDBRANCH   1  15
TORSDOF 7
ENDMDL
MODEL 6
REMARK VINA RESULT:    -6.340      1.881      6.564
REMARK INTER + INTRA:         -10.011
REMARK INTER:                  -9.195
REMARK INTRA:                  -0.817
REMARK UNBOUND:                -1.077
REMARK  Name = 
REMARK  10 active torsions:
REMARK  status: ('A' for Active; 'I' for Inactive)
REMARK    1  A    between atoms: C_1  and  O_2
REMARK    2  A    between atoms: O_2  and  C_3
REMARK    3  A    between atoms: C_3  and  C_5
REMARK    4  A    between atoms: C_8  and  N_9
REMARK    5  A    between atoms: N_9  and  C_10
REMARK    6  A    between atoms: C_10  and  C_11
REMARK    7  A    between atoms: C_11  and  C_12
REMARK    8  A    between atoms: C_11  and  C_13
REMARK    9  A    between atoms: C_17  and  C_18
REMARK   10  A    between atoms: C_22  and  C_23
REMARK                            x       y       z     vdW  Elec       q    Type
REMARK                         _______ _______ _______ _____ _____    ______ ____
ROOT
ATOM      1  C   UNL     1      47.512   6.702  12.051  0.00  0.00    +0.000 C 
ENDROOT
BRANCH   1   2
ATOM      2  N   UNL     1      47.940   7.168  13.378  0.00  0.00    +0.000 N 
ATOM      3  H   UNL     1      47.537   8.074  13.594  0.00  0.00    +0.000 HD
BRANCH   2   7
ATOM      4  C   UNL     1      47.853   4.288  16.405  0.00  0.00    +0.000 A 
ATOM      5  C   UNL     1      47.251   4.128  15.175  0.00  0.00    +0.000 A 
ATOM      6  N   UNL     1      47.259   5.073  14.202  0.00  0.00    +0.000 NA
ATOM      7  C   UNL     1      47.880   6.254  14.429  0.00  0.00    +0.000 A 
ATOM      8  C   UNL     1      48.543   6.491  15.645  0.00  0.00    +0.000 A 
ATOM      9  C   UNL     1      49.233   7.774  16.012  0.00  0.00    +0.000 C 
ATOM     10  C   UNL     1      48.516   5.489  16.635  0.00  0.00    +0.000 A 
BRANCH   4  11
ATOM     11  C   UNL     1      47.741   3.205  17.406  0.00  0.00    +0.000 C 
ATOM     12  O   UNL     1      46.701   2.628  17.656  0.00  0.00    +0.000 OA
BRANCH  11  14
ATOM     13  C   UNL     1      49.867   2.206  17.238  0.00  0.00    +0.000 C 
ATOM     14  O   UNL     1      48.945   2.988  17.995  0.00  0.00    +0.000 OA
ENDBRANCH  11  14
ENDBRANCH   4  11
ENDBRANCH   2   7
ENDBRANCH   1   2
BRANCH   1  15
ATOM     15  C   UNL     1      46.114   7.259  11.689  0.00  0.00    +0.000 C 
ATOM     16  C   UNL     1      45.724   8.394  12.646  0.00  0.00    +0.000 C 
BRANCH  15  17
ATOM     17  C   UNL     1      45.088   6.137  11.609  0.00  0.00    +0.000 A 
ATOM     18  C   UNL     1      44.094   5.965  12.577  0.00  0.00    +0.000 A 
ATOM     19  C   UNL     1      43.210   4.893  12.474  0.00  0.00    +0.000 A 
ATOM     20  C   UNL     1      43.336   4.004  11.416  0.00  0.00    +0.000 A 
ATOM     21  C   UNL     1      44.348   4.229  10.496  0.00  0.00    +0.000 A 
ATOM     22  N   UNL     1      45.228   5.273  10.565  0.00  0.00    +0.000 NA
BRANCH  21  23
ATOM     23  C   UNL     1      44.517   3.274   9.353  0.00  0.00    +0.000 C 
ATOM     24  N   UNL     1      44.324   3.801   8.105  0.00  0.00    +0.000 N 
ATOM     25  O   UNL     1      44.805   2.095   9.512  0.00  0.00    +0.000 OA
ATOM     26  H   UNL     1      44.008   4.757   8.007  0.00  0.00    +0.000 HD
ATOM     27  H   UNL     1      44.380   3.190   7.303  0.00  0.00    +0.000 HD
ENDBRANCH  21  23
ENDBRANCH  15  17
ENDBRANCH   1  15
TORSDOF 7
ENDMDL
MODEL 7
REMARK VINA RESULT:    -6.330      1.670      2.276
REMARK INTER + INTRA:          -9.997
REMARK INTER:                  -8.814
REMARK INTRA:                  -1.183
REMARK UNBOUND:                -1.077
REMARK  Name = 
REMARK  10 active torsions:
REMARK  status: ('A' for Active; 'I' for Inactive)
REMARK    1  A    between atoms: C_1  and  O_2
REMARK    2  A    between atoms: O_2  and  C_3
REMARK    3  A    between atoms: C_3  and  C_5
REMARK    4  A    between atoms: C_8  and  N_9
REMARK    5  A    between atoms: N_9  and  C_10
REMARK    6  A    between atoms: C_10  and  C_11
REMARK    7  A    between atoms: C_11  and  C_12
REMARK    8  A    between atoms: C_11  and  C_13
REMARK    9  A    between atoms: C_17  and  C_18
REMARK   10  A    between atoms: C_22  and  C_23
REMARK                            x       y       z     vdW  Elec       q    Type
REMARK                         _______ _______ _______ _____ _____    ______ ____
ROOT
ATOM      1  C   UNL     1      48.423   7.407  14.918  0.00  0.00    +0.000 C 
ENDROOT
BRANCH   1   2
ATOM      2  N   UNL     1      48.564   6.342  13.913  0.00  0.00    +0.000 N 
ATOM      3  H   UNL     1      49.081   5.553  14.288  0.00  0.00    +0.000 HD
BRANCH   2   7
ATOM      4  C   UNL     1      45.272   5.241  11.587  0.00  0.00    +0.000 A 
ATOM      5  C   UNL     1      46.111   6.291  11.282  0.00  0.00    +0.000 A 
ATOM      6  N   UNL     1      47.165   6.663  12.050  0.00  0.00    +0.000 NA
ATOM      7  C   UNL     1      47.425   5.985  13.193  0.00  0.00    +0.000 A 
ATOM      8  C   UNL     1      46.637   4.884  13.565  0.00  0.00    +0.000 A 
ATOM      9  C   UNL     1      46.817   4.085  14.825  0.00  0.00    +0.000 C 
ATOM     10  C   UNL     1      45.550   4.523  12.745  0.00  0.00    +0.000 A 
BRANCH   4  11
ATOM     11  C   UNL     1      44.126   4.954  10.697  0.00  0.00    +0.000 C 
ATOM     12  O   UNL     1      42.969   5.160  11.007  0.00  0.00    +0.000 OA
BRANCH  11  14
ATOM     13  C   UNL     1      44.597   2.994   9.478  0.00  0.00    +0.000 C 
ATOM     14  O   UNL     1      44.564   4.419   9.528  0.00  0.00    +0.000 OA
ENDBRANCH  11  14
ENDBRANCH   4  11
ENDBRANCH   2   7
ENDBRANCH   1   2
BRANCH   1  15
ATOM     15  C   UNL     1      49.444   7.226  16.067  0.00  0.00    +0.000 C 
ATOM     16  C   UNL     1      50.874   7.176  15.512  0.00  0.00    +0.000 C 
BRANCH  15  17
ATOM     17  C   UNL     1      49.074   6.032  16.937  0.00  0.00    +0.000 A 
ATOM     18  C   UNL     1      48.232   6.149  18.046  0.00  0.00    +0.000 A 
ATOM     19  C   UNL     1      47.965   5.029  18.831  0.00  0.00    +0.000 A 
ATOM     20  C   UNL     1      48.550   3.814  18.505  0.00  0.00    +0.000 A 
ATOM     21  C   UNL     1      49.381   3.769  17.397  0.00  0.00    +0.000 A 
ATOM     22  N   UNL     1      49.659   4.848  16.604  0.00  0.00    +0.000 NA
BRANCH  21  23
ATOM     23  C   UNL     1      50.039   2.473  17.034  0.00  0.00    +0.000 C 
ATOM     24  N   UNL     1      51.074   2.085  17.842  0.00  0.00    +0.000 N 
ATOM     25  O   UNL     1      49.687   1.795  16.077  0.00  0.00    +0.000 OA
ATOM     26  H   UNL     1      51.395   2.702  18.576  0.00  0.00    +0.000 HD
ATOM     27  H   UNL     1      51.582   1.243  17.615  0.00  0.00    +0.000 HD
ENDBRANCH  21  23
ENDBRANCH  15  17
ENDBRANCH   1  15
TORSDOF 7
ENDMDL
MODEL 8
REMARK VINA RESULT:    -6.060      2.321      3.469
REMARK INTER + INTRA:          -9.617
REMARK INTER:                  -8.728
REMARK INTRA:                  -0.889
REMARK UNBOUND:                -1.077
REMARK  Name = 
REMARK  10 active torsions:
REMARK  status: ('A' for Active; 'I' for Inactive)
REMARK    1  A    between atoms: C_1  and  O_2
REMARK    2  A    between atoms: O_2  and  C_3
REMARK    3  A    between atoms: C_3  and  C_5
REMARK    4  A    between atoms: C_8  and  N_9
REMARK    5  A    between atoms: N_9  and  C_10
REMARK    6  A    between atoms: C_10  and  C_11
REMARK    7  A    between atoms: C_11  and  C_12
REMARK    8  A    between atoms: C_11  and  C_13
REMARK    9  A    between atoms: C_17  and  C_18
REMARK   10  A    between atoms: C_22  and  C_23
REMARK                            x       y       z     vdW  Elec       q    Type
REMARK                         _______ _______ _______ _____ _____    ______ ____
ROOT
ATOM      1  C   UNL     1      47.436   3.970  15.945  0.00  0.00    +0.000 C 
ENDROOT
BRANCH   1   2
ATOM      2  N   UNL     1      47.094   5.154  15.143  0.00  0.00    +0.000 N 
ATOM      3  H   UNL     1      47.856   5.825  15.140  0.00  0.00    +0.000 HD
BRANCH   2   7
ATOM      4  C   UNL     1      45.206   4.448  11.483  0.00  0.00    +0.000 A 
ATOM      5  C   UNL     1      45.356   3.494  12.466  0.00  0.00    +0.000 A 
ATOM      6  N   UNL     1      45.990   3.717  13.644  0.00  0.00    +0.000 NA
ATOM      7  C   UNL     1      46.523   4.937  13.890  0.00  0.00    +0.000 A 
ATOM      8  C   UNL     1      46.394   5.975  12.954  0.00  0.00    +0.000 A 
ATOM      9  C   UNL     1      46.974   7.352  13.111  0.00  0.00    +0.000 C 
ATOM     10  C   UNL     1      45.728   5.712  11.740  0.00  0.00    +0.000 A 
BRANCH   4  11
ATOM     11  C   UNL     1      44.534   4.079  10.218  0.00  0.00    +0.000 C 
ATOM     12  O   UNL     1      43.514   3.419  10.169  0.00  0.00    +0.000 OA
BRANCH  11  14
ATOM     13  C   UNL     1      45.345   3.678   8.044  0.00  0.00    +0.000 C 
ATOM     14  O   UNL     1      45.233   4.561   9.159  0.00  0.00    +0.000 OA
ENDBRANCH  11  14
ENDBRANCH   4  11
ENDBRANCH   2   7
ENDBRANCH   1   2
BRANCH   1  15
ATOM     15  C   UNL     1      48.614   4.269  16.905  0.00  0.00    +0.000 C 
ATOM     16  C   UNL     1      49.012   3.004  17.677  0.00  0.00    +0.000 C 
BRANCH  15  17
ATOM     17  C   UNL     1      48.297   5.464  17.795  0.00  0.00    +0.000 A 
ATOM     18  C   UNL     1      47.792   5.316  19.090  0.00  0.00    +0.000 A 
ATOM     19  C   UNL     1      47.478   6.447  19.841  0.00  0.00    +0.000 A 
ATOM     20  C   UNL     1      47.663   7.705  19.287  0.00  0.00    +0.000 A 
ATOM     21  C   UNL     1      48.161   7.780  17.996  0.00  0.00    +0.000 A 
ATOM     22  N   UNL     1      48.482   6.691  17.234  0.00  0.00    +0.000 NA
BRANCH  21  23
ATOM     23  C   UNL     1      48.353   9.127  17.368  0.00  0.00    +0.000 C 
ATOM     24  N   UNL     1      47.681   9.338  16.194  0.00  0.00    +0.000 N 
ATOM     25  O   UNL     1      49.065   9.994  17.860  0.00  0.00    +0.000 OA
ATOM     26  H   UNL     1      47.165   8.578  15.769  0.00  0.00    +0.000 HD
ATOM     27  H   UNL     1      47.811  10.211  15.706  0.00  0.00    +0.000 HD
ENDBRANCH  21  23
ENDBRANCH  15  17
ENDBRANCH   1  15
TORSDOF 7
ENDMDL
MODEL 9
REMARK VINA RESULT:    -5.801      2.618      3.751
REMARK INTER + INTRA:          -9.252
REMARK INTER:                  -8.625
REMARK INTRA:                  -0.627
REMARK UNBOUND:                -1.077
REMARK  Name = 
REMARK  10 active torsions:
REMARK  status: ('A' for Active; 'I' for Inactive)
REMARK    1  A    between atoms: C_1  and  O_2
REMARK    2  A    between atoms: O_2  and  C_3
REMARK    3  A    between atoms: C_3  and  C_5
REMARK    4  A    between atoms: C_8  and  N_9
REMARK    5  A    between atoms: N_9  and  C_10
REMARK    6  A    between atoms: C_10  and  C_11
REMARK    7  A    between atoms: C_11  and  C_12
REMARK    8  A    between atoms: C_11  and  C_13
REMARK    9  A    between atoms: C_17  and  C_18
REMARK   10  A    between atoms: C_22  and  C_23
REMARK                            x       y       z     vdW  Elec       q    Type
REMARK                         _______ _______ _______ _____ _____    ______ ____
ROOT
ATOM      1  C   UNL     1      47.636   3.367  15.521  0.00  0.00    +0.000 C 
ENDROOT
BRANCH   1   2
ATOM      2  N   UNL     1      46.999   4.630  15.119  0.00  0.00    +0.000 N 
ATOM      3  H   UNL     1      47.566   5.428  15.389  0.00  0.00    +0.000 HD
BRANCH   2   7
ATOM      4  C   UNL     1      45.277   4.830  11.317  0.00  0.00    +0.000 A 
ATOM      5  C   UNL     1      45.178   3.735  12.148  0.00  0.00    +0.000 A 
ATOM      6  N   UNL     1      45.757   3.662  13.372  0.00  0.00    +0.000 NA
ATOM      7  C   UNL     1      46.488   4.708  13.824  0.00  0.00    +0.000 A 
ATOM      8  C   UNL     1      46.618   5.874  13.053  0.00  0.00    +0.000 A 
ATOM      9  C   UNL     1      47.430   7.077  13.444  0.00  0.00    +0.000 C 
ATOM     10  C   UNL     1      46.004   5.919  11.787  0.00  0.00    +0.000 A 
BRANCH   4  11
ATOM     11  C   UNL     1      44.640   4.781   9.983  0.00  0.00    +0.000 C 
ATOM     12  O   UNL     1      43.436   4.746   9.816  0.00  0.00    +0.000 OA
BRANCH  11  14
ATOM     13  C   UNL     1      45.491   3.678   8.085  0.00  0.00    +0.000 C 
ATOM     14  O   UNL     1      45.588   4.757   9.012  0.00  0.00    +0.000 OA
ENDBRANCH  11  14
ENDBRANCH   4  11
ENDBRANCH   2   7
ENDBRANCH   1   2
BRANCH   1  15
ATOM     15  C   UNL     1      48.026   3.393  17.018  0.00  0.00    +0.000 C 
ATOM     16  C   UNL     1      47.565   4.703  17.671  0.00  0.00    +0.000 C 
BRANCH  15  17
ATOM     17  C   UNL     1      49.510   3.100  17.197  0.00  0.00    +0.000 A 
ATOM     18  C   UNL     1      50.017   1.798  17.211  0.00  0.00    +0.000 A 
ATOM     19  C   UNL     1      51.378   1.590  17.423  0.00  0.00    +0.000 A 
ATOM     20  C   UNL     1      52.211   2.681  17.627  0.00  0.00    +0.000 A 
ATOM     21  C   UNL     1      51.642   3.945  17.609  0.00  0.00    +0.000 A 
ATOM     22  N   UNL     1      50.312   4.183  17.399  0.00  0.00    +0.000 NA
BRANCH  21  23
ATOM     23  C   UNL     1      52.516   5.139  17.845  0.00  0.00    +0.000 C 
ATOM     24  N   UNL     1      52.646   5.530  19.150  0.00  0.00    +0.000 N 
ATOM     25  O   UNL     1      53.080   5.738  16.939  0.00  0.00    +0.000 OA
ATOM     26  H   UNL     1      52.106   5.067  19.869  0.00  0.00    +0.000 HD
ATOM     27  H   UNL     1      53.187   6.356  19.361  0.00  0.00    +0.000 HD
ENDBRANCH  21  23
ENDBRANCH  15  17
ENDBRANCH   1  15
TORSDOF 7
ENDMDL
