MODEL 1
REMARK VINA RESULT:    -7.562      0.000      0.000
REMARK INTER + INTRA:          -9.965
REMARK INTER:                  -9.551
REMARK INTRA:                  -0.414
REMARK UNBOUND:                -0.414
REMARK  Name = 
REMARK  5 active torsions:
REMARK  status: ('A' for Active; 'I' for Inactive)
REMARK    1  A    between atoms: N_1  and  C_2
REMARK    2  A    between atoms: C_2  and  C_3
REMARK    3  A    between atoms: C_3  and  C_4
REMARK    4  A    between atoms: N_6  and  C_7
REMARK    5  A    between atoms: C_7  and  C_8
REMARK                            x       y       z     vdW  Elec       q    Type
REMARK                         _______ _______ _______ _____ _____    ______ ____
ROOT
ATOM      1  C   UNL     1      43.896   3.834  10.660  0.00  0.00    +0.000 C 
ENDROOT
BRANCH   1   2
ATOM      2  C   UNL     1      44.827   4.288  11.754  0.00  0.00    +0.000 A 
ATOM      3  N   UNL     1      45.445   3.276  12.429  0.00  0.00    +0.000 NA
ATOM      4  C   UNL     1      46.361   3.610  13.358  0.00  0.00    +0.000 A 
ATOM      5  C   UNL     1      46.719   4.910  13.650  0.00  0.00    +0.000 A 
ATOM      6  C   UNL     1      46.093   5.952  12.961  0.00  0.00    +0.000 A 
ATOM      7  C   UNL     1      46.455   7.286  13.212  0.00  0.00    +0.000 A 
ATOM      8  C   UNL     1      45.850   8.335  12.522  0.00  0.00    +0.000 A 
ATOM      9  C   UNL     1      44.861   8.065  11.587  0.00  0.00    +0.000 A 
ATOM     10  C   UNL     1      44.483   6.745  11.331  0.00  0.00    +0.000 A 
ATOM     11  C   UNL     1      45.103   5.656  11.994  0.00  0.00    +0.000 A 
ENDBRANCH   1   2
BRANCH   1  14
ATOM     12  C   UNL     1      45.961   2.506   8.065  0.00  0.00    +0.000 A 
ATOM     13  C   UNL     1      45.176   2.254   9.167  0.00  0.00    +0.000 A 
ATOM     14  N   UNL     1      44.601   3.459   9.452  0.00  0.00    +0.000 N 
ATOM     15  N   UNL     1      44.994   4.401   8.571  0.00  0.00    +0.000 NA
ATOM     16  N   UNL     1      45.819   3.823   7.707  0.00  0.00    +0.000 NA
BRANCH  12  17
ATOM     17  C   UNL     1      46.894   1.607   7.339  0.00  0.00    +0.000 C 
BRANCH  17  18
ATOM     18  C   UNL     1      48.081   2.384   6.759  0.00  0.00    +0.000 C 
BRANCH  18  19
ATOM     19  N   UNL     1      48.463   1.892   5.433  0.00  0.00    +0.000 NA
ATOM     20  H   UNL     1      48.030   2.484   4.723  0.00  0.00    +0.000 HD
ATOM     21  H   UNL     1      48.076   0.960   5.294  0.00  0.00    +0.000 HD
ENDBRANCH  18  19
ENDBRANCH  17  18
ENDBRANCH  12  17
ENDBRANCH   1  14
TORSDOF 5
ENDMDL
MODEL 2
REMARK VINA RESULT:    -6.681      1.293      1.472
REMARK INTER + INTRA:          -8.853
REMARK INTER:                  -8.258
REMARK INTRA:                  -0.595
REMARK UNBOUND:                -0.414
REMARK  Name = 
REMARK  5 active torsions:
REMARK  status: ('A' for Active; 'I' for Inactive)
REMARK    1  A    between atoms: N_1  and  C_2
REMARK    2  A    between atoms: C_2  and  C_3
REMARK    3  A    between atoms: C_3  and  C_4
REMARK    4  A    between atoms: N_6  and  C_7
REMARK    5  A    between atoms: C_7  and  C_8
REMARK                            x       y       z     vdW  Elec       q    Type
REMARK                         _______ _______ _______ _____ _____    ______ ____
ROOT
ATOM      1  C   UNL     1      43.908   4.050  12.213  0.00  0.00    +0.000 C 
ENDROOT
BRANCH   1   2
ATOM      2  C   UNL     1      45.091   4.723  12.858  0.00  0.00    +0.000 A 
ATOM      3  N   UNL     1      45.889   3.890  13.587  0.00  0.00    +0.000 NA
ATOM      4  C   UNL     1      47.015   4.406  14.116  0.00  0.00    +0.000 A 
ATOM      5  C   UNL     1      47.412   5.717  13.947  0.00  0.00    +0.000 A 
ATOM      6  C   UNL     1      46.601   6.575  13.199  0.00  0.00    +0.000 A 
ATOM      7  C   UNL     1      46.990   7.908  12.983  0.00  0.00    +0.000 A 
ATOM      8  C   UNL     1      46.200   8.772  12.226  0.00  0.00    +0.000 A 
ATOM      9  C   UNL     1      45.000   8.319  11.695  0.00  0.00    +0.000 A 
ATOM     10  C   UNL     1      44.595   7.000  11.908  0.00  0.00    +0.000 A 
ATOM     11  C   UNL     1      45.393   6.090  12.646  0.00  0.00    +0.000 A 
ENDBRANCH   1   2
BRANCH   1  14
ATOM     12  C   UNL     1      45.121   2.929   9.045  0.00  0.00    +0.000 A 
ATOM     13  C   UNL     1      44.987   2.677  10.392  0.00  0.00    +0.000 A 
ATOM     14  N   UNL     1      44.167   3.673  10.839  0.00  0.00    +0.000 N 
ATOM     15  N   UNL     1      43.801   4.486   9.828  0.00  0.00    +0.000 NA
ATOM     16  N   UNL     1      44.371   4.030   8.720  0.00  0.00    +0.000 NA
BRANCH  12  17
ATOM     17  C   UNL     1      45.955   2.237   8.029  0.00  0.00    +0.000 C 
BRANCH  17  18
ATOM     18  C   UNL     1      46.291   3.166   6.856  0.00  0.00    +0.000 C 
BRANCH  18  19
ATOM     19  N   UNL     1      46.962   4.389   7.301  0.00  0.00    +0.000 NA
ATOM     20  H   UNL     1      46.349   5.185   7.124  0.00  0.00    +0.000 HD
ATOM     21  H   UNL     1      47.793   4.545   6.731  0.00  0.00    +0.000 HD
ENDBRANCH  18  19
ENDBRANCH  17  18
ENDBRANCH  12  17
ENDBRANCH   1  14
TORSDOF 5
ENDMDL
MODEL 3
REMARK VINA RESULT:    -6.544      4.947      7.370
REMARK INTER + INTRA:          -8.679
REMARK INTER:                  -8.273
REMARK INTRA:                  -0.405
REMARK UNBOUND:                -0.414
REMARK  Name = 
REMARK  5 active torsions:
REMARK  status: ('A' for Active; 'I' for Inactive)
REMARK    1  A    between atoms: N_1  and  C_2
REMARK    2  A    between atoms: C_2  and  C_3
REMARK    3  A    between atoms: C_3  and  C_4
REMARK    4  A    between atoms: N_6  and  C_7
REMARK    5  A    between atoms: C_7  and  C_8
REMARK                            x       y       z     vdW  Elec       q    Type
REMARK                         _______ _______ _______ _____ _____    ______ ____
ROOT
ATOM      1  C   UNL     1      47.241   4.051  16.260  0.00  0.00    +0.000 C 
ENDROOT
BRANCH   1   2
ATOM      2  C   UNL     1      47.566   5.143  15.274  0.00  0.00    +0.000 A 
ATOM      3  N   UNL     1      48.603   5.950  15.642  0.00  0.00    +0.000 NA
ATOM      4  C   UNL     1      49.007   6.889  14.766  0.00  0.00    +0.000 A 
ATOM      5  C   UNL     1      48.446   7.067  13.517  0.00  0.00    +0.000 A 
ATOM      6  C   UNL     1      47.386   6.242  13.132  0.00  0.00    +0.000 A 
ATOM      7  C   UNL     1      46.811   6.377  11.857  0.00  0.00    +0.000 A 
ATOM      8  C   UNL     1      45.763   5.551  11.452  0.00  0.00    +0.000 A 
ATOM      9  C   UNL     1      45.263   4.595  12.326  0.00  0.00    +0.000 A 
ATOM     10  C   UNL     1      45.817   4.455  13.600  0.00  0.00    +0.000 A 
ATOM     11  C   UNL     1      46.904   5.258  14.027  0.00  0.00    +0.000 A 
ENDBRANCH   1   2
BRANCH   1  14
ATOM     12  C   UNL     1      50.370   2.620  17.222  0.00  0.00    +0.000 A 
ATOM     13  C   UNL     1      49.371   3.524  17.505  0.00  0.00    +0.000 A 
ATOM     14  N   UNL     1      48.396   3.243  16.591  0.00  0.00    +0.000 N 
ATOM     15  N   UNL     1      48.762   2.217  15.797  0.00  0.00    +0.000 NA
ATOM     16  N   UNL     1      49.967   1.819  16.185  0.00  0.00    +0.000 NA
BRANCH  12  17
ATOM     17  C   UNL     1      51.722   2.481  17.823  0.00  0.00    +0.000 C 
BRANCH  17  18
ATOM     18  C   UNL     1      52.326   1.104  17.526  0.00  0.00    +0.000 C 
BRANCH  18  19
ATOM     19  N   UNL     1      51.610   0.030  18.218  0.00  0.00    +0.000 NA
ATOM     20  H   UNL     1      51.943  -0.869  17.869  0.00  0.00    +0.000 HD
ATOM     21  H   UNL     1      50.620   0.074  17.978  0.00  0.00    +0.000 HD
ENDBRANCH  18  19
ENDBRANCH  17  18
ENDBRANCH  12  17
ENDBRANCH   1  14
TORSDOF 5
ENDMDL
MODEL 4
REMARK VINA RESULT:    -6.355      3.178      5.988
REMARK INTER + INTRA:          -8.440
REMARK INTER:                  -7.908
REMARK INTRA:                  -0.533
REMARK UNBOUND:                -0.414
REMARK  Name = 
REMARK  5 active torsions:
REMARK  status: ('A' for Active; 'I' for Inactive)
REMARK    1  A    between atoms: N_1  and  C_2
REMARK    2  A    between atoms: C_2  and  C_3
REMARK    3  A    between atoms: C_3  and  C_4
REMARK    4  A    between atoms: N_6  and  C_7
REMARK    5  A    between atoms: C_7  and  C_8
REMARK                            x       y       z     vdW  Elec       q    Type
REMARK                         _______ _______ _______ _____ _____    ______ ____
ROOT
ATOM      1  C   UNL     1      44.685   6.996  11.280  0.00  0.00    +0.000 C 
ENDROOT
BRANCH   1   2
ATOM      2  C   UNL     1      44.421   5.519  11.415  0.00  0.00    +0.000 A 
ATOM      3  N   UNL     1      43.773   5.162  12.561  0.00  0.00    +0.000 NA
ATOM      4  C   UNL     1      43.422   3.869  12.706  0.00  0.00    +0.000 A 
ATOM      5  C   UNL     1      43.666   2.897  11.757  0.00  0.00    +0.000 A 
ATOM      6  C   UNL     1      44.326   3.256  10.580  0.00  0.00    +0.000 A 
ATOM      7  C   UNL     1      44.563   2.297   9.580  0.00  0.00    +0.000 A 
ATOM      8  C   UNL     1      45.207   2.643   8.393  0.00  0.00    +0.000 A 
ATOM      9  C   UNL     1      45.641   3.948   8.200  0.00  0.00    +0.000 A 
ATOM     10  C   UNL     1      45.420   4.911   9.187  0.00  0.00    +0.000 A 
ATOM     11  C   UNL     1      44.741   4.595  10.390  0.00  0.00    +0.000 A 
ENDBRANCH   1   2
BRANCH   1  14
ATOM     12  C   UNL     1      47.675   7.412  13.189  0.00  0.00    +0.000 A 
ATOM     13  C   UNL     1      47.037   6.758  12.160  0.00  0.00    +0.000 A 
ATOM     14  N   UNL     1      45.851   7.421  12.026  0.00  0.00    +0.000 N 
ATOM     15  N   UNL     1      45.764   8.436  12.909  0.00  0.00    +0.000 NA
ATOM     16  N   UNL     1      46.885   8.447  13.619  0.00  0.00    +0.000 NA
BRANCH  12  17
ATOM     17  C   UNL     1      48.970   7.106  13.850  0.00  0.00    +0.000 C 
BRANCH  17  18
ATOM     18  C   UNL     1      48.770   6.731  15.323  0.00  0.00    +0.000 C 
BRANCH  18  19
ATOM     19  N   UNL     1      47.996   5.496  15.473  0.00  0.00    +0.000 NA
ATOM     20  H   UNL     1      47.187   5.684  16.067  0.00  0.00    +0.000 HD
ATOM     21  H   UNL     1      48.555   4.806  15.973  0.00  0.00    +0.000 HD
ENDBRANCH  18  19
ENDBRANCH  17  18
ENDBRANCH  12  17
ENDBRANCH   1  14
TORSDOF 5
ENDMDL
MODEL 5
REMARK VINA RESULT:    -6.307      4.545      7.419
REMARK INTER + INTRA:          -8.380
REMARK INTER:                  -7.807
REMARK INTRA:                  -0.572
REMARK UNBOUND:                -0.414
REMARK  Name = 
REMARK  5 active torsions:
REMARK  status: ('A' for Active; 'I' for Inactive)
REMARK    1  A    between atoms: N_1  and  C_2
REMARK    2  A    between atoms: C_2  and  C_3
REMARK    3  A    between atoms: C_3  and  C_4
REMARK    4  A    between atoms: N_6  and  C_7
REMARK    5  A    between atoms: C_7  and  C_8
REMARK                            x       y       z     vdW  Elec       q    Type
REMARK                         _______ _______ _______ _____ _____    ______ ____
ROOT
ATOM      1  C   UNL     1      47.182   4.102  16.522  0.00  0.00    +0.000 C 
ENDROOT
BRANCH   1   2
ATOM      2  C   UNL     1      47.130   4.640  15.116  0.00  0.00    +0.000 A 
ATOM      3  N   UNL     1      46.207   4.038  14.312  0.00  0.00    +0.000 NA
ATOM      4  C   UNL     1      46.043   4.530  13.069  0.00  0.00    +0.000 A 
ATOM      5  C   UNL     1      46.739   5.614  12.574  0.00  0.00    +0.000 A 
ATOM      6  C   UNL     1      47.684   6.238  13.393  0.00  0.00    +0.000 A 
ATOM      7  C   UNL     1      48.390   7.362  12.931  0.00  0.00    +0.000 A 
ATOM      8  C   UNL     1      49.325   8.004  13.741  0.00  0.00    +0.000 A 
ATOM      9  C   UNL     1      49.581   7.518  15.016  0.00  0.00    +0.000 A 
ATOM     10  C   UNL     1      48.895   6.396  15.487  0.00  0.00    +0.000 A 
ATOM     11  C   UNL     1      47.916   5.742  14.697  0.00  0.00    +0.000 A 
ENDBRANCH   1   2
BRANCH   1  14
ATOM     12  C   UNL     1      50.353   2.630  17.256  0.00  0.00    +0.000 A 
ATOM     13  C   UNL     1      49.373   3.522  17.629  0.00  0.00    +0.000 A 
ATOM     14  N   UNL     1      48.350   3.280  16.758  0.00  0.00    +0.000 N 
ATOM     15  N   UNL     1      48.669   2.287  15.905  0.00  0.00    +0.000 NA
ATOM     16  N   UNL     1      49.892   1.872  16.211  0.00  0.00    +0.000 NA
BRANCH  12  17
ATOM     17  C   UNL     1      51.734   2.464  17.779  0.00  0.00    +0.000 C 
BRANCH  17  18
ATOM     18  C   UNL     1      52.310   1.092  17.409  0.00  0.00    +0.000 C 
BRANCH  18  19
ATOM     19  N   UNL     1      51.715   0.016  18.204  0.00  0.00    +0.000 NA
ATOM     20  H   UNL     1      51.725   0.287  19.188  0.00  0.00    +0.000 HD
ATOM     21  H   UNL     1      52.300  -0.816  18.137  0.00  0.00    +0.000 HD
ENDBRANCH  18  19
ENDBRANCH  17  18
ENDBRANCH  12  17
ENDBRANCH   1  14
TORSDOF 5
ENDMDL
MODEL 6
REMARK VINA RESULT:    -6.120      1.429      2.760
REMARK INTER + INTRA:          -8.143
REMARK INTER:                  -7.814
REMARK INTRA:                  -0.330
REMARK UNBOUND:                -0.414
REMARK  Name = 
REMARK  5 active torsions:
REMARK  status: ('A' for Active; 'I' for Inactive)
REMARK    1  A    between atoms: N_1  and  C_2
REMARK    2  A    between atoms: C_2  and  C_3
REMARK    3  A    between atoms: C_3  and  C_4
REMARK    4  A    between atoms: N_6  and  C_7
REMARK    5  A    between atoms: C_7  and  C_8
REMARK                            x       y       z     vdW  Elec       q    Type
REMARK                         _______ _______ _______ _____ _____    ______ ____
ROOT
ATOM      1  C   UNL     1      43.892   4.831  11.557  0.00  0.00    +0.000 C 
ENDROOT
BRANCH   1   2
ATOM      2  C   UNL     1      44.602   6.144  11.757  0.00  0.00    +0.000 A 
ATOM      3  N   UNL     1      43.982   7.217  11.187  0.00  0.00    +0.000 NA
ATOM      4  C   UNL     1      44.512   8.435  11.404  0.00  0.00    +0.000 A 
ATOM      5  C   UNL     1      45.631   8.659  12.181  0.00  0.00    +0.000 A 
ATOM      6  C   UNL     1      46.269   7.565  12.771  0.00  0.00    +0.000 A 
ATOM      7  C   UNL     1      47.393   7.760  13.592  0.00  0.00    +0.000 A 
ATOM      8  C   UNL     1      48.032   6.680  14.200  0.00  0.00    +0.000 A 
ATOM      9  C   UNL     1      47.569   5.391  13.977  0.00  0.00    +0.000 A 
ATOM     10  C   UNL     1      46.458   5.180  13.157  0.00  0.00    +0.000 A 
ATOM     11  C   UNL     1      45.770   6.260  12.551  0.00  0.00    +0.000 A 
ENDBRANCH   1   2
BRANCH   1  14
ATOM     12  C   UNL     1      45.282   3.478   8.557  0.00  0.00    +0.000 A 
ATOM     13  C   UNL     1      45.290   4.496   9.483  0.00  0.00    +0.000 A 
ATOM     14  N   UNL     1      44.456   4.056  10.472  0.00  0.00    +0.000 N 
ATOM     15  N   UNL     1      43.971   2.832  10.183  0.00  0.00    +0.000 NA
ATOM     16  N   UNL     1      44.482   2.463   9.015  0.00  0.00    +0.000 NA
BRANCH  12  17
ATOM     17  C   UNL     1      45.935   3.403   7.224  0.00  0.00    +0.000 C 
BRANCH  17  18
ATOM     18  C   UNL     1      47.061   2.362   7.212  0.00  0.00    +0.000 C 
BRANCH  18  19
ATOM     19  N   UNL     1      48.236   2.834   6.476  0.00  0.00    +0.000 NA
ATOM     20  H   UNL     1      48.334   2.284   5.623  0.00  0.00    +0.000 HD
ATOM     21  H   UNL     1      49.074   2.651   7.026  0.00  0.00    +0.000 HD
ENDBRANCH  18  19
ENDBRANCH  17  18
ENDBRANCH  12  17
ENDBRANCH   1  14
TORSDOF 5
ENDMDL
MODEL 7
REMARK VINA RESULT:    -6.107      5.300      8.087
REMARK INTER + INTRA:          -8.127
REMARK INTER:                  -7.484
REMARK INTRA:                  -0.643
REMARK UNBOUND:                -0.414
REMARK  Name = 
REMARK  5 active torsions:
REMARK  status: ('A' for Active; 'I' for Inactive)
REMARK    1  A    between atoms: N_1  and  C_2
REMARK    2  A    between atoms: C_2  and  C_3
REMARK    3  A    between atoms: C_3  and  C_4
REMARK    4  A    between atoms: N_6  and  C_7
REMARK    5  A    between atoms: C_7  and  C_8
REMARK                            x       y       z     vdW  Elec       q    Type
REMARK                         _______ _______ _______ _____ _____    ______ ____
ROOT
ATOM      1  C   UNL     1      48.182   3.603  17.380  0.00  0.00    +0.000 C 
ENDROOT
BRANCH   1   2
ATOM      2  C   UNL     1      49.573   4.120  17.636  0.00  0.00    +0.000 A 
ATOM      3  N   UNL     1      49.637   5.450  17.934  0.00  0.00    +0.000 NA
ATOM      4  C   UNL     1      50.838   5.961  18.265  0.00  0.00    +0.000 A 
ATOM      5  C   UNL     1      51.997   5.214  18.336  0.00  0.00    +0.000 A 
ATOM      6  C   UNL     1      51.938   3.851  18.036  0.00  0.00    +0.000 A 
ATOM      7  C   UNL     1      53.093   3.055  18.127  0.00  0.00    +0.000 A 
ATOM      8  C   UNL     1      53.048   1.691  17.846  0.00  0.00    +0.000 A 
ATOM      9  C   UNL     1      51.851   1.109  17.448  0.00  0.00    +0.000 A 
ATOM     10  C   UNL     1      50.697   1.887  17.344  0.00  0.00    +0.000 A 
ATOM     11  C   UNL     1      50.706   3.270  17.654  0.00  0.00    +0.000 A 
ENDBRANCH   1   2
BRANCH   1  14
ATOM     12  C   UNL     1      46.632   4.381  14.256  0.00  0.00    +0.000 A 
ATOM     13  C   UNL     1      46.989   4.812  15.514  0.00  0.00    +0.000 A 
ATOM     14  N   UNL     1      47.762   3.800  16.008  0.00  0.00    +0.000 N 
ATOM     15  N   UNL     1      47.889   2.806  15.106  0.00  0.00    +0.000 NA
ATOM     16  N   UNL     1      47.210   3.160  14.022  0.00  0.00    +0.000 NA
BRANCH  12  17
ATOM     17  C   UNL     1      45.731   5.012  13.258  0.00  0.00    +0.000 C 
BRANCH  17  18
ATOM     18  C   UNL     1      45.375   4.036  12.131  0.00  0.00    +0.000 C 
BRANCH  18  19
ATOM     19  N   UNL     1      44.583   2.904  12.616  0.00  0.00    +0.000 NA
ATOM     20  H   UNL     1      44.981   2.575  13.497  0.00  0.00    +0.000 HD
ATOM     21  H   UNL     1      44.670   2.126  11.963  0.00  0.00    +0.000 HD
ENDBRANCH  18  19
ENDBRANCH  17  18
ENDBRANCH  12  17
ENDBRANCH   1  14
TORSDOF 5
ENDMDL
MODEL 8
REMARK VINA RESULT:    -5.721      3.934      5.710
REMARK INTER + INTRA:          -7.639
REMARK INTER:                  -7.056
REMARK INTRA:                  -0.583
REMARK UNBOUND:                -0.414
REMARK  Name = 
REMARK  5 active torsions:
REMARK  status: ('A' for Active; 'I' for Inactive)
REMARK    1  A    between atoms: N_1  and  C_2
REMARK    2  A    between atoms: C_2  and  C_3
REMARK    3  A    between atoms: C_3  and  C_4
REMARK    4  A    between atoms: N_6  and  C_7
REMARK    5  A    between atoms: C_7  and  C_8
REMARK                            x       y       z     vdW  Elec       q    Type
REMARK                         _______ _______ _______ _____ _____    ______ ____
ROOT
ATOM      1  C   UNL     1      47.662   4.577  13.907  0.00  0.00    +0.000 C 
ENDROOT
BRANCH   1   2
ATOM      2  C   UNL     1      47.638   4.663  15.411  0.00  0.00    +0.000 A 
ATOM      3  N   UNL     1      47.074   3.587  16.032  0.00  0.00    +0.000 NA
ATOM      4  C   UNL     1      47.102   3.555  17.378  0.00  0.00    +0.000 A 
ATOM      5  C   UNL     1      47.681   4.536  18.157  0.00  0.00    +0.000 A 
ATOM      6  C   UNL     1      48.262   5.640  17.529  0.00  0.00    +0.000 A 
ATOM      7  C   UNL     1      48.886   6.642  18.291  0.00  0.00    +0.000 A 
ATOM      8  C   UNL     1      49.484   7.741  17.677  0.00  0.00    +0.000 A 
ATOM      9  C   UNL     1      49.447   7.863  16.295  0.00  0.00    +0.000 A 
ATOM     10  C   UNL     1      48.824   6.880  15.523  0.00  0.00    +0.000 A 
ATOM     11  C   UNL     1      48.235   5.736  16.117  0.00  0.00    +0.000 A 
ENDBRANCH   1   2
BRANCH   1  14
ATOM     12  C   UNL     1      44.218   4.649  12.962  0.00  0.00    +0.000 A 
ATOM     13  C   UNL     1      45.335   5.363  13.330  0.00  0.00    +0.000 A 
ATOM     14  N   UNL     1      46.338   4.436  13.339  0.00  0.00    +0.000 N 
ATOM     15  N   UNL     1      45.874   3.221  12.983  0.00  0.00    +0.000 NA
ATOM     16  N   UNL     1      44.575   3.344  12.737  0.00  0.00    +0.000 NA
BRANCH  12  17
ATOM     17  C   UNL     1      42.803   5.089  12.854  0.00  0.00    +0.000 C 
BRANCH  17  18
ATOM     18  C   UNL     1      42.554   5.854  11.549  0.00  0.00    +0.000 C 
BRANCH  18  19
ATOM     19  N   UNL     1      43.242   5.236  10.413  0.00  0.00    +0.000 NA
ATOM     20  H   UNL     1      44.071   4.749  10.754  0.00  0.00    +0.000 HD
ATOM     21  H   UNL     1      43.583   5.965   9.788  0.00  0.00    +0.000 HD
ENDBRANCH  18  19
ENDBRANCH  17  18
ENDBRANCH  12  17
ENDBRANCH   1  14
TORSDOF 5
ENDMDL
MODEL 9
REMARK VINA RESULT:    -5.673      2.418      4.789
REMARK INTER + INTRA:          -7.578
REMARK INTER:                  -7.398
REMARK INTRA:                  -0.181
REMARK UNBOUND:                -0.414
REMARK  Name = 
REMARK  5 active torsions:
REMARK  status: ('A' for Active; 'I' for Inactive)
REMARK    1  A    between atoms: N_1  and  C_2
REMARK    2  A    between atoms: C_2  and  C_3
REMARK    3  A    between atoms: C_3  and  C_4
REMARK    4  A    between atoms: N_6  and  C_7
REMARK    5  A    between atoms: C_7  and  C_8
REMARK                            x       y       z     vdW  Elec       q    Type
REMARK                         _______ _______ _______ _____ _____    ______ ____
ROOT
ATOM      1  C   UNL     1      47.068   6.026  13.798  0.00  0.00    +0.000 C 
ENDROOT
BRANCH   1   2
ATOM      2  C   UNL     1      46.956   7.351  13.090  0.00  0.00    +0.000 A 
ATOM      3  N   UNL     1      45.727   7.938  13.176  0.00  0.00    +0.000 NA
ATOM      4  C   UNL     1      45.582   9.167  12.644  0.00  0.00    +0.000 A 
ATOM      5  C   UNL     1      46.605   9.867  12.037  0.00  0.00    +0.000 A 
ATOM      6  C   UNL     1      47.866   9.274  11.948  0.00  0.00    +0.000 A 
ATOM      7  C   UNL     1      48.937   9.971  11.363  0.00  0.00    +0.000 A 
ATOM      8  C   UNL     1      50.206   9.398  11.281  0.00  0.00    +0.000 A 
ATOM      9  C   UNL     1      50.414   8.113  11.763  0.00  0.00    +0.000 A 
ATOM     10  C   UNL     1      49.358   7.404  12.340  0.00  0.00    +0.000 A 
ATOM     11  C   UNL     1      48.066   7.972  12.466  0.00  0.00    +0.000 A 
ENDBRANCH   1   2
BRANCH   1  14
ATOM     12  C   UNL     1      45.070   3.793  11.852  0.00  0.00    +0.000 A 
ATOM     13  C   UNL     1      45.610   5.052  11.983  0.00  0.00    +0.000 A 
ATOM     14  N   UNL     1      46.448   4.948  13.057  0.00  0.00    +0.000 N 
ATOM     15  N   UNL     1      46.440   3.695  13.553  0.00  0.00    +0.000 NA
ATOM     16  N   UNL     1      45.607   2.975  12.812  0.00  0.00    +0.000 NA
BRANCH  12  17
ATOM     17  C   UNL     1      44.031   3.300  10.912  0.00  0.00    +0.000 C 
BRANCH  17  18
ATOM     18  C   UNL     1      44.499   3.406   9.456  0.00  0.00    +0.000 C 
BRANCH  18  19
ATOM     19  N   UNL     1      43.855   4.518   8.753  0.00  0.00    +0.000 NA
ATOM     20  H   UNL     1      42.867   4.296   8.618  0.00  0.00    +0.000 HD
ATOM     21  H   UNL     1      44.252   4.602   7.818  0.00  0.00    +0.000 HD
ENDBRANCH  18  19
ENDBRANCH  17  18
ENDBRANCH  12  17
ENDBRANCH   1  14
TORSDOF 5
ENDMDL
