MODEL 1
REMARK VINA RESULT:    -7.952      0.000      0.000
REMARK INTER + INTRA:          -9.970
REMARK INTER:                 -10.277
REMARK INTRA:                   0.307
REMARK UNBOUND:                 0.307
REMARK  Name = 
REMARK  7 active torsions:
REMARK  status: ('A' for Active; 'I' for Inactive)
REMARK    1  A    between atoms: C_1  and  C_2
REMARK    2  A    between atoms: C_3  and  C_4
REMARK    3  A    between atoms: C_6  and  C_7
REMARK    4  A    between atoms: N_13  and  C_14
REMARK    5  A    between atoms: C_14  and  C_15
REMARK    6  A    between atoms: C_18  and  O_19
REMARK    7  A    between atoms: O_19  and  C_20
REMARK                            x       y       z     vdW  Elec       q    Type
REMARK                         _______ _______ _______ _____ _____    ______ ____
ROOT
ATOM      1  C   UNL     1      47.348   4.767  15.016  0.00  0.00    +0.000 A 
ATOM      2  C   UNL     1      47.564   5.972  14.397  0.00  0.00    +0.000 A 
ATOM      3  C   UNL     1      47.016   6.109  13.132  0.00  0.00    +0.000 A 
ATOM      4  N   UNL     1      46.322   5.098  12.562  0.00  0.00    +0.000 NA
ATOM      5  C   UNL     1      46.159   3.962  13.221  0.00  0.00    +0.000 A 
ATOM      6  N   UNL     1      45.546   2.888  12.564  0.00  0.00    +0.000 N 
ATOM      7  N   UNL     1      46.656   3.748  14.468  0.00  0.00    +0.000 NA
ATOM      8  H   UNL     1      45.432   2.138  13.229  0.00  0.00    +0.000 HD
ENDROOT
BRANCH   3   9
ATOM      9  C   UNL     1      47.178   7.377  12.327  0.00  0.00    +0.000 C 
ATOM     10  F   UNL     1      47.472   8.471  13.088  0.00  0.00    +0.000 F 
ATOM     11  F   UNL     1      48.177   7.295  11.402  0.00  0.00    +0.000 F 
ATOM     12  F   UNL     1      46.052   7.709  11.629  0.00  0.00    +0.000 F 
ENDBRANCH   3   9
BRANCH   1  15
ATOM     13  C   UNL     1      48.976   4.079  18.897  0.00  0.00    +0.000 C 
ATOM     14  C   UNL     1      48.406   4.322  17.509  0.00  0.00    +0.000 C 
ATOM     15  C   UNL     1      47.915   4.531  16.319  0.00  0.00    +0.000 C 
ENDBRANCH   1  15
BRANCH   6  16
ATOM     16  C   UNL     1      44.469   3.080  11.557  0.00  0.00    +0.000 C 
ATOM     17  C   UNL     1      43.312   3.985  11.995  0.00  0.00    +0.000 C 
ATOM     18  C   UNL     1      43.043   2.548  11.690  0.00  0.00    +0.000 C 
BRANCH  16  19
ATOM     19  C   UNL     1      45.005   3.259  10.147  0.00  0.00    +0.000 A 
ATOM     20  C   UNL     1      45.325   4.532   9.654  0.00  0.00    +0.000 A 
ATOM     21  C   UNL     1      45.834   4.705   8.366  0.00  0.00    +0.000 A 
ATOM     22  C   UNL     1      46.091   3.599   7.560  0.00  0.00    +0.000 A 
ATOM     23  C   UNL     1      45.826   2.324   8.051  0.00  0.00    +0.000 A 
ATOM     24  C   UNL     1      45.241   2.161   9.307  0.00  0.00    +0.000 A 
BRANCH  22  25
ATOM     25  O   UNL     1      46.572   3.881   6.310  0.00  0.00    +0.000 OA
ATOM     26  C   UNL     1      47.113   2.776   5.596  0.00  0.00    +0.000 C 
ENDBRANCH  22  25
ENDBRANCH  16  19
ENDBRANCH   6  16
TORSDOF 5
ENDMDL
MODEL 2
REMARK VINA RESULT:    -7.839      2.425      3.732
REMARK INTER + INTRA:          -9.823
REMARK INTER:                  -9.260
REMARK INTRA:                  -0.563
REMARK UNBOUND:                 0.307
REMARK  Name = 
REMARK  7 active torsions:
REMARK  status: ('A' for Active; 'I' for Inactive)
REMARK    1  A    between atoms: C_1  and  C_2
REMARK    2  A    between atoms: C_3  and  C_4
REMARK    3  A    between atoms: C_6  and  C_7
REMARK    4  A    between atoms: N_13  and  C_14
REMARK    5  A    between atoms: C_14  and  C_15
REMARK    6  A    between atoms: C_18  and  O_19
REMARK    7  A    between atoms: O_19  and  C_20
REMARK                            x       y       z     vdW  Elec       q    Type
REMARK                         _______ _______ _______ _____ _____    ______ ____
ROOT
ATOM      1  C   UNL     1      48.105   7.218  12.922  0.00  0.00    +0.000 A 
ATOM      2  C   UNL     1      48.298   6.358  13.975  0.00  0.00    +0.000 A 
ATOM      3  C   UNL     1      47.314   5.401  14.161  0.00  0.00    +0.000 A 
ATOM      4  N   UNL     1      46.237   5.342  13.346  0.00  0.00    +0.000 NA
ATOM      5  C   UNL     1      46.119   6.209  12.352  0.00  0.00    +0.000 A 
ATOM      6  N   UNL     1      44.939   6.210  11.600  0.00  0.00    +0.000 N 
ATOM      7  N   UNL     1      47.041   7.174  12.096  0.00  0.00    +0.000 NA
ATOM      8  H   UNL     1      45.048   6.870  10.845  0.00  0.00    +0.000 HD
ENDROOT
BRANCH   3   9
ATOM      9  C   UNL     1      47.388   4.391  15.282  0.00  0.00    +0.000 C 
ATOM     10  F   UNL     1      46.284   4.388  16.085  0.00  0.00    +0.000 F 
ATOM     11  F   UNL     1      47.518   3.109  14.835  0.00  0.00    +0.000 F 
ATOM     12  F   UNL     1      48.447   4.602  16.118  0.00  0.00    +0.000 F 
ENDBRANCH   3   9
BRANCH   1  15
ATOM     13  C   UNL     1      50.978  10.283  12.193  0.00  0.00    +0.000 C 
ATOM     14  C   UNL     1      49.947   9.197  12.457  0.00  0.00    +0.000 C 
ATOM     15  C   UNL     1      49.063   8.266  12.682  0.00  0.00    +0.000 C 
ENDBRANCH   1  15
BRANCH   6  16
ATOM     16  C   UNL     1      44.173   4.967  11.316  0.00  0.00    +0.000 C 
ATOM     17  C   UNL     1      42.649   5.099  11.403  0.00  0.00    +0.000 C 
ATOM     18  C   UNL     1      43.360   4.186  12.347  0.00  0.00    +0.000 C 
BRANCH  16  19
ATOM     19  C   UNL     1      44.743   4.176  10.151  0.00  0.00    +0.000 A 
ATOM     20  C   UNL     1      45.449   4.816   9.122  0.00  0.00    +0.000 A 
ATOM     21  C   UNL     1      45.991   4.096   8.056  0.00  0.00    +0.000 A 
ATOM     22  C   UNL     1      45.890   2.708   8.026  0.00  0.00    +0.000 A 
ATOM     23  C   UNL     1      45.237   2.051   9.065  0.00  0.00    +0.000 A 
ATOM     24  C   UNL     1      44.626   2.780  10.085  0.00  0.00    +0.000 A 
BRANCH  22  25
ATOM     25  O   UNL     1      46.439   2.102   6.929  0.00  0.00    +0.000 OA
ATOM     26  C   UNL     1      47.859   2.130   6.857  0.00  0.00    +0.000 C 
ENDBRANCH  22  25
ENDBRANCH  16  19
ENDBRANCH   6  16
TORSDOF 5
ENDMDL
MODEL 3
REMARK VINA RESULT:    -6.718      3.638      7.607
REMARK INTER + INTRA:          -8.375
REMARK INTER:                  -7.933
REMARK INTRA:                  -0.442
REMARK UNBOUND:                 0.307
REMARK  Name = 
REMARK  7 active torsions:
REMARK  status: ('A' for Active; 'I' for Inactive)
REMARK    1  A    between atoms: C_1  and  C_2
REMARK    2  A    between atoms: C_3  and  C_4
REMARK    3  A    between atoms: C_6  and  C_7
REMARK    4  A    between atoms: N_13  and  C_14
REMARK    5  A    between atoms: C_14  and  C_15
REMARK    6  A    between atoms: C_18  and  O_19
REMARK    7  A    between atoms: O_19  and  C_20
REMARK                            x       y       z     vdW  Elec       q    Type
REMARK                         _______ _______ _______ _____ _____    ______ ____
ROOT
ATOM      1  C   UNL     1      46.397   4.765  13.420  0.00  0.00    +0.000 A 
ATOM      2  C   UNL     1      47.122   5.696  12.719  0.00  0.00    +0.000 A 
ATOM      3  C   UNL     1      48.072   6.395  13.446  0.00  0.00    +0.000 A 
ATOM      4  N   UNL     1      48.249   6.161  14.766  0.00  0.00    +0.000 NA
ATOM      5  C   UNL     1      47.507   5.249  15.375  0.00  0.00    +0.000 A 
ATOM      6  N   UNL     1      47.620   5.112  16.763  0.00  0.00    +0.000 N 
ATOM      7  N   UNL     1      46.560   4.514  14.735  0.00  0.00    +0.000 NA
ATOM      8  H   UNL     1      47.051   4.329  17.048  0.00  0.00    +0.000 HD
ENDROOT
BRANCH   3   9
ATOM      9  C   UNL     1      48.941   7.454  12.810  0.00  0.00    +0.000 C 
ATOM     10  F   UNL     1      49.644   8.197  13.714  0.00  0.00    +0.000 F 
ATOM     11  F   UNL     1      49.873   6.936  11.958  0.00  0.00    +0.000 F 
ATOM     12  F   UNL     1      48.225   8.355  12.073  0.00  0.00    +0.000 F 
ENDBRANCH   3   9
BRANCH   1  15
ATOM     13  C   UNL     1      43.348   2.518  11.462  0.00  0.00    +0.000 C 
ATOM     14  C   UNL     1      44.433   3.327  12.153  0.00  0.00    +0.000 C 
ATOM     15  C   UNL     1      45.364   4.021  12.747  0.00  0.00    +0.000 C 
ENDBRANCH   1  15
BRANCH   6  16
ATOM     16  C   UNL     1      48.904   5.323  17.484  0.00  0.00    +0.000 C 
ATOM     17  C   UNL     1      48.804   6.135  18.780  0.00  0.00    +0.000 C 
ATOM     18  C   UNL     1      49.606   6.670  17.641  0.00  0.00    +0.000 C 
BRANCH  16  19
ATOM     19  C   UNL     1      49.783   4.085  17.498  0.00  0.00    +0.000 A 
ATOM     20  C   UNL     1      49.260   2.825  17.172  0.00  0.00    +0.000 A 
ATOM     21  C   UNL     1      50.064   1.685  17.165  0.00  0.00    +0.000 A 
ATOM     22  C   UNL     1      51.428   1.787  17.427  0.00  0.00    +0.000 A 
ATOM     23  C   UNL     1      51.974   3.037  17.703  0.00  0.00    +0.000 A 
ATOM     24  C   UNL     1      51.153   4.162  17.790  0.00  0.00    +0.000 A 
BRANCH  22  25
ATOM     25  O   UNL     1      52.120   0.607  17.413  0.00  0.00    +0.000 OA
ATOM     26  C   UNL     1      53.499   0.700  17.745  0.00  0.00    +0.000 C 
ENDBRANCH  22  25
ENDBRANCH  16  19
ENDBRANCH   6  16
TORSDOF 5
ENDMDL
MODEL 4
REMARK VINA RESULT:    -6.343      2.869      4.498
REMARK INTER + INTRA:          -7.889
REMARK INTER:                  -7.463
REMARK INTRA:                  -0.426
REMARK UNBOUND:                 0.307
REMARK  Name = 
REMARK  7 active torsions:
REMARK  status: ('A' for Active; 'I' for Inactive)
REMARK    1  A    between atoms: C_1  and  C_2
REMARK    2  A    between atoms: C_3  and  C_4
REMARK    3  A    between atoms: C_6  and  C_7
REMARK    4  A    between atoms: N_13  and  C_14
REMARK    5  A    between atoms: C_14  and  C_15
REMARK    6  A    between atoms: C_18  and  O_19
REMARK    7  A    between atoms: O_19  and  C_20
REMARK                            x       y       z     vdW  Elec       q    Type
REMARK                         _______ _______ _______ _____ _____    ______ ____
ROOT
ATOM      1  C   UNL     1      49.592   7.843  12.092  0.00  0.00    +0.000 A 
ATOM      2  C   UNL     1      49.720   7.449  13.400  0.00  0.00    +0.000 A 
ATOM      3  C   UNL     1      48.590   6.889  13.975  0.00  0.00    +0.000 A 
ATOM      4  N   UNL     1      47.443   6.756  13.271  0.00  0.00    +0.000 NA
ATOM      5  C   UNL     1      47.396   7.164  12.013  0.00  0.00    +0.000 A 
ATOM      6  N   UNL     1      46.168   7.133  11.343  0.00  0.00    +0.000 N 
ATOM      7  N   UNL     1      48.459   7.717  11.371  0.00  0.00    +0.000 NA
ATOM      8  H   UNL     1      46.327   7.399  10.383  0.00  0.00    +0.000 HD
ENDROOT
BRANCH   3   9
ATOM      9  C   UNL     1      48.579   6.415  15.409  0.00  0.00    +0.000 C 
ATOM     10  F   UNL     1      47.731   5.368  15.630  0.00  0.00    +0.000 F 
ATOM     11  F   UNL     1      49.803   5.990  15.838  0.00  0.00    +0.000 F 
ATOM     12  F   UNL     1      48.195   7.388  16.287  0.00  0.00    +0.000 F 
ENDBRANCH   3   9
BRANCH   1  15
ATOM     13  C   UNL     1      52.883   9.746  10.160  0.00  0.00    +0.000 C 
ATOM     14  C   UNL     1      51.712   9.059  10.844  0.00  0.00    +0.000 C 
ATOM     15  C   UNL     1      50.708   8.469  11.431  0.00  0.00    +0.000 C 
ENDBRANCH   1  15
BRANCH   6  16
ATOM     16  C   UNL     1      45.145   6.084  11.602  0.00  0.00    +0.000 C 
ATOM     17  C   UNL     1      43.744   6.602  11.941  0.00  0.00    +0.000 C 
ATOM     18  C   UNL     1      44.498   5.810  12.958  0.00  0.00    +0.000 C 
BRANCH  16  19
ATOM     19  C   UNL     1      45.247   4.912  10.641  0.00  0.00    +0.000 A 
ATOM     20  C   UNL     1      44.863   3.621  11.035  0.00  0.00    +0.000 A 
ATOM     21  C   UNL     1      44.937   2.541  10.155  0.00  0.00    +0.000 A 
ATOM     22  C   UNL     1      45.341   2.738   8.837  0.00  0.00    +0.000 A 
ATOM     23  C   UNL     1      45.677   4.021   8.414  0.00  0.00    +0.000 A 
ATOM     24  C   UNL     1      45.681   5.083   9.319  0.00  0.00    +0.000 A 
BRANCH  22  25
ATOM     25  O   UNL     1      45.395   1.611   8.063  0.00  0.00    +0.000 OA
ATOM     26  C   UNL     1      46.700   1.165   7.717  0.00  0.00    +0.000 C 
ENDBRANCH  22  25
ENDBRANCH  16  19
ENDBRANCH   6  16
TORSDOF 5
ENDMDL
MODEL 5
REMARK VINA RESULT:    -6.057      4.014      5.670
REMARK INTER + INTRA:          -7.520
REMARK INTER:                  -7.002
REMARK INTRA:                  -0.519
REMARK UNBOUND:                 0.307
REMARK  Name = 
REMARK  7 active torsions:
REMARK  status: ('A' for Active; 'I' for Inactive)
REMARK    1  A    between atoms: C_1  and  C_2
REMARK    2  A    between atoms: C_3  and  C_4
REMARK    3  A    between atoms: C_6  and  C_7
REMARK    4  A    between atoms: N_13  and  C_14
REMARK    5  A    between atoms: C_14  and  C_15
REMARK    6  A    between atoms: C_18  and  O_19
REMARK    7  A    between atoms: O_19  and  C_20
REMARK                            x       y       z     vdW  Elec       q    Type
REMARK                         _______ _______ _______ _____ _____    ______ ____
ROOT
ATOM      1  C   UNL     1      50.203   6.169  17.076  0.00  0.00    +0.000 A 
ATOM      2  C   UNL     1      49.601   7.106  17.876  0.00  0.00    +0.000 A 
ATOM      3  C   UNL     1      48.810   8.039  17.225  0.00  0.00    +0.000 A 
ATOM      4  N   UNL     1      48.663   8.009  15.881  0.00  0.00    +0.000 NA
ATOM      5  C   UNL     1      49.279   7.075  15.175  0.00  0.00    +0.000 A 
ATOM      6  N   UNL     1      49.214   7.138  13.778  0.00  0.00    +0.000 N 
ATOM      7  N   UNL     1      50.067   6.119  15.735  0.00  0.00    +0.000 NA
ATOM      8  H   UNL     1      49.665   6.316  13.406  0.00  0.00    +0.000 HD
ENDROOT
BRANCH   3   9
ATOM      9  C   UNL     1      48.090   9.135  17.975  0.00  0.00    +0.000 C 
ATOM     10  F   UNL     1      47.629  10.134  17.168  0.00  0.00    +0.000 F 
ATOM     11  F   UNL     1      46.998   8.682  18.657  0.00  0.00    +0.000 F 
ATOM     12  F   UNL     1      48.880   9.750  18.904  0.00  0.00    +0.000 F 
ENDBRANCH   3   9
BRANCH   1  15
ATOM     13  C   UNL     1      52.731   3.221  18.838  0.00  0.00    +0.000 C 
ATOM     14  C   UNL     1      51.838   4.279  18.210  0.00  0.00    +0.000 C 
ATOM     15  C   UNL     1      51.072   5.185  17.670  0.00  0.00    +0.000 C 
ENDBRANCH   1  15
BRANCH   6  16
ATOM     16  C   UNL     1      48.015   7.646  13.058  0.00  0.00    +0.000 C 
ATOM     17  C   UNL     1      48.302   8.396  11.753  0.00  0.00    +0.000 C 
ATOM     18  C   UNL     1      47.659   9.122  12.889  0.00  0.00    +0.000 C 
BRANCH  16  19
ATOM     19  C   UNL     1      46.862   6.658  13.061  0.00  0.00    +0.000 A 
ATOM     20  C   UNL     1      47.080   5.296  13.315  0.00  0.00    +0.000 A 
ATOM     21  C   UNL     1      46.025   4.383  13.336  0.00  0.00    +0.000 A 
ATOM     22  C   UNL     1      44.715   4.823  13.161  0.00  0.00    +0.000 A 
ATOM     23  C   UNL     1      44.475   6.179  12.958  0.00  0.00    +0.000 A 
ATOM     24  C   UNL     1      45.539   7.075  12.856  0.00  0.00    +0.000 A 
BRANCH  22  25
ATOM     25  O   UNL     1      43.758   3.845  13.182  0.00  0.00    +0.000 OA
ATOM     26  C   UNL     1      43.838   2.885  12.136  0.00  0.00    +0.000 C 
ENDBRANCH  22  25
ENDBRANCH  16  19
ENDBRANCH   6  16
TORSDOF 5
ENDMDL
MODEL 6
REMARK VINA RESULT:    -5.937      4.076      6.193
REMARK INTER + INTRA:          -7.366
REMARK INTER:                  -6.795
REMARK INTRA:                  -0.571
REMARK UNBOUND:                 0.307
REMARK  Name = 
REMARK  7 active torsions:
REMARK  status: ('A' for Active; 'I' for Inactive)
REMARK    1  A    between atoms: C_1  and  C_2
REMARK    2  A    between atoms: C_3  and  C_4
REMARK    3  A    between atoms: C_6  and  C_7
REMARK    4  A    between atoms: N_13  and  C_14
REMARK    5  A    between atoms: C_14  and  C_15
REMARK    6  A    between atoms: C_18  and  O_19
REMARK    7  A    between atoms: O_19  and  C_20
REMARK                            x       y       z     vdW  Elec       q    Type
REMARK                         _______ _______ _______ _____ _____    ______ ____
ROOT
ATOM      1  C   UNL     1      47.530   5.386  14.448  0.00  0.00    +0.000 A 
ATOM      2  C   UNL     1      46.642   5.194  13.420  0.00  0.00    +0.000 A 
ATOM      3  C   UNL     1      46.684   6.133  12.402  0.00  0.00    +0.000 A 
ATOM      4  N   UNL     1      47.551   7.170  12.447  0.00  0.00    +0.000 NA
ATOM      5  C   UNL     1      48.375   7.291  13.476  0.00  0.00    +0.000 A 
ATOM      6  N   UNL     1      49.175   8.436  13.563  0.00  0.00    +0.000 N 
ATOM      7  N   UNL     1      48.405   6.411  14.511  0.00  0.00    +0.000 NA
ATOM      8  H   UNL     1      49.791   8.329  14.355  0.00  0.00    +0.000 HD
ENDROOT
BRANCH   3   9
ATOM      9  C   UNL     1      45.762   6.055  11.208  0.00  0.00    +0.000 C 
ATOM     10  F   UNL     1      46.420   5.900  10.022  0.00  0.00    +0.000 F 
ATOM     11  F   UNL     1      44.887   5.010  11.280  0.00  0.00    +0.000 F 
ATOM     12  F   UNL     1      44.994   7.173  11.057  0.00  0.00    +0.000 F 
ENDBRANCH   3   9
BRANCH   1  15
ATOM     13  C   UNL     1      47.469   2.712  17.769  0.00  0.00    +0.000 C 
ATOM     14  C   UNL     1      47.500   3.661  16.582  0.00  0.00    +0.000 C 
ATOM     15  C   UNL     1      47.526   4.475  15.564  0.00  0.00    +0.000 C 
ENDBRANCH   1  15
BRANCH   6  16
ATOM     16  C   UNL     1      49.719   9.123  12.361  0.00  0.00    +0.000 C 
ATOM     17  C   UNL     1      49.692  10.654  12.410  0.00  0.00    +0.000 C 
ATOM     18  C   UNL     1      48.890   9.941  11.373  0.00  0.00    +0.000 C 
BRANCH  16  19
ATOM     19  C   UNL     1      50.974   8.460  11.820  0.00  0.00    +0.000 A 
ATOM     20  C   UNL     1      50.938   7.704  10.639  0.00  0.00    +0.000 A 
ATOM     21  C   UNL     1      52.089   7.105  10.125  0.00  0.00    +0.000 A 
ATOM     22  C   UNL     1      53.318   7.298  10.751  0.00  0.00    +0.000 A 
ATOM     23  C   UNL     1      53.381   8.086  11.897  0.00  0.00    +0.000 A 
ATOM     24  C   UNL     1      52.216   8.615  12.452  0.00  0.00    +0.000 A 
BRANCH  22  25
ATOM     25  O   UNL     1      54.379   6.652  10.177  0.00  0.00    +0.000 OA
ATOM     26  C   UNL     1      54.051   5.528   9.371  0.00  0.00    +0.000 C 
ENDBRANCH  22  25
ENDBRANCH  16  19
ENDBRANCH   6  16
TORSDOF 5
ENDMDL
MODEL 7
REMARK VINA RESULT:    -5.856      2.523      4.576
REMARK INTER + INTRA:          -7.261
REMARK INTER:                  -7.255
REMARK INTRA:                  -0.006
REMARK UNBOUND:                 0.307
REMARK  Name = 
REMARK  7 active torsions:
REMARK  status: ('A' for Active; 'I' for Inactive)
REMARK    1  A    between atoms: C_1  and  C_2
REMARK    2  A    between atoms: C_3  and  C_4
REMARK    3  A    between atoms: C_6  and  C_7
REMARK    4  A    between atoms: N_13  and  C_14
REMARK    5  A    between atoms: C_14  and  C_15
REMARK    6  A    between atoms: C_18  and  O_19
REMARK    7  A    between atoms: O_19  and  C_20
REMARK                            x       y       z     vdW  Elec       q    Type
REMARK                         _______ _______ _______ _____ _____    ______ ____
ROOT
ATOM      1  C   UNL     1      44.151   7.921  11.388  0.00  0.00    +0.000 A 
ATOM      2  C   UNL     1      45.304   7.980  12.129  0.00  0.00    +0.000 A 
ATOM      3  C   UNL     1      45.840   6.761  12.512  0.00  0.00    +0.000 A 
ATOM      4  N   UNL     1      45.241   5.599  12.169  0.00  0.00    +0.000 NA
ATOM      5  C   UNL     1      44.127   5.622  11.454  0.00  0.00    +0.000 A 
ATOM      6  N   UNL     1      43.457   4.416  11.217  0.00  0.00    +0.000 N 
ATOM      7  N   UNL     1      43.539   6.773  11.032  0.00  0.00    +0.000 NA
ATOM      8  H   UNL     1      42.682   4.604  10.599  0.00  0.00    +0.000 HD
ENDROOT
BRANCH   3   9
ATOM      9  C   UNL     1      47.103   6.670  13.336  0.00  0.00    +0.000 C 
ATOM     10  F   UNL     1      48.219   6.404  12.596  0.00  0.00    +0.000 F 
ATOM     11  F   UNL     1      47.380   7.823  14.012  0.00  0.00    +0.000 F 
ATOM     12  F   UNL     1      47.049   5.688  14.283  0.00  0.00    +0.000 F 
ENDBRANCH   3   9
BRANCH   1  15
ATOM     13  C   UNL     1      42.210  11.512  10.156  0.00  0.00    +0.000 C 
ATOM     14  C   UNL     1      42.910  10.238  10.600  0.00  0.00    +0.000 C 
ATOM     15  C   UNL     1      43.509   9.144  10.981  0.00  0.00    +0.000 C 
ENDBRANCH   1  15
BRANCH   6  16
ATOM     16  C   UNL     1      44.176   3.126  11.042  0.00  0.00    +0.000 C 
ATOM     17  C   UNL     1      43.419   1.882  11.519  0.00  0.00    +0.000 C 
ATOM     18  C   UNL     1      44.703   2.257  12.182  0.00  0.00    +0.000 C 
BRANCH  16  19
ATOM     19  C   UNL     1      44.909   3.035   9.715  0.00  0.00    +0.000 A 
ATOM     20  C   UNL     1      45.407   1.810   9.248  0.00  0.00    +0.000 A 
ATOM     21  C   UNL     1      46.067   1.713   8.023  0.00  0.00    +0.000 A 
ATOM     22  C   UNL     1      46.193   2.833   7.205  0.00  0.00    +0.000 A 
ATOM     23  C   UNL     1      45.661   4.048   7.629  0.00  0.00    +0.000 A 
ATOM     24  C   UNL     1      45.075   4.157   8.890  0.00  0.00    +0.000 A 
BRANCH  22  25
ATOM     25  O   UNL     1      46.873   2.634   6.034  0.00  0.00    +0.000 OA
ATOM     26  C   UNL     1      48.065   1.867   6.138  0.00  0.00    +0.000 C 
ENDBRANCH  22  25
ENDBRANCH  16  19
ENDBRANCH   6  16
TORSDOF 5
ENDMDL
MODEL 8
REMARK VINA RESULT:    -5.844      4.092      8.150
REMARK INTER + INTRA:          -7.245
REMARK INTER:                  -6.567
REMARK INTRA:                  -0.679
REMARK UNBOUND:                 0.307
REMARK  Name = 
REMARK  7 active torsions:
REMARK  status: ('A' for Active; 'I' for Inactive)
REMARK    1  A    between atoms: C_1  and  C_2
REMARK    2  A    between atoms: C_3  and  C_4
REMARK    3  A    between atoms: C_6  and  C_7
REMARK    4  A    between atoms: N_13  and  C_14
REMARK    5  A    between atoms: C_14  and  C_15
REMARK    6  A    between atoms: C_18  and  O_19
REMARK    7  A    between atoms: O_19  and  C_20
REMARK                            x       y       z     vdW  Elec       q    Type
REMARK                         _______ _______ _______ _____ _____    ______ ____
ROOT
ATOM      1  C   UNL     1      48.220   6.512  13.695  0.00  0.00    +0.000 A 
ATOM      2  C   UNL     1      49.327   7.296  13.491  0.00  0.00    +0.000 A 
ATOM      3  C   UNL     1      50.112   7.536  14.607  0.00  0.00    +0.000 A 
ATOM      4  N   UNL     1      49.781   7.024  15.814  0.00  0.00    +0.000 NA
ATOM      5  C   UNL     1      48.694   6.279  15.933  0.00  0.00    +0.000 A 
ATOM      6  N   UNL     1      48.303   5.864  17.211  0.00  0.00    +0.000 N 
ATOM      7  N   UNL     1      47.874   5.989  14.889  0.00  0.00    +0.000 NA
ATOM      8  H   UNL     1      47.510   5.247  17.112  0.00  0.00    +0.000 HD
ENDROOT
BRANCH   3   9
ATOM      9  C   UNL     1      51.359   8.387  14.536  0.00  0.00    +0.000 C 
ATOM     10  F   UNL     1      51.460   9.290  15.555  0.00  0.00    +0.000 F 
ATOM     11  F   UNL     1      52.507   7.652  14.583  0.00  0.00    +0.000 F 
ATOM     12  F   UNL     1      51.435   9.122  13.387  0.00  0.00    +0.000 F 
ENDBRANCH   3   9
BRANCH   1  15
ATOM     13  C   UNL     1      45.586   5.776  10.423  0.00  0.00    +0.000 C 
ATOM     14  C   UNL     1      46.525   6.028  11.592  0.00  0.00    +0.000 C 
ATOM     15  C   UNL     1      47.331   6.245  12.594  0.00  0.00    +0.000 C 
ENDBRANCH   1  15
BRANCH   6  16
ATOM     16  C   UNL     1      49.286   5.548  18.283  0.00  0.00    +0.000 C 
ATOM     17  C   UNL     1      48.800   5.799  19.714  0.00  0.00    +0.000 C 
ATOM     18  C   UNL     1      49.956   6.582  19.185  0.00  0.00    +0.000 C 
BRANCH  16  19
ATOM     19  C   UNL     1      50.056   4.266  18.018  0.00  0.00    +0.000 A 
ATOM     20  C   UNL     1      49.438   3.168  17.401  0.00  0.00    +0.000 A 
ATOM     21  C   UNL     1      50.142   1.992  17.138  0.00  0.00    +0.000 A 
ATOM     22  C   UNL     1      51.501   1.908  17.433  0.00  0.00    +0.000 A 
ATOM     23  C   UNL     1      52.142   3.007  17.999  0.00  0.00    +0.000 A 
ATOM     24  C   UNL     1      51.417   4.150  18.336  0.00  0.00    +0.000 A 
BRANCH  22  25
ATOM     25  O   UNL     1      52.090   0.706  17.153  0.00  0.00    +0.000 OA
ATOM     26  C   UNL     1      53.499   0.654  17.338  0.00  0.00    +0.000 C 
ENDBRANCH  22  25
ENDBRANCH  16  19
ENDBRANCH   6  16
TORSDOF 5
ENDMDL
MODEL 9
REMARK VINA RESULT:    -5.795      3.904      7.893
REMARK INTER + INTRA:          -7.181
REMARK INTER:                  -6.412
REMARK INTRA:                  -0.770
REMARK UNBOUND:                 0.307
REMARK  Name = 
REMARK  7 active torsions:
REMARK  status: ('A' for Active; 'I' for Inactive)
REMARK    1  A    between atoms: C_1  and  C_2
REMARK    2  A    between atoms: C_3  and  C_4
REMARK    3  A    between atoms: C_6  and  C_7
REMARK    4  A    between atoms: N_13  and  C_14
REMARK    5  A    between atoms: C_14  and  C_15
REMARK    6  A    between atoms: C_18  and  O_19
REMARK    7  A    between atoms: O_19  and  C_20
REMARK                            x       y       z     vdW  Elec       q    Type
REMARK                         _______ _______ _______ _____ _____    ______ ____
ROOT
ATOM      1  C   UNL     1      47.086   6.903  12.059  0.00  0.00    +0.000 A 
ATOM      2  C   UNL     1      48.262   7.163  11.402  0.00  0.00    +0.000 A 
ATOM      3  C   UNL     1      49.189   7.922  12.100  0.00  0.00    +0.000 A 
ATOM      4  N   UNL     1      48.922   8.372  13.347  0.00  0.00    +0.000 NA
ATOM      5  C   UNL     1      47.762   8.082  13.914  0.00  0.00    +0.000 A 
ATOM      6  N   UNL     1      47.457   8.660  15.151  0.00  0.00    +0.000 N 
ATOM      7  N   UNL     1      46.802   7.338  13.303  0.00  0.00    +0.000 NA
ATOM      8  H   UNL     1      46.581   8.275  15.471  0.00  0.00    +0.000 HD
ENDROOT
BRANCH   3   9
ATOM      9  C   UNL     1      50.525   8.294  11.502  0.00  0.00    +0.000 C 
ATOM     10  F   UNL     1      51.536   8.344  12.419  0.00  0.00    +0.000 F 
ATOM     11  F   UNL     1      50.942   7.415  10.545  0.00  0.00    +0.000 F 
ATOM     12  F   UNL     1      50.516   9.520  10.902  0.00  0.00    +0.000 F 
ENDBRANCH   3   9
BRANCH   1  15
ATOM     13  C   UNL     1      44.014   4.663  10.128  0.00  0.00    +0.000 C 
ATOM     14  C   UNL     1      45.113   5.464  10.807  0.00  0.00    +0.000 C 
ATOM     15  C   UNL     1      46.055   6.152  11.389  0.00  0.00    +0.000 C 
ENDBRANCH   1  15
BRANCH   6  16
ATOM     16  C   UNL     1      48.497   8.940  16.178  0.00  0.00    +0.000 C 
ATOM     17  C   UNL     1      48.077   9.905  17.292  0.00  0.00    +0.000 C 
ATOM     18  C   UNL     1      49.190  10.287  16.374  0.00  0.00    +0.000 C 
BRANCH  16  19
ATOM     19  C   UNL     1      49.278   7.701  16.580  0.00  0.00    +0.000 A 
ATOM     20  C   UNL     1      48.629   6.587  17.131  0.00  0.00    +0.000 A 
ATOM     21  C   UNL     1      49.335   5.438  17.487  0.00  0.00    +0.000 A 
ATOM     22  C   UNL     1      50.704   5.354  17.246  0.00  0.00    +0.000 A 
ATOM     23  C   UNL     1      51.357   6.432  16.653  0.00  0.00    +0.000 A 
ATOM     24  C   UNL     1      50.662   7.609  16.374  0.00  0.00    +0.000 A 
BRANCH  22  25
ATOM     25  O   UNL     1      51.303   4.192  17.649  0.00  0.00    +0.000 OA
ATOM     26  C   UNL     1      50.521   3.014  17.504  0.00  0.00    +0.000 C 
ENDBRANCH  22  25
ENDBRANCH  16  19
ENDBRANCH   6  16
TORSDOF 5
ENDMDL
