MODEL 1
REMARK VINA RESULT:    -8.548      0.000      0.000
REMARK INTER + INTRA:         -11.661
REMARK INTER:                 -11.296
REMARK INTRA:                  -0.365
REMARK UNBOUND:                -0.365
REMARK  Name = 
REMARK  6 active torsions:
REMARK  status: ('A' for Active; 'I' for Inactive)
REMARK    1  A    between atoms: C_2  and  O_3
REMARK    2  A    between atoms: C_2  and  C_4
REMARK    3  A    between atoms: C_8  and  O_9
REMARK    4  A    between atoms: O_9  and  C_10
REMARK    5  A    between atoms: C_10  and  C_11
REMARK    6  A    between atoms: C_15  and  C_16
REMARK                            x       y       z     vdW  Elec       q    Type
REMARK                         _______ _______ _______ _____ _____    ______ ____
ROOT
ATOM      1  C   UNL     1      43.482   3.867  11.084  0.00  0.00    +0.000 C 
ENDROOT
BRANCH   1   2
ATOM      2  C   UNL     1      44.691   4.217  11.913  0.00  0.00    +0.000 A 
ATOM      3  C   UNL     1      45.246   3.279  12.773  0.00  0.00    +0.000 A 
ATOM      4  N   UNL     1      46.335   3.537  13.531  0.00  0.00    +0.000 NA
ATOM      5  C   UNL     1      46.844   4.787  13.401  0.00  0.00    +0.000 A 
ATOM      6  C   UNL     1      46.311   5.754  12.548  0.00  0.00    +0.000 A 
ATOM      7  N   UNL     1      45.212   5.470  11.798  0.00  0.00    +0.000 NA
BRANCH   6   8
ATOM      8  C   UNL     1      46.876   7.106  12.398  0.00  0.00    +0.000 A 
ATOM      9  C   UNL     1      48.163   7.321  11.883  0.00  0.00    +0.000 A 
ATOM     10  C   UNL     1      48.639   8.618  11.763  0.00  0.00    +0.000 A 
ATOM     11  N   UNL     1      47.937   9.712  12.116  0.00  0.00    +0.000 NA
ATOM     12  C   UNL     1      46.697   9.499  12.600  0.00  0.00    +0.000 A 
ATOM     13  C   UNL     1      46.134   8.241  12.754  0.00  0.00    +0.000 A 
ENDBRANCH   6   8
ENDBRANCH   1   2
BRANCH   1  14
ATOM     14  O   UNL     1      43.764   2.687  10.329  0.00  0.00    +0.000 OA
BRANCH  14  19
ATOM     15  C   UNL     1      46.371   2.084   7.766  0.00  0.00    +0.000 A 
ATOM     16  C   UNL     1      46.316   3.338   7.178  0.00  0.00    +0.000 A 
ATOM     17  N   UNL     1      45.520   4.334   7.624  0.00  0.00    +0.000 NA
ATOM     18  C   UNL     1      44.715   4.042   8.676  0.00  0.00    +0.000 A 
ATOM     19  C   UNL     1      44.663   2.803   9.310  0.00  0.00    +0.000 A 
ATOM     20  C   UNL     1      45.516   1.808   8.840  0.00  0.00    +0.000 A 
BRANCH  15  22
ATOM     21  O   UNL     1      48.114   1.231   6.423  0.00  0.00    +0.000 OA
ATOM     22  C   UNL     1      47.251   1.015   7.256  0.00  0.00    +0.000 C 
BRANCH  22  23
ATOM     23  O   UNL     1      46.989  -0.212   7.749  0.00  0.00    +0.000 OA
ATOM     24  H   UNL     1      47.161  -0.350   8.699  0.00  0.00    +0.000 HD
ENDBRANCH  22  23
ENDBRANCH  15  22
ENDBRANCH  14  19
ENDBRANCH   1  14
TORSDOF 6
ENDMDL
MODEL 2
REMARK VINA RESULT:    -7.847      2.911      6.771
REMARK INTER + INTRA:         -10.735
REMARK INTER:                 -10.225
REMARK INTRA:                  -0.509
REMARK UNBOUND:                -0.365
REMARK  Name = 
REMARK  6 active torsions:
REMARK  status: ('A' for Active; 'I' for Inactive)
REMARK    1  A    between atoms: C_2  and  O_3
REMARK    2  A    between atoms: C_2  and  C_4
REMARK    3  A    between atoms: C_8  and  O_9
REMARK    4  A    between atoms: O_9  and  C_10
REMARK    5  A    between atoms: C_10  and  C_11
REMARK    6  A    between atoms: C_15  and  C_16
REMARK                            x       y       z     vdW  Elec       q    Type
REMARK                         _______ _______ _______ _____ _____    ______ ____
ROOT
ATOM      1  C   UNL     1      44.728   6.331  11.158  0.00  0.00    +0.000 C 
ENDROOT
BRANCH   1   2
ATOM      2  C   UNL     1      44.523   4.904  10.722  0.00  0.00    +0.000 A 
ATOM      3  C   UNL     1      43.585   4.103  11.360  0.00  0.00    +0.000 A 
ATOM      4  N   UNL     1      43.355   2.820  11.003  0.00  0.00    +0.000 NA
ATOM      5  C   UNL     1      44.116   2.363   9.979  0.00  0.00    +0.000 A 
ATOM      6  C   UNL     1      45.067   3.138   9.316  0.00  0.00    +0.000 A 
ATOM      7  N   UNL     1      45.282   4.426   9.696  0.00  0.00    +0.000 NA
BRANCH   6   8
ATOM      8  C   UNL     1      45.880   2.642   8.192  0.00  0.00    +0.000 A 
ATOM      9  C   UNL     1      46.254   3.467   7.122  0.00  0.00    +0.000 A 
ATOM     10  C   UNL     1      47.023   2.943   6.095  0.00  0.00    +0.000 A 
ATOM     11  N   UNL     1      47.445   1.665   6.049  0.00  0.00    +0.000 NA
ATOM     12  C   UNL     1      47.092   0.879   7.085  0.00  0.00    +0.000 A 
ATOM     13  C   UNL     1      46.328   1.313   8.159  0.00  0.00    +0.000 A 
ENDBRANCH   6   8
ENDBRANCH   1   2
BRANCH   1  14
ATOM     14  O   UNL     1      46.131   6.606  11.198  0.00  0.00    +0.000 OA
BRANCH  14  19
ATOM     15  C   UNL     1      47.382   5.353  14.454  0.00  0.00    +0.000 A 
ATOM     16  C   UNL     1      48.216   6.426  14.732  0.00  0.00    +0.000 A 
ATOM     17  N   UNL     1      48.321   7.512  13.937  0.00  0.00    +0.000 NA
ATOM     18  C   UNL     1      47.591   7.499  12.793  0.00  0.00    +0.000 A 
ATOM     19  C   UNL     1      46.758   6.455  12.401  0.00  0.00    +0.000 A 
ATOM     20  C   UNL     1      46.654   5.363  13.258  0.00  0.00    +0.000 A 
BRANCH  15  22
ATOM     21  O   UNL     1      46.972   4.279  16.515  0.00  0.00    +0.000 OA
ATOM     22  C   UNL     1      47.289   4.179  15.342  0.00  0.00    +0.000 C 
BRANCH  22  23
ATOM     23  O   UNL     1      47.626   3.009  14.764  0.00  0.00    +0.000 OA
ATOM     24  H   UNL     1      46.909   2.363  14.625  0.00  0.00    +0.000 HD
ENDBRANCH  22  23
ENDBRANCH  15  22
ENDBRANCH  14  19
ENDBRANCH   1  14
TORSDOF 6
ENDMDL
MODEL 3
REMARK VINA RESULT:    -7.689      3.291      7.110
REMARK INTER + INTRA:         -10.525
REMARK INTER:                  -9.967
REMARK INTRA:                  -0.559
REMARK UNBOUND:                -0.365
REMARK  Name = 
REMARK  6 active torsions:
REMARK  status: ('A' for Active; 'I' for Inactive)
REMARK    1  A    between atoms: C_2  and  O_3
REMARK    2  A    between atoms: C_2  and  C_4
REMARK    3  A    between atoms: C_8  and  O_9
REMARK    4  A    between atoms: O_9  and  C_10
REMARK    5  A    between atoms: C_10  and  C_11
REMARK    6  A    between atoms: C_15  and  C_16
REMARK                            x       y       z     vdW  Elec       q    Type
REMARK                         _______ _______ _______ _____ _____    ______ ____
ROOT
ATOM      1  C   UNL     1      45.130   5.496  12.762  0.00  0.00    +0.000 C 
ENDROOT
BRANCH   1   2
ATOM      2  C   UNL     1      44.661   4.339  11.918  0.00  0.00    +0.000 A 
ATOM      3  C   UNL     1      43.578   3.570  12.324  0.00  0.00    +0.000 A 
ATOM      4  N   UNL     1      43.111   2.527  11.602  0.00  0.00    +0.000 NA
ATOM      5  C   UNL     1      43.784   2.276  10.452  0.00  0.00    +0.000 A 
ATOM      6  C   UNL     1      44.876   3.026  10.016  0.00  0.00    +0.000 A 
ATOM      7  N   UNL     1      45.328   4.070  10.762  0.00  0.00    +0.000 NA
BRANCH   6   8
ATOM      8  C   UNL     1      45.595   2.760   8.758  0.00  0.00    +0.000 A 
ATOM      9  C   UNL     1      46.059   1.480   8.422  0.00  0.00    +0.000 A 
ATOM     10  C   UNL     1      46.727   1.292   7.221  0.00  0.00    +0.000 A 
ATOM     11  N   UNL     1      46.969   2.276   6.334  0.00  0.00    +0.000 NA
ATOM     12  C   UNL     1      46.510   3.501   6.657  0.00  0.00    +0.000 A 
ATOM     13  C   UNL     1      45.830   3.786   7.831  0.00  0.00    +0.000 A 
ENDBRANCH   6   8
ENDBRANCH   1   2
BRANCH   1  14
ATOM     14  O   UNL     1      46.559   5.521  12.760  0.00  0.00    +0.000 OA
BRANCH  14  19
ATOM     15  C   UNL     1      47.774   4.414  16.081  0.00  0.00    +0.000 A 
ATOM     16  C   UNL     1      48.642   5.473  16.299  0.00  0.00    +0.000 A 
ATOM     17  N   UNL     1      48.781   6.509  15.444  0.00  0.00    +0.000 NA
ATOM     18  C   UNL     1      48.050   6.455  14.303  0.00  0.00    +0.000 A 
ATOM     19  C   UNL     1      47.183   5.418  13.969  0.00  0.00    +0.000 A 
ATOM     20  C   UNL     1      47.045   4.380  14.886  0.00  0.00    +0.000 A 
BRANCH  15  22
ATOM     21  O   UNL     1      48.588   2.580  17.325  0.00  0.00    +0.000 OA
ATOM     22  C   UNL     1      47.644   3.295  17.035  0.00  0.00    +0.000 C 
BRANCH  22  23
ATOM     23  O   UNL     1      46.398   3.107  17.513  0.00  0.00    +0.000 OA
ATOM     24  H   UNL     1      45.940   2.291  17.240  0.00  0.00    +0.000 HD
ENDBRANCH  22  23
ENDBRANCH  15  22
ENDBRANCH  14  19
ENDBRANCH   1  14
TORSDOF 6
ENDMDL
MODEL 4
REMARK VINA RESULT:    -7.541      3.181      6.720
REMARK INTER + INTRA:         -10.331
REMARK INTER:                  -9.638
REMARK INTRA:                  -0.693
REMARK UNBOUND:                -0.365
REMARK  Name = 
REMARK  6 active torsions:
REMARK  status: ('A' for Active; 'I' for Inactive)
REMARK    1  A    between atoms: C_2  and  O_3
REMARK    2  A    between atoms: C_2  and  C_4
REMARK    3  A    between atoms: C_8  and  O_9
REMARK    4  A    between atoms: O_9  and  C_10
REMARK    5  A    between atoms: C_10  and  C_11
REMARK    6  A    between atoms: C_15  and  C_16
REMARK                            x       y       z     vdW  Elec       q    Type
REMARK                         _______ _______ _______ _____ _____    ______ ____
ROOT
ATOM      1  C   UNL     1      44.196   6.514  11.357  0.00  0.00    +0.000 C 
ENDROOT
BRANCH   1   2
ATOM      2  C   UNL     1      44.134   5.057  10.977  0.00  0.00    +0.000 A 
ATOM      3  C   UNL     1      43.318   4.183  11.682  0.00  0.00    +0.000 A 
ATOM      4  N   UNL     1      43.218   2.870  11.379  0.00  0.00    +0.000 NA
ATOM      5  C   UNL     1      43.984   2.460  10.337  0.00  0.00    +0.000 A 
ATOM      6  C   UNL     1      44.816   3.310   9.608  0.00  0.00    +0.000 A 
ATOM      7  N   UNL     1      44.900   4.628   9.936  0.00  0.00    +0.000 NA
BRANCH   6   8
ATOM      8  C   UNL     1      45.634   2.864   8.468  0.00  0.00    +0.000 A 
ATOM      9  C   UNL     1      46.006   3.734   7.433  0.00  0.00    +0.000 A 
ATOM     10  C   UNL     1      46.780   3.256   6.387  0.00  0.00    +0.000 A 
ATOM     11  N   UNL     1      47.209   1.983   6.290  0.00  0.00    +0.000 NA
ATOM     12  C   UNL     1      46.858   1.154   7.293  0.00  0.00    +0.000 A 
ATOM     13  C   UNL     1      46.089   1.541   8.381  0.00  0.00    +0.000 A 
ENDBRANCH   6   8
ENDBRANCH   1   2
BRANCH   1  14
ATOM     14  O   UNL     1      44.813   6.632  12.641  0.00  0.00    +0.000 OA
BRANCH  14  19
ATOM     15  C   UNL     1      48.282   7.862  12.214  0.00  0.00    +0.000 A 
ATOM     16  C   UNL     1      48.901   6.870  12.959  0.00  0.00    +0.000 A 
ATOM     17  N   UNL     1      48.236   5.836  13.517  0.00  0.00    +0.000 NA
ATOM     18  C   UNL     1      46.889   5.824  13.358  0.00  0.00    +0.000 A 
ATOM     19  C   UNL     1      46.168   6.793  12.665  0.00  0.00    +0.000 A 
ATOM     20  C   UNL     1      46.889   7.830  12.080  0.00  0.00    +0.000 A 
BRANCH  15  22
ATOM     21  O   UNL     1      48.510  10.050  11.357  0.00  0.00    +0.000 OA
ATOM     22  C   UNL     1      49.036   8.981  11.615  0.00  0.00    +0.000 C 
BRANCH  22  23
ATOM     23  O   UNL     1      50.326   8.705  11.339  0.00  0.00    +0.000 OA
ATOM     24  H   UNL     1      50.843   9.407  10.903  0.00  0.00    +0.000 HD
ENDBRANCH  22  23
ENDBRANCH  15  22
ENDBRANCH  14  19
ENDBRANCH   1  14
TORSDOF 6
ENDMDL
MODEL 5
REMARK VINA RESULT:    -7.512      3.014      6.816
REMARK INTER + INTRA:         -10.292
REMARK INTER:                  -9.904
REMARK INTRA:                  -0.388
REMARK UNBOUND:                -0.365
REMARK  Name = 
REMARK  6 active torsions:
REMARK  status: ('A' for Active; 'I' for Inactive)
REMARK    1  A    between atoms: C_2  and  O_3
REMARK    2  A    between atoms: C_2  and  C_4
REMARK    3  A    between atoms: C_8  and  O_9
REMARK    4  A    between atoms: O_9  and  C_10
REMARK    5  A    between atoms: C_10  and  C_11
REMARK    6  A    between atoms: C_15  and  C_16
REMARK                            x       y       z     vdW  Elec       q    Type
REMARK                         _______ _______ _______ _____ _____    ______ ____
ROOT
ATOM      1  C   UNL     1      44.235   2.895  12.573  0.00  0.00    +0.000 C 
ENDROOT
BRANCH   1   2
ATOM      2  C   UNL     1      44.288   3.386  11.149  0.00  0.00    +0.000 A 
ATOM      3  C   UNL     1      43.484   4.442  10.742  0.00  0.00    +0.000 A 
ATOM      4  N   UNL     1      43.497   4.927   9.480  0.00  0.00    +0.000 NA
ATOM      5  C   UNL     1      44.349   4.299   8.632  0.00  0.00    +0.000 A 
ATOM      6  C   UNL     1      45.169   3.236   9.007  0.00  0.00    +0.000 A 
ATOM      7  N   UNL     1      45.134   2.764  10.282  0.00  0.00    +0.000 NA
BRANCH   6   8
ATOM      8  C   UNL     1      46.104   2.567   8.086  0.00  0.00    +0.000 A 
ATOM      9  C   UNL     1      46.907   3.285   7.189  0.00  0.00    +0.000 A 
ATOM     10  C   UNL     1      47.771   2.599   6.348  0.00  0.00    +0.000 A 
ATOM     11  N   UNL     1      47.895   1.258   6.331  0.00  0.00    +0.000 NA
ATOM     12  C   UNL     1      47.129   0.574   7.203  0.00  0.00    +0.000 A 
ATOM     13  C   UNL     1      46.239   1.171   8.084  0.00  0.00    +0.000 A 
ENDBRANCH   6   8
ENDBRANCH   1   2
BRANCH   1  14
ATOM     14  O   UNL     1      44.267   4.022  13.452  0.00  0.00    +0.000 OA
BRANCH  14  19
ATOM     15  C   UNL     1      46.713   6.792  13.170  0.00  0.00    +0.000 A 
ATOM     16  C   UNL     1      47.825   6.069  13.572  0.00  0.00    +0.000 A 
ATOM     17  N   UNL     1      47.791   4.751  13.863  0.00  0.00    +0.000 NA
ATOM     18  C   UNL     1      46.579   4.145  13.789  0.00  0.00    +0.000 A 
ATOM     19  C   UNL     1      45.395   4.789  13.437  0.00  0.00    +0.000 A 
ATOM     20  C   UNL     1      45.473   6.142  13.118  0.00  0.00    +0.000 A 
BRANCH  15  22
ATOM     21  O   UNL     1      47.449   8.663  11.934  0.00  0.00    +0.000 OA
ATOM     22  C   UNL     1      46.781   8.233  12.859  0.00  0.00    +0.000 C 
BRANCH  22  23
ATOM     23  O   UNL     1      46.089   9.023  13.703  0.00  0.00    +0.000 OA
ATOM     24  H   UNL     1      45.416   8.590  14.260  0.00  0.00    +0.000 HD
ENDBRANCH  22  23
ENDBRANCH  15  22
ENDBRANCH  14  19
ENDBRANCH   1  14
TORSDOF 6
ENDMDL
MODEL 6
REMARK VINA RESULT:    -7.494      1.991      3.479
REMARK INTER + INTRA:         -10.268
REMARK INTER:                  -9.663
REMARK INTRA:                  -0.605
REMARK UNBOUND:                -0.365
REMARK  Name = 
REMARK  6 active torsions:
REMARK  status: ('A' for Active; 'I' for Inactive)
REMARK    1  A    between atoms: C_2  and  O_3
REMARK    2  A    between atoms: C_2  and  C_4
REMARK    3  A    between atoms: C_8  and  O_9
REMARK    4  A    between atoms: O_9  and  C_10
REMARK    5  A    between atoms: C_10  and  C_11
REMARK    6  A    between atoms: C_15  and  C_16
REMARK                            x       y       z     vdW  Elec       q    Type
REMARK                         _______ _______ _______ _____ _____    ______ ____
ROOT
ATOM      1  C   UNL     1      44.168   4.176  10.697  0.00  0.00    +0.000 C 
ENDROOT
BRANCH   1   2
ATOM      2  C   UNL     1      45.008   5.156  11.474  0.00  0.00    +0.000 A 
ATOM      3  C   UNL     1      45.071   6.488  11.086  0.00  0.00    +0.000 A 
ATOM      4  N   UNL     1      45.802   7.410  11.751  0.00  0.00    +0.000 NA
ATOM      5  C   UNL     1      46.482   6.938  12.825  0.00  0.00    +0.000 A 
ATOM      6  C   UNL     1      46.443   5.608  13.242  0.00  0.00    +0.000 A 
ATOM      7  N   UNL     1      45.702   4.699  12.553  0.00  0.00    +0.000 NA
BRANCH   6   8
ATOM      8  C   UNL     1      47.171   5.104  14.419  0.00  0.00    +0.000 A 
ATOM      9  C   UNL     1      47.976   5.936  15.210  0.00  0.00    +0.000 A 
ATOM     10  C   UNL     1      48.635   5.403  16.308  0.00  0.00    +0.000 A 
ATOM     11  N   UNL     1      48.556   4.110  16.676  0.00  0.00    +0.000 NA
ATOM     12  C   UNL     1      47.772   3.317  15.919  0.00  0.00    +0.000 A 
ATOM     13  C   UNL     1      47.073   3.759  14.805  0.00  0.00    +0.000 A 
ENDBRANCH   6   8
ENDBRANCH   1   2
BRANCH   1  14
ATOM     14  O   UNL     1      44.444   4.333   9.303  0.00  0.00    +0.000 OA
BRANCH  14  19
ATOM     15  C   UNL     1      46.623   2.294   7.106  0.00  0.00    +0.000 A 
ATOM     16  C   UNL     1      46.371   1.074   7.713  0.00  0.00    +0.000 A 
ATOM     17  N   UNL     1      45.504   0.917   8.737  0.00  0.00    +0.000 NA
ATOM     18  C   UNL     1      44.900   2.041   9.197  0.00  0.00    +0.000 A 
ATOM     19  C   UNL     1      45.115   3.318   8.686  0.00  0.00    +0.000 A 
ATOM     20  C   UNL     1      45.995   3.438   7.615  0.00  0.00    +0.000 A 
BRANCH  15  22
ATOM     21  O   UNL     1      48.500   1.656   5.825  0.00  0.00    +0.000 OA
ATOM     22  C   UNL     1      47.577   2.435   5.989  0.00  0.00    +0.000 C 
BRANCH  22  23
ATOM     23  O   UNL     1      47.367   3.511   5.204  0.00  0.00    +0.000 OA
ATOM     24  H   UNL     1      47.112   4.339   5.651  0.00  0.00    +0.000 HD
ENDBRANCH  22  23
ENDBRANCH  15  22
ENDBRANCH  14  19
ENDBRANCH   1  14
TORSDOF 6
ENDMDL
MODEL 7
REMARK VINA RESULT:    -7.292      3.014      6.724
REMARK INTER + INTRA:         -10.002
REMARK INTER:                  -9.352
REMARK INTRA:                  -0.650
REMARK UNBOUND:                -0.365
REMARK  Name = 
REMARK  6 active torsions:
REMARK  status: ('A' for Active; 'I' for Inactive)
REMARK    1  A    between atoms: C_2  and  O_3
REMARK    2  A    between atoms: C_2  and  C_4
REMARK    3  A    between atoms: C_8  and  O_9
REMARK    4  A    between atoms: O_9  and  C_10
REMARK    5  A    between atoms: C_10  and  C_11
REMARK    6  A    between atoms: C_15  and  C_16
REMARK                            x       y       z     vdW  Elec       q    Type
REMARK                         _______ _______ _______ _____ _____    ______ ____
ROOT
ATOM      1  C   UNL     1      43.785   6.363  11.486  0.00  0.00    +0.000 C 
ENDROOT
BRANCH   1   2
ATOM      2  C   UNL     1      43.866   4.911  11.093  0.00  0.00    +0.000 A 
ATOM      3  C   UNL     1      43.134   3.956  11.786  0.00  0.00    +0.000 A 
ATOM      4  N   UNL     1      43.163   2.642  11.470  0.00  0.00    +0.000 NA
ATOM      5  C   UNL     1      43.970   2.318  10.430  0.00  0.00    +0.000 A 
ATOM      6  C   UNL     1      44.720   3.250   9.714  0.00  0.00    +0.000 A 
ATOM      7  N   UNL     1      44.676   4.567  10.053  0.00  0.00    +0.000 NA
BRANCH   6   8
ATOM      8  C   UNL     1      45.583   2.896   8.574  0.00  0.00    +0.000 A 
ATOM      9  C   UNL     1      45.978   3.842   7.616  0.00  0.00    +0.000 A 
ATOM     10  C   UNL     1      46.794   3.447   6.567  0.00  0.00    +0.000 A 
ATOM     11  N   UNL     1      47.245   2.190   6.397  0.00  0.00    +0.000 NA
ATOM     12  C   UNL     1      46.872   1.288   7.326  0.00  0.00    +0.000 A 
ATOM     13  C   UNL     1      46.061   1.588   8.411  0.00  0.00    +0.000 A 
ENDBRANCH   6   8
ENDBRANCH   1   2
BRANCH   1  14
ATOM     14  O   UNL     1      44.927   7.048  10.964  0.00  0.00    +0.000 OA
BRANCH  14  19
ATOM     15  C   UNL     1      47.639   7.409  13.462  0.00  0.00    +0.000 A 
ATOM     16  C   UNL     1      47.582   8.791  13.568  0.00  0.00    +0.000 A 
ATOM     17  N   UNL     1      46.680   9.550  12.909  0.00  0.00    +0.000 NA
ATOM     18  C   UNL     1      45.831   8.897  12.076  0.00  0.00    +0.000 A 
ATOM     19  C   UNL     1      45.833   7.520  11.867  0.00  0.00    +0.000 A 
ATOM     20  C   UNL     1      46.759   6.767  12.583  0.00  0.00    +0.000 A 
BRANCH  15  22
ATOM     21  O   UNL     1      48.313   5.718  14.964  0.00  0.00    +0.000 OA
ATOM     22  C   UNL     1      48.637   6.606  14.195  0.00  0.00    +0.000 C 
BRANCH  22  23
ATOM     23  O   UNL     1      49.918   6.967  13.978  0.00  0.00    +0.000 OA
ATOM     24  H   UNL     1      50.585   6.256  13.998  0.00  0.00    +0.000 HD
ENDBRANCH  22  23
ENDBRANCH  15  22
ENDBRANCH  14  19
ENDBRANCH   1  14
TORSDOF 6
ENDMDL
MODEL 8
REMARK VINA RESULT:    -7.131      3.562      7.444
REMARK INTER + INTRA:          -9.788
REMARK INTER:                  -9.286
REMARK INTRA:                  -0.502
REMARK UNBOUND:                -0.365
REMARK  Name = 
REMARK  6 active torsions:
REMARK  status: ('A' for Active; 'I' for Inactive)
REMARK    1  A    between atoms: C_2  and  O_3
REMARK    2  A    between atoms: C_2  and  C_4
REMARK    3  A    between atoms: C_8  and  O_9
REMARK    4  A    between atoms: O_9  and  C_10
REMARK    5  A    between atoms: C_10  and  C_11
REMARK    6  A    between atoms: C_15  and  C_16
REMARK                            x       y       z     vdW  Elec       q    Type
REMARK                         _______ _______ _______ _____ _____    ______ ____
ROOT
ATOM      1  C   UNL     1      45.176   6.578  11.282  0.00  0.00    +0.000 C 
ENDROOT
BRANCH   1   2
ATOM      2  C   UNL     1      44.772   5.196  10.839  0.00  0.00    +0.000 A 
ATOM      3  C   UNL     1      43.714   4.543  11.457  0.00  0.00    +0.000 A 
ATOM      4  N   UNL     1      43.305   3.307  11.094  0.00  0.00    +0.000 NA
ATOM      5  C   UNL     1      44.012   2.741  10.085  0.00  0.00    +0.000 A 
ATOM      6  C   UNL     1      45.081   3.367   9.443  0.00  0.00    +0.000 A 
ATOM      7  N   UNL     1      45.474   4.610   9.830  0.00  0.00    +0.000 NA
BRANCH   6   8
ATOM      8  C   UNL     1      45.836   2.754   8.336  0.00  0.00    +0.000 A 
ATOM      9  C   UNL     1      46.185   1.397   8.335  0.00  0.00    +0.000 A 
ATOM     10  C   UNL     1      46.895   0.878   7.262  0.00  0.00    +0.000 A 
ATOM     11  N   UNL     1      47.283   1.604   6.196  0.00  0.00    +0.000 NA
ATOM     12  C   UNL     1      46.934   2.905   6.198  0.00  0.00    +0.000 A 
ATOM     13  C   UNL     1      46.224   3.513   7.223  0.00  0.00    +0.000 A 
ENDBRANCH   6   8
ENDBRANCH   1   2
BRANCH   1  14
ATOM     14  O   UNL     1      46.603   6.657  11.311  0.00  0.00    +0.000 OA
BRANCH  14  19
ATOM     15  C   UNL     1      48.186   7.656  14.510  0.00  0.00    +0.000 A 
ATOM     16  C   UNL     1      48.306   6.380  15.038  0.00  0.00    +0.000 A 
ATOM     17  N   UNL     1      47.946   5.262  14.372  0.00  0.00    +0.000 NA
ATOM     18  C   UNL     1      47.401   5.438  13.142  0.00  0.00    +0.000 A 
ATOM     19  C   UNL     1      47.198   6.676  12.538  0.00  0.00    +0.000 A 
ATOM     20  C   UNL     1      47.605   7.805  13.244  0.00  0.00    +0.000 A 
BRANCH  15  22
ATOM     21  O   UNL     1      49.743   9.248  15.291  0.00  0.00    +0.000 OA
ATOM     22  C   UNL     1      48.588   8.860  15.262  0.00  0.00    +0.000 C 
BRANCH  22  23
ATOM     23  O   UNL     1      47.589   9.456  15.944  0.00  0.00    +0.000 OA
ATOM     24  H   UNL     1      46.878   8.879  16.277  0.00  0.00    +0.000 HD
ENDBRANCH  22  23
ENDBRANCH  15  22
ENDBRANCH  14  19
ENDBRANCH   1  14
TORSDOF 6
ENDMDL
MODEL 9
REMARK VINA RESULT:    -6.801      5.064      7.202
REMARK INTER + INTRA:          -9.352
REMARK INTER:                  -8.846
REMARK INTRA:                  -0.505
REMARK UNBOUND:                -0.365
REMARK  Name = 
REMARK  6 active torsions:
REMARK  status: ('A' for Active; 'I' for Inactive)
REMARK    1  A    between atoms: C_2  and  O_3
REMARK    2  A    between atoms: C_2  and  C_4
REMARK    3  A    between atoms: C_8  and  O_9
REMARK    4  A    between atoms: O_9  and  C_10
REMARK    5  A    between atoms: C_10  and  C_11
REMARK    6  A    between atoms: C_15  and  C_16
REMARK                            x       y       z     vdW  Elec       q    Type
REMARK                         _______ _______ _______ _____ _____    ______ ____
ROOT
ATOM      1  C   UNL     1      47.189   3.909  15.998  0.00  0.00    +0.000 C 
ENDROOT
BRANCH   1   2
ATOM      2  C   UNL     1      48.465   4.414  16.620  0.00  0.00    +0.000 A 
ATOM      3  C   UNL     1      48.636   5.770  16.864  0.00  0.00    +0.000 A 
ATOM      4  N   UNL     1      49.756   6.276  17.427  0.00  0.00    +0.000 NA
ATOM      5  C   UNL     1      50.711   5.362  17.729  0.00  0.00    +0.000 A 
ATOM      6  C   UNL     1      50.573   3.994  17.496  0.00  0.00    +0.000 A 
ATOM      7  N   UNL     1      49.437   3.511  16.926  0.00  0.00    +0.000 NA
BRANCH   6   8
ATOM      8  C   UNL     1      51.607   3.003  17.841  0.00  0.00    +0.000 A 
ATOM      9  C   UNL     1      52.737   3.339  18.600  0.00  0.00    +0.000 A 
ATOM     10  C   UNL     1      53.674   2.360  18.895  0.00  0.00    +0.000 A 
ATOM     11  N   UNL     1      53.575   1.079  18.491  0.00  0.00    +0.000 NA
ATOM     12  C   UNL     1      52.482   0.760  17.771  0.00  0.00    +0.000 A 
ATOM     13  C   UNL     1      51.490   1.668  17.429  0.00  0.00    +0.000 A 
ENDBRANCH   6   8
ENDBRANCH   1   2
BRANCH   1  14
ATOM     14  O   UNL     1      47.477   3.413  14.688  0.00  0.00    +0.000 OA
BRANCH  14  19
ATOM     15  C   UNL     1      45.135   3.925  11.862  0.00  0.00    +0.000 A 
ATOM     16  C   UNL     1      45.380   5.279  11.690  0.00  0.00    +0.000 A 
ATOM     17  N   UNL     1      46.290   5.968  12.411  0.00  0.00    +0.000 NA
ATOM     18  C   UNL     1      46.949   5.277  13.375  0.00  0.00    +0.000 A 
ATOM     19  C   UNL     1      46.747   3.928  13.657  0.00  0.00    +0.000 A 
ATOM     20  C   UNL     1      45.820   3.243  12.876  0.00  0.00    +0.000 A 
BRANCH  15  22
ATOM     21  O   UNL     1      42.938   3.406  11.174  0.00  0.00    +0.000 OA
ATOM     22  C   UNL     1      44.133   3.199  11.058  0.00  0.00    +0.000 C 
BRANCH  22  23
ATOM     23  O   UNL     1      44.646   2.266  10.230  0.00  0.00    +0.000 OA
ATOM     24  H   UNL     1      45.605   2.311  10.056  0.00  0.00    +0.000 HD
ENDBRANCH  22  23
ENDBRANCH  15  22
ENDBRANCH  14  19
ENDBRANCH   1  14
TORSDOF 6
ENDMDL
