MODEL 1
REMARK VINA RESULT:    -8.826      0.000      0.000
REMARK INTER + INTRA:         -13.138
REMARK INTER:                 -12.438
REMARK INTRA:                  -0.700
REMARK UNBOUND:                -0.700
REMARK  Name = 
REMARK  8 active torsions:
REMARK  status: ('A' for Active; 'I' for Inactive)
REMARK    1  A    between atoms: N_1  and  C_2
REMARK    2  A    between atoms: C_2  and  N_3
REMARK    3  A    between atoms: C_2  and  C_16
REMARK    4  A    between atoms: C_4  and  C_6
REMARK    5  A    between atoms: C_19  and  C_20
REMARK    6  A    between atoms: C_20  and  N_21
REMARK    7  A    between atoms: C_22  and  C_24
REMARK    8  A    between atoms: C_28  and  O_29
REMARK                            x       y       z     vdW  Elec       q    Type
REMARK                         _______ _______ _______ _____ _____    ______ ____
ROOT
ATOM      1  C   UNL     1      47.141   7.561  13.339  0.00  0.00    +0.000 C 
ENDROOT
BRANCH   1   2
ATOM      2  C   UNL     1      46.399   6.494  12.492  0.00  0.00    +0.000 C 
ATOM      3  C   UNL     1      44.943   6.863  12.167  0.00  0.00    +0.000 C 
ATOM      4  C   UNL     1      44.259   5.800  11.316  0.00  0.00    +0.000 C 
ATOM      5  C   UNL     1      44.310   4.421  11.985  0.00  0.00    +0.000 C 
ATOM      6  C   UNL     1      45.758   4.039  12.321  0.00  0.00    +0.000 C 
ATOM      7  C   UNL     1      46.456   5.110  13.160  0.00  0.00    +0.000 C 
BRANCH   5   8
ATOM      8  C   UNL     1      43.677   3.349  11.086  0.00  0.00    +0.000 C 
BRANCH   8   9
ATOM      9  N   UNL     1      44.634   2.725  10.202  0.00  0.00    +0.000 N 
ATOM     10  C   UNL     1      44.826   3.158   8.907  0.00  0.00    +0.000 C 
ATOM     11  O   UNL     1      44.200   4.096   8.423  0.00  0.00    +0.000 OA
ATOM     12  H   UNL     1      45.251   1.987  10.528  0.00  0.00    +0.000 HD
BRANCH  10  13
ATOM     13  C   UNL     1      45.842   2.390   8.184  0.00  0.00    +0.000 A 
ATOM     14  N   UNL     1      46.013   1.014   8.336  0.00  0.00    +0.000 NA
ATOM     15  C   UNL     1      46.989   0.692   7.517  0.00  0.00    +0.000 A 
ATOM     16  N   UNL     1      47.464   1.781   6.847  0.00  0.00    +0.000 N 
ATOM     17  C   UNL     1      46.754   2.878   7.260  0.00  0.00    +0.000 A 
ATOM     18  H   UNL     1      48.208   1.769   6.161  0.00  0.00    +0.000 HD
BRANCH  17  19
ATOM     19  O   UNL     1      46.979   4.100   6.797  0.00  0.00    +0.000 OA
ATOM     20  H   UNL     1      47.886   4.387   6.985  0.00  0.00    +0.000 HD
ENDBRANCH  17  19
ENDBRANCH  10  13
ENDBRANCH   8   9
ENDBRANCH   5   8
ENDBRANCH   1   2
BRANCH   1  21
ATOM     21  N   UNL     1      47.579   7.095  14.616  0.00  0.00    +0.000 N 
ATOM     22  C   UNL     1      48.890   6.774  14.869  0.00  0.00    +0.000 C 
ATOM     23  O   UNL     1      49.775   6.918  14.029  0.00  0.00    +0.000 OA
ATOM     24  H   UNL     1      46.866   6.758  15.252  0.00  0.00    +0.000 HD
BRANCH  22  25
ATOM     25  C   UNL     1      49.202   6.310  16.227  0.00  0.00    +0.000 A 
ATOM     26  C   UNL     1      50.089   7.041  17.006  0.00  0.00    +0.000 A 
ATOM     27  S   UNL     1      50.322   6.399  18.567  0.00  0.00    +0.000 S 
ATOM     28  C   UNL     1      49.284   5.091  18.243  0.00  0.00    +0.000 A 
ATOM     29  N   UNL     1      49.061   4.128  19.177  0.00  0.00    +0.000 NA
ATOM     30  C   UNL     1      48.292   3.170  18.783  0.00  0.00    +0.000 A 
ATOM     31  N   UNL     1      47.711   3.095  17.544  0.00  0.00    +0.000 N 
ATOM     32  C   UNL     1      47.844   4.084  16.600  0.00  0.00    +0.000 A 
ATOM     33  O   UNL     1      47.203   4.057  15.555  0.00  0.00    +0.000 OA
ATOM     34  C   UNL     1      48.744   5.159  16.970  0.00  0.00    +0.000 A 
ATOM     35  H   UNL     1      47.094   2.332  17.308  0.00  0.00    +0.000 HD
ENDBRANCH  22  25
ENDBRANCH   1  21
BRANCH   1  36
ATOM     36  N   UNL     1      46.286   8.683  13.671  0.00  0.00    +0.000 NA
ATOM     37  H   UNL     1      45.450   8.610  13.097  0.00  0.00    +0.000 HD
ATOM     38  H   UNL     1      46.742   9.546  13.391  0.00  0.00    +0.000 HD
ENDBRANCH   1  36
TORSDOF 8
ENDMDL
MODEL 2
REMARK VINA RESULT:    -8.732      1.826      2.222
REMARK INTER + INTRA:         -13.006
REMARK INTER:                 -11.784
REMARK INTRA:                  -1.222
REMARK UNBOUND:                -0.700
REMARK  Name = 
REMARK  8 active torsions:
REMARK  status: ('A' for Active; 'I' for Inactive)
REMARK    1  A    between atoms: N_1  and  C_2
REMARK    2  A    between atoms: C_2  and  N_3
REMARK    3  A    between atoms: C_2  and  C_16
REMARK    4  A    between atoms: C_4  and  C_6
REMARK    5  A    between atoms: C_19  and  C_20
REMARK    6  A    between atoms: C_20  and  N_21
REMARK    7  A    between atoms: C_22  and  C_24
REMARK    8  A    between atoms: C_28  and  O_29
REMARK                            x       y       z     vdW  Elec       q    Type
REMARK                         _______ _______ _______ _____ _____    ______ ____
ROOT
ATOM      1  C   UNL     1      47.890   6.882  13.933  0.00  0.00    +0.000 C 
ENDROOT
BRANCH   1   2
ATOM      2  C   UNL     1      47.060   5.948  13.015  0.00  0.00    +0.000 C 
ATOM      3  C   UNL     1      45.728   6.559  12.550  0.00  0.00    +0.000 C 
ATOM      4  C   UNL     1      44.956   5.619  11.633  0.00  0.00    +0.000 C 
ATOM      5  C   UNL     1      44.702   4.260  12.300  0.00  0.00    +0.000 C 
ATOM      6  C   UNL     1      46.024   3.638  12.774  0.00  0.00    +0.000 C 
ATOM      7  C   UNL     1      46.812   4.584  13.680  0.00  0.00    +0.000 C 
BRANCH   5   8
ATOM      8  C   UNL     1      43.983   3.302  11.339  0.00  0.00    +0.000 C 
BRANCH   8   9
ATOM      9  N   UNL     1      44.875   2.712  10.366  0.00  0.00    +0.000 N 
ATOM     10  C   UNL     1      44.933   3.157   9.062  0.00  0.00    +0.000 C 
ATOM     11  O   UNL     1      44.237   4.077   8.645  0.00  0.00    +0.000 OA
ATOM     12  H   UNL     1      45.541   1.993  10.630  0.00  0.00    +0.000 HD
BRANCH  10  13
ATOM     13  C   UNL     1      45.902   2.425   8.244  0.00  0.00    +0.000 A 
ATOM     14  N   UNL     1      46.103   1.048   8.345  0.00  0.00    +0.000 NA
ATOM     15  C   UNL     1      47.019   0.764   7.446  0.00  0.00    +0.000 A 
ATOM     16  N   UNL     1      47.427   1.878   6.772  0.00  0.00    +0.000 N 
ATOM     17  C   UNL     1      46.734   2.952   7.268  0.00  0.00    +0.000 A 
ATOM     18  H   UNL     1      48.116   1.896   6.032  0.00  0.00    +0.000 HD
BRANCH  17  19
ATOM     19  O   UNL     1      46.906   4.189   6.823  0.00  0.00    +0.000 OA
ATOM     20  H   UNL     1      47.844   4.440   6.832  0.00  0.00    +0.000 HD
ENDBRANCH  17  19
ENDBRANCH  10  13
ENDBRANCH   8   9
ENDBRANCH   5   8
ENDBRANCH   1   2
BRANCH   1  21
ATOM     21  N   UNL     1      47.873   6.513  15.313  0.00  0.00    +0.000 N 
ATOM     22  C   UNL     1      49.026   6.316  16.033  0.00  0.00    +0.000 C 
ATOM     23  O   UNL     1      50.141   6.495  15.549  0.00  0.00    +0.000 OA
ATOM     24  H   UNL     1      47.004   6.146  15.681  0.00  0.00    +0.000 HD
BRANCH  22  25
ATOM     25  C   UNL     1      48.864   5.941  17.444  0.00  0.00    +0.000 A 
ATOM     26  C   UNL     1      49.214   4.660  17.849  0.00  0.00    +0.000 A 
ATOM     27  S   UNL     1      49.005   4.387  19.518  0.00  0.00    +0.000 S 
ATOM     28  C   UNL     1      48.390   5.955  19.753  0.00  0.00    +0.000 A 
ATOM     29  N   UNL     1      47.983   6.369  20.983  0.00  0.00    +0.000 NA
ATOM     30  C   UNL     1      47.494   7.563  21.010  0.00  0.00    +0.000 A 
ATOM     31  N   UNL     1      47.391   8.388  19.920  0.00  0.00    +0.000 N 
ATOM     32  C   UNL     1      47.863   8.041  18.678  0.00  0.00    +0.000 A 
ATOM     33  O   UNL     1      47.884   8.851  17.757  0.00  0.00    +0.000 OA
ATOM     34  C   UNL     1      48.373   6.687  18.579  0.00  0.00    +0.000 A 
ATOM     35  H   UNL     1      47.025   9.324  20.014  0.00  0.00    +0.000 HD
ENDBRANCH  22  25
ENDBRANCH   1  21
BRANCH   1  36
ATOM     36  N   UNL     1      47.371   8.235  13.947  0.00  0.00    +0.000 NA
ATOM     37  H   UNL     1      47.922   8.780  13.289  0.00  0.00    +0.000 HD
ATOM     38  H   UNL     1      47.537   8.648  14.860  0.00  0.00    +0.000 HD
ENDBRANCH   1  36
TORSDOF 8
ENDMDL
MODEL 3
REMARK VINA RESULT:    -8.160      3.108      4.580
REMARK INTER + INTRA:         -12.200
REMARK INTER:                 -10.680
REMARK INTRA:                  -1.519
REMARK UNBOUND:                -0.700
REMARK  Name = 
REMARK  8 active torsions:
REMARK  status: ('A' for Active; 'I' for Inactive)
REMARK    1  A    between atoms: N_1  and  C_2
REMARK    2  A    between atoms: C_2  and  N_3
REMARK    3  A    between atoms: C_2  and  C_16
REMARK    4  A    between atoms: C_4  and  C_6
REMARK    5  A    between atoms: C_19  and  C_20
REMARK    6  A    between atoms: C_20  and  N_21
REMARK    7  A    between atoms: C_22  and  C_24
REMARK    8  A    between atoms: C_28  and  O_29
REMARK                            x       y       z     vdW  Elec       q    Type
REMARK                         _______ _______ _______ _____ _____    ______ ____
ROOT
ATOM      1  C   UNL     1      47.716   6.416  14.107  0.00  0.00    +0.000 C 
ENDROOT
BRANCH   1   2
ATOM      2  C   UNL     1      47.030   5.710  12.909  0.00  0.00    +0.000 C 
ATOM      3  C   UNL     1      46.532   6.675  11.821  0.00  0.00    +0.000 C 
ATOM      4  C   UNL     1      45.887   5.940  10.654  0.00  0.00    +0.000 C 
ATOM      5  C   UNL     1      44.734   5.041  11.120  0.00  0.00    +0.000 C 
ATOM      6  C   UNL     1      45.214   4.072  12.210  0.00  0.00    +0.000 C 
ATOM      7  C   UNL     1      45.880   4.802  13.376  0.00  0.00    +0.000 C 
BRANCH   5   8
ATOM      8  C   UNL     1      44.138   4.256   9.942  0.00  0.00    +0.000 C 
BRANCH   8   9
ATOM      9  N   UNL     1      45.144   3.788   9.016  0.00  0.00    +0.000 N 
ATOM     10  C   UNL     1      45.289   2.451   8.707  0.00  0.00    +0.000 C 
ATOM     11  O   UNL     1      44.578   1.578   9.193  0.00  0.00    +0.000 OA
ATOM     12  H   UNL     1      45.736   4.437   8.507  0.00  0.00    +0.000 HD
BRANCH  10  13
ATOM     13  C   UNL     1      46.366   2.193   7.748  0.00  0.00    +0.000 A 
ATOM     14  N   UNL     1      46.964   3.193   6.981  0.00  0.00    +0.000 NA
ATOM     15  C   UNL     1      47.887   2.583   6.273  0.00  0.00    +0.000 A 
ATOM     16  N   UNL     1      47.919   1.243   6.533  0.00  0.00    +0.000 N 
ATOM     17  C   UNL     1      46.952   0.969   7.465  0.00  0.00    +0.000 A 
ATOM     18  H   UNL     1      48.553   0.579   6.111  0.00  0.00    +0.000 HD
BRANCH  17  19
ATOM     19  O   UNL     1      46.724  -0.253   7.929  0.00  0.00    +0.000 OA
ATOM     20  H   UNL     1      46.583  -0.883   7.206  0.00  0.00    +0.000 HD
ENDBRANCH  17  19
ENDBRANCH  10  13
ENDBRANCH   8   9
ENDBRANCH   5   8
ENDBRANCH   1   2
BRANCH   1  21
ATOM     21  N   UNL     1      49.046   6.865  13.840  0.00  0.00    +0.000 N 
ATOM     22  C   UNL     1      49.677   7.794  14.631  0.00  0.00    +0.000 C 
ATOM     23  O   UNL     1      49.159   8.256  15.643  0.00  0.00    +0.000 OA
ATOM     24  H   UNL     1      49.415   6.683  12.915  0.00  0.00    +0.000 HD
BRANCH  22  25
ATOM     25  C   UNL     1      51.045   8.164  14.243  0.00  0.00    +0.000 A 
ATOM     26  C   UNL     1      52.040   8.189  15.212  0.00  0.00    +0.000 A 
ATOM     27  S   UNL     1      53.578   8.599  14.604  0.00  0.00    +0.000 S 
ATOM     28  C   UNL     1      52.963   8.807  13.032  0.00  0.00    +0.000 A 
ATOM     29  N   UNL     1      53.772   9.195  12.010  0.00  0.00    +0.000 NA
ATOM     30  C   UNL     1      53.167   9.360  10.883  0.00  0.00    +0.000 A 
ATOM     31  N   UNL     1      51.826   9.157  10.680  0.00  0.00    +0.000 N 
ATOM     32  C   UNL     1      50.988   8.689  11.663  0.00  0.00    +0.000 A 
ATOM     33  O   UNL     1      49.826   8.384  11.416  0.00  0.00    +0.000 OA
ATOM     34  C   UNL     1      51.607   8.538  12.966  0.00  0.00    +0.000 A 
ATOM     35  H   UNL     1      51.418   9.276   9.765  0.00  0.00    +0.000 HD
ENDBRANCH  22  25
ENDBRANCH   1  21
BRANCH   1  36
ATOM     36  N   UNL     1      47.887   5.527  15.238  0.00  0.00    +0.000 NA
ATOM     37  H   UNL     1      47.126   5.709  15.887  0.00  0.00    +0.000 HD
ATOM     38  H   UNL     1      48.739   5.774  15.732  0.00  0.00    +0.000 HD
ENDBRANCH   1  36
TORSDOF 8
ENDMDL
MODEL 4
REMARK VINA RESULT:    -8.007      2.232      3.758
REMARK INTER + INTRA:         -11.984
REMARK INTER:                 -10.565
REMARK INTRA:                  -1.419
REMARK UNBOUND:                -0.700
REMARK  Name = 
REMARK  8 active torsions:
REMARK  status: ('A' for Active; 'I' for Inactive)
REMARK    1  A    between atoms: N_1  and  C_2
REMARK    2  A    between atoms: C_2  and  N_3
REMARK    3  A    between atoms: C_2  and  C_16
REMARK    4  A    between atoms: C_4  and  C_6
REMARK    5  A    between atoms: C_19  and  C_20
REMARK    6  A    between atoms: C_20  and  N_21
REMARK    7  A    between atoms: C_22  and  C_24
REMARK    8  A    between atoms: C_28  and  O_29
REMARK                            x       y       z     vdW  Elec       q    Type
REMARK                         _______ _______ _______ _____ _____    ______ ____
ROOT
ATOM      1  C   UNL     1      46.963   4.785  14.815  0.00  0.00    +0.000 C 
ENDROOT
BRANCH   1   2
ATOM      2  C   UNL     1      46.442   4.539  13.376  0.00  0.00    +0.000 C 
ATOM      3  C   UNL     1      46.207   5.828  12.572  0.00  0.00    +0.000 C 
ATOM      4  C   UNL     1      45.718   5.540  11.158  0.00  0.00    +0.000 C 
ATOM      5  C   UNL     1      44.441   4.689  11.163  0.00  0.00    +0.000 C 
ATOM      6  C   UNL     1      44.658   3.399  11.967  0.00  0.00    +0.000 C 
ATOM      7  C   UNL     1      45.167   3.679  13.381  0.00  0.00    +0.000 C 
BRANCH   5   8
ATOM      8  C   UNL     1      44.000   4.351   9.732  0.00  0.00    +0.000 C 
BRANCH   8   9
ATOM      9  N   UNL     1      45.087   3.870   8.911  0.00  0.00    +0.000 N 
ATOM     10  C   UNL     1      45.254   2.530   8.630  0.00  0.00    +0.000 C 
ATOM     11  O   UNL     1      44.497   1.665   9.056  0.00  0.00    +0.000 OA
ATOM     12  H   UNL     1      45.727   4.512   8.453  0.00  0.00    +0.000 HD
BRANCH  10  13
ATOM     13  C   UNL     1      46.416   2.258   7.780  0.00  0.00    +0.000 A 
ATOM     14  N   UNL     1      47.112   3.254   7.094  0.00  0.00    +0.000 NA
ATOM     15  C   UNL     1      48.087   2.630   6.472  0.00  0.00    +0.000 A 
ATOM     16  N   UNL     1      48.060   1.287   6.711  0.00  0.00    +0.000 N 
ATOM     17  C   UNL     1      46.998   1.024   7.537  0.00  0.00    +0.000 A 
ATOM     18  H   UNL     1      48.718   0.612   6.343  0.00  0.00    +0.000 HD
BRANCH  17  19
ATOM     19  O   UNL     1      46.695  -0.198   7.955  0.00  0.00    +0.000 OA
ATOM     20  H   UNL     1      47.349  -0.525   8.592  0.00  0.00    +0.000 HD
ENDBRANCH  17  19
ENDBRANCH  10  13
ENDBRANCH   8   9
ENDBRANCH   5   8
ENDBRANCH   1   2
BRANCH   1  21
ATOM     21  N   UNL     1      48.035   5.726  14.898  0.00  0.00    +0.000 N 
ATOM     22  C   UNL     1      48.574   6.118  16.099  0.00  0.00    +0.000 C 
ATOM     23  O   UNL     1      48.203   5.647  17.171  0.00  0.00    +0.000 OA
ATOM     24  H   UNL     1      48.215   6.291  14.078  0.00  0.00    +0.000 HD
BRANCH  22  25
ATOM     25  C   UNL     1      49.674   7.090  16.038  0.00  0.00    +0.000 A 
ATOM     26  C   UNL     1      50.889   6.776  16.634  0.00  0.00    +0.000 A 
ATOM     27  S   UNL     1      52.077   7.983  16.448  0.00  0.00    +0.000 S 
ATOM     28  C   UNL     1      50.997   8.993  15.607  0.00  0.00    +0.000 A 
ATOM     29  N   UNL     1      51.382  10.224  15.176  0.00  0.00    +0.000 NA
ATOM     30  C   UNL     1      50.451  10.902  14.596  0.00  0.00    +0.000 A 
ATOM     31  N   UNL     1      49.172  10.455  14.392  0.00  0.00    +0.000 N 
ATOM     32  C   UNL     1      48.763   9.190  14.738  0.00  0.00    +0.000 A 
ATOM     33  O   UNL     1      47.656   8.770  14.418  0.00  0.00    +0.000 OA
ATOM     34  C   UNL     1      49.755   8.404  15.445  0.00  0.00    +0.000 A 
ATOM     35  H   UNL     1      48.497  11.025  13.903  0.00  0.00    +0.000 HD
ENDBRANCH  22  25
ENDBRANCH   1  21
BRANCH   1  36
ATOM     36  N   UNL     1      47.527   3.587  15.403  0.00  0.00    +0.000 NA
ATOM     37  H   UNL     1      46.852   3.230  16.075  0.00  0.00    +0.000 HD
ATOM     38  H   UNL     1      48.352   3.835  15.941  0.00  0.00    +0.000 HD
ENDBRANCH   1  36
TORSDOF 8
ENDMDL
MODEL 5
REMARK VINA RESULT:    -7.791      2.226      3.181
REMARK INTER + INTRA:         -11.679
REMARK INTER:                 -10.888
REMARK INTRA:                  -0.792
REMARK UNBOUND:                -0.700
REMARK  Name = 
REMARK  8 active torsions:
REMARK  status: ('A' for Active; 'I' for Inactive)
REMARK    1  A    between atoms: N_1  and  C_2
REMARK    2  A    between atoms: C_2  and  N_3
REMARK    3  A    between atoms: C_2  and  C_16
REMARK    4  A    between atoms: C_4  and  C_6
REMARK    5  A    between atoms: C_19  and  C_20
REMARK    6  A    between atoms: C_20  and  N_21
REMARK    7  A    between atoms: C_22  and  C_24
REMARK    8  A    between atoms: C_28  and  O_29
REMARK                            x       y       z     vdW  Elec       q    Type
REMARK                         _______ _______ _______ _____ _____    ______ ____
ROOT
ATOM      1  C   UNL     1      46.768   4.523  14.786  0.00  0.00    +0.000 C 
ENDROOT
BRANCH   1   2
ATOM      2  C   UNL     1      46.217   4.610  13.340  0.00  0.00    +0.000 C 
ATOM      3  C   UNL     1      45.138   5.689  13.151  0.00  0.00    +0.000 C 
ATOM      4  C   UNL     1      44.641   5.756  11.713  0.00  0.00    +0.000 C 
ATOM      5  C   UNL     1      44.108   4.399  11.234  0.00  0.00    +0.000 C 
ATOM      6  C   UNL     1      45.173   3.308  11.420  0.00  0.00    +0.000 C 
ATOM      7  C   UNL     1      45.691   3.248  12.857  0.00  0.00    +0.000 C 
BRANCH   5   8
ATOM      8  C   UNL     1      43.674   4.466   9.763  0.00  0.00    +0.000 C 
BRANCH   8   9
ATOM      9  N   UNL     1      44.476   3.626   8.904  0.00  0.00    +0.000 N 
ATOM     10  C   UNL     1      45.610   4.094   8.275  0.00  0.00    +0.000 C 
ATOM     11  O   UNL     1      46.010   5.246   8.402  0.00  0.00    +0.000 OA
ATOM     12  H   UNL     1      44.269   2.638   8.790  0.00  0.00    +0.000 HD
BRANCH  10  13
ATOM     13  C   UNL     1      46.276   3.080   7.452  0.00  0.00    +0.000 A 
ATOM     14  N   UNL     1      46.957   3.379   6.272  0.00  0.00    +0.000 NA
ATOM     15  C   UNL     1      47.429   2.230   5.844  0.00  0.00    +0.000 A 
ATOM     16  N   UNL     1      47.089   1.203   6.675  0.00  0.00    +0.000 N 
ATOM     17  C   UNL     1      46.347   1.719   7.705  0.00  0.00    +0.000 A 
ATOM     18  H   UNL     1      47.351   0.235   6.548  0.00  0.00    +0.000 HD
BRANCH  17  19
ATOM     19  O   UNL     1      45.857   0.972   8.686  0.00  0.00    +0.000 OA
ATOM     20  H   UNL     1      46.566   0.547   9.193  0.00  0.00    +0.000 HD
ENDBRANCH  17  19
ENDBRANCH  10  13
ENDBRANCH   8   9
ENDBRANCH   5   8
ENDBRANCH   1   2
BRANCH   1  21
ATOM     21  N   UNL     1      47.564   5.642  15.179  0.00  0.00    +0.000 N 
ATOM     22  C   UNL     1      48.471   6.230  14.330  0.00  0.00    +0.000 C 
ATOM     23  O   UNL     1      48.615   5.863  13.167  0.00  0.00    +0.000 OA
ATOM     24  H   UNL     1      47.637   5.829  16.171  0.00  0.00    +0.000 HD
BRANCH  22  25
ATOM     25  C   UNL     1      49.221   7.375  14.863  0.00  0.00    +0.000 A 
ATOM     26  C   UNL     1      48.985   8.641  14.343  0.00  0.00    +0.000 A 
ATOM     27  S   UNL     1      49.902   9.870  15.086  0.00  0.00    +0.000 S 
ATOM     28  C   UNL     1      50.687   8.749  16.096  0.00  0.00    +0.000 A 
ATOM     29  N   UNL     1      51.640   9.151  16.978  0.00  0.00    +0.000 NA
ATOM     30  C   UNL     1      52.188   8.193  17.647  0.00  0.00    +0.000 A 
ATOM     31  N   UNL     1      51.857   6.869  17.525  0.00  0.00    +0.000 N 
ATOM     32  C   UNL     1      50.846   6.427  16.706  0.00  0.00    +0.000 A 
ATOM     33  O   UNL     1      50.480   5.257  16.722  0.00  0.00    +0.000 OA
ATOM     34  C   UNL     1      50.234   7.457  15.889  0.00  0.00    +0.000 A 
ATOM     35  H   UNL     1      52.303   6.170  18.100  0.00  0.00    +0.000 HD
ENDBRANCH  22  25
ENDBRANCH   1  21
BRANCH   1  36
ATOM     36  N   UNL     1      47.668   3.400  14.960  0.00  0.00    +0.000 NA
ATOM     37  H   UNL     1      48.495   3.583  14.397  0.00  0.00    +0.000 HD
ATOM     38  H   UNL     1      47.242   2.566  14.566  0.00  0.00    +0.000 HD
ENDBRANCH   1  36
TORSDOF 8
ENDMDL
MODEL 6
REMARK VINA RESULT:    -7.594      1.841      2.178
REMARK INTER + INTRA:         -11.402
REMARK INTER:                 -10.154
REMARK INTRA:                  -1.248
REMARK UNBOUND:                -0.700
REMARK  Name = 
REMARK  8 active torsions:
REMARK  status: ('A' for Active; 'I' for Inactive)
REMARK    1  A    between atoms: N_1  and  C_2
REMARK    2  A    between atoms: C_2  and  N_3
REMARK    3  A    between atoms: C_2  and  C_16
REMARK    4  A    between atoms: C_4  and  C_6
REMARK    5  A    between atoms: C_19  and  C_20
REMARK    6  A    between atoms: C_20  and  N_21
REMARK    7  A    between atoms: C_22  and  C_24
REMARK    8  A    between atoms: C_28  and  O_29
REMARK                            x       y       z     vdW  Elec       q    Type
REMARK                         _______ _______ _______ _____ _____    ______ ____
ROOT
ATOM      1  C   UNL     1      48.834   7.263  13.738  0.00  0.00    +0.000 C 
ENDROOT
BRANCH   1   2
ATOM      2  C   UNL     1      47.790   6.639  12.777  0.00  0.00    +0.000 C 
ATOM      3  C   UNL     1      46.758   7.646  12.245  0.00  0.00    +0.000 C 
ATOM      4  C   UNL     1      45.766   6.997  11.288  0.00  0.00    +0.000 C 
ATOM      5  C   UNL     1      45.046   5.809  11.939  0.00  0.00    +0.000 C 
ATOM      6  C   UNL     1      46.063   4.795  12.481  0.00  0.00    +0.000 C 
ATOM      7  C   UNL     1      47.074   5.443  13.427  0.00  0.00    +0.000 C 
BRANCH   5   8
ATOM      8  C   UNL     1      44.099   5.126  10.942  0.00  0.00    +0.000 C 
BRANCH   8   9
ATOM      9  N   UNL     1      44.777   4.677   9.746  0.00  0.00    +0.000 N 
ATOM     10  C   UNL     1      44.948   3.339   9.461  0.00  0.00    +0.000 C 
ATOM     11  O   UNL     1      44.540   2.447  10.197  0.00  0.00    +0.000 OA
ATOM     12  H   UNL     1      45.089   5.335   9.039  0.00  0.00    +0.000 HD
BRANCH  10  13
ATOM     13  C   UNL     1      45.658   3.102   8.201  0.00  0.00    +0.000 A 
ATOM     14  N   UNL     1      45.908   4.105   7.264  0.00  0.00    +0.000 NA
ATOM     15  C   UNL     1      46.577   3.518   6.298  0.00  0.00    +0.000 A 
ATOM     16  N   UNL     1      46.771   2.191   6.552  0.00  0.00    +0.000 N 
ATOM     17  C   UNL     1      46.187   1.901   7.757  0.00  0.00    +0.000 A 
ATOM     18  H   UNL     1      47.267   1.546   5.952  0.00  0.00    +0.000 HD
BRANCH  17  19
ATOM     19  O   UNL     1      46.197   0.685   8.289  0.00  0.00    +0.000 OA
ATOM     20  H   UNL     1      46.232   0.001   7.603  0.00  0.00    +0.000 HD
ENDBRANCH  17  19
ENDBRANCH  10  13
ENDBRANCH   8   9
ENDBRANCH   5   8
ENDBRANCH   1   2
BRANCH   1  21
ATOM     21  N   UNL     1      48.450   7.243  15.114  0.00  0.00    +0.000 N 
ATOM     22  C   UNL     1      49.360   7.057  16.126  0.00  0.00    +0.000 C 
ATOM     23  O   UNL     1      50.565   6.947  15.914  0.00  0.00    +0.000 OA
ATOM     24  H   UNL     1      47.467   7.109  15.315  0.00  0.00    +0.000 HD
BRANCH  22  25
ATOM     25  C   UNL     1      48.828   7.061  17.496  0.00  0.00    +0.000 A 
ATOM     26  C   UNL     1      48.225   8.212  17.984  0.00  0.00    +0.000 A 
ATOM     27  S   UNL     1      47.625   8.052  19.571  0.00  0.00    +0.000 S 
ATOM     28  C   UNL     1      48.195   6.453  19.683  0.00  0.00    +0.000 A 
ATOM     29  N   UNL     1      48.030   5.731  20.824  0.00  0.00    +0.000 NA
ATOM     30  C   UNL     1      48.551   4.552  20.789  0.00  0.00    +0.000 A 
ATOM     31  N   UNL     1      49.210   4.021  19.711  0.00  0.00    +0.000 N 
ATOM     32  C   UNL     1      49.329   4.684  18.513  0.00  0.00    +0.000 A 
ATOM     33  O   UNL     1      49.800   4.132  17.525  0.00  0.00    +0.000 OA
ATOM     34  C   UNL     1      48.809   6.038  18.515  0.00  0.00    +0.000 A 
ATOM     35  H   UNL     1      49.570   3.079  19.737  0.00  0.00    +0.000 HD
ENDBRANCH  22  25
ENDBRANCH   1  21
BRANCH   1  36
ATOM     36  N   UNL     1      49.045   8.672  13.474  0.00  0.00    +0.000 NA
ATOM     37  H   UNL     1      49.365   8.757  12.512  0.00  0.00    +0.000 HD
ATOM     38  H   UNL     1      49.807   9.011  14.053  0.00  0.00    +0.000 HD
ENDBRANCH   1  36
TORSDOF 8
ENDMDL
MODEL 7
REMARK VINA RESULT:    -7.181      1.813      2.639
REMARK INTER + INTRA:         -10.820
REMARK INTER:                  -9.383
REMARK INTRA:                  -1.437
REMARK UNBOUND:                -0.700
REMARK  Name = 
REMARK  8 active torsions:
REMARK  status: ('A' for Active; 'I' for Inactive)
REMARK    1  A    between atoms: N_1  and  C_2
REMARK    2  A    between atoms: C_2  and  N_3
REMARK    3  A    between atoms: C_2  and  C_16
REMARK    4  A    between atoms: C_4  and  C_6
REMARK    5  A    between atoms: C_19  and  C_20
REMARK    6  A    between atoms: C_20  and  N_21
REMARK    7  A    between atoms: C_22  and  C_24
REMARK    8  A    between atoms: C_28  and  O_29
REMARK                            x       y       z     vdW  Elec       q    Type
REMARK                         _______ _______ _______ _____ _____    ______ ____
ROOT
ATOM      1  C   UNL     1      49.838   8.595  14.139  0.00  0.00    +0.000 C 
ENDROOT
BRANCH   1   2
ATOM      2  C   UNL     1      48.594   8.451  13.224  0.00  0.00    +0.000 C 
ATOM      3  C   UNL     1      47.286   8.930  13.875  0.00  0.00    +0.000 C 
ATOM      4  C   UNL     1      46.095   8.792  12.936  0.00  0.00    +0.000 C 
ATOM      5  C   UNL     1      45.931   7.350  12.438  0.00  0.00    +0.000 C 
ATOM      6  C   UNL     1      47.231   6.855  11.788  0.00  0.00    +0.000 C 
ATOM      7  C   UNL     1      48.434   7.008  12.718  0.00  0.00    +0.000 C 
BRANCH   5   8
ATOM      8  C   UNL     1      44.768   7.242  11.441  0.00  0.00    +0.000 C 
BRANCH   8   9
ATOM      9  N   UNL     1      44.882   6.092  10.573  0.00  0.00    +0.000 N 
ATOM     10  C   UNL     1      44.342   4.867  10.906  0.00  0.00    +0.000 C 
ATOM     11  O   UNL     1      43.735   4.674  11.954  0.00  0.00    +0.000 OA
ATOM     12  H   UNL     1      45.304   6.165   9.653  0.00  0.00    +0.000 HD
BRANCH  10  13
ATOM     13  C   UNL     1      44.569   3.839   9.888  0.00  0.00    +0.000 A 
ATOM     14  N   UNL     1      44.076   2.538   9.991  0.00  0.00    +0.000 NA
ATOM     15  C   UNL     1      44.461   1.932   8.890  0.00  0.00    +0.000 A 
ATOM     16  N   UNL     1      45.180   2.764   8.082  0.00  0.00    +0.000 N 
ATOM     17  C   UNL     1      45.269   3.984   8.700  0.00  0.00    +0.000 A 
ATOM     18  H   UNL     1      45.569   2.515   7.183  0.00  0.00    +0.000 HD
BRANCH  17  19
ATOM     19  O   UNL     1      45.913   5.015   8.171  0.00  0.00    +0.000 OA
ATOM     20  H   UNL     1      45.298   5.636   7.749  0.00  0.00    +0.000 HD
ENDBRANCH  17  19
ENDBRANCH  10  13
ENDBRANCH   8   9
ENDBRANCH   5   8
ENDBRANCH   1   2
BRANCH   1  21
ATOM     21  N   UNL     1      49.781   7.813  15.333  0.00  0.00    +0.000 N 
ATOM     22  C   UNL     1      50.896   7.223  15.876  0.00  0.00    +0.000 C 
ATOM     23  O   UNL     1      52.017   7.374  15.398  0.00  0.00    +0.000 OA
ATOM     24  H   UNL     1      48.868   7.487  15.626  0.00  0.00    +0.000 HD
BRANCH  22  25
ATOM     25  C   UNL     1      50.695   6.449  17.108  0.00  0.00    +0.000 A 
ATOM     26  C   UNL     1      51.555   6.646  18.180  0.00  0.00    +0.000 A 
ATOM     27  S   UNL     1      51.173   5.706  19.548  0.00  0.00    +0.000 S 
ATOM     28  C   UNL     1      49.873   4.962  18.742  0.00  0.00    +0.000 A 
ATOM     29  N   UNL     1      49.123   4.009  19.357  0.00  0.00    +0.000 NA
ATOM     30  C   UNL     1      48.200   3.495  18.615  0.00  0.00    +0.000 A 
ATOM     31  N   UNL     1      47.949   3.859  17.318  0.00  0.00    +0.000 N 
ATOM     32  C   UNL     1      48.629   4.872  16.685  0.00  0.00    +0.000 A 
ATOM     33  O   UNL     1      48.290   5.269  15.576  0.00  0.00    +0.000 OA
ATOM     34  C   UNL     1      49.715   5.447  17.455  0.00  0.00    +0.000 A 
ATOM     35  H   UNL     1      47.192   3.438  16.801  0.00  0.00    +0.000 HD
ENDBRANCH  22  25
ENDBRANCH   1  21
BRANCH   1  36
ATOM     36  N   UNL     1      49.995   9.948  14.636  0.00  0.00    +0.000 NA
ATOM     37  H   UNL     1      50.879  10.302  14.279  0.00  0.00    +0.000 HD
ATOM     38  H   UNL     1      50.092   9.924  15.646  0.00  0.00    +0.000 HD
ENDBRANCH   1  36
TORSDOF 8
ENDMDL
MODEL 8
REMARK VINA RESULT:    -7.065      4.068      9.473
REMARK INTER + INTRA:         -10.657
REMARK INTER:                  -9.577
REMARK INTRA:                  -1.080
REMARK UNBOUND:                -0.700
REMARK  Name = 
REMARK  8 active torsions:
REMARK  status: ('A' for Active; 'I' for Inactive)
REMARK    1  A    between atoms: N_1  and  C_2
REMARK    2  A    between atoms: C_2  and  N_3
REMARK    3  A    between atoms: C_2  and  C_16
REMARK    4  A    between atoms: C_4  and  C_6
REMARK    5  A    between atoms: C_19  and  C_20
REMARK    6  A    between atoms: C_20  and  N_21
REMARK    7  A    between atoms: C_22  and  C_24
REMARK    8  A    between atoms: C_28  and  O_29
REMARK                            x       y       z     vdW  Elec       q    Type
REMARK                         _______ _______ _______ _____ _____    ______ ____
ROOT
ATOM      1  C   UNL     1      47.549   3.465  16.555  0.00  0.00    +0.000 C 
ENDROOT
BRANCH   1   2
ATOM      2  C   UNL     1      48.806   4.026  17.269  0.00  0.00    +0.000 C 
ATOM      3  C   UNL     1      49.267   5.391  16.733  0.00  0.00    +0.000 C 
ATOM      4  C   UNL     1      50.489   5.915  17.475  0.00  0.00    +0.000 C 
ATOM      5  C   UNL     1      51.653   4.917  17.425  0.00  0.00    +0.000 C 
ATOM      6  C   UNL     1      51.208   3.546  17.954  0.00  0.00    +0.000 C 
ATOM      7  C   UNL     1      49.970   3.022  17.225  0.00  0.00    +0.000 C 
BRANCH   5   8
ATOM      8  C   UNL     1      52.853   5.430  18.234  0.00  0.00    +0.000 C 
BRANCH   8   9
ATOM      9  N   UNL     1      53.429   6.633  17.678  0.00  0.00    +0.000 N 
ATOM     10  C   UNL     1      54.432   6.594  16.733  0.00  0.00    +0.000 C 
ATOM     11  O   UNL     1      54.899   5.543  16.305  0.00  0.00    +0.000 OA
ATOM     12  H   UNL     1      53.064   7.551  17.914  0.00  0.00    +0.000 HD
BRANCH  10  13
ATOM     13  C   UNL     1      54.873   7.923  16.301  0.00  0.00    +0.000 A 
ATOM     14  N   UNL     1      55.117   8.253  14.968  0.00  0.00    +0.000 NA
ATOM     15  C   UNL     1      55.463   9.520  14.981  0.00  0.00    +0.000 A 
ATOM     16  N   UNL     1      55.464  10.029  16.247  0.00  0.00    +0.000 N 
ATOM     17  C   UNL     1      55.097   9.028  17.108  0.00  0.00    +0.000 A 
ATOM     18  H   UNL     1      55.690  10.983  16.496  0.00  0.00    +0.000 HD
BRANCH  17  19
ATOM     19  O   UNL     1      55.006   9.201  18.420  0.00  0.00    +0.000 OA
ATOM     20  H   UNL     1      54.582  10.047  18.634  0.00  0.00    +0.000 HD
ENDBRANCH  17  19
ENDBRANCH  10  13
ENDBRANCH   8   9
ENDBRANCH   5   8
ENDBRANCH   1   2
BRANCH   1  21
ATOM     21  N   UNL     1      46.914   4.391  15.672  0.00  0.00    +0.000 N 
ATOM     22  C   UNL     1      46.810   4.161  14.322  0.00  0.00    +0.000 C 
ATOM     23  O   UNL     1      47.209   3.124  13.799  0.00  0.00    +0.000 OA
ATOM     24  H   UNL     1      46.775   5.333  16.016  0.00  0.00    +0.000 HD
BRANCH  22  25
ATOM     25  C   UNL     1      46.131   5.196  13.530  0.00  0.00    +0.000 A 
ATOM     26  C   UNL     1      46.730   6.440  13.385  0.00  0.00    +0.000 A 
ATOM     27  S   UNL     1      45.842   7.520  12.411  0.00  0.00    +0.000 S 
ATOM     28  C   UNL     1      44.598   6.382  12.188  0.00  0.00    +0.000 A 
ATOM     29  N   UNL     1      43.493   6.688  11.457  0.00  0.00    +0.000 NA
ATOM     30  C   UNL     1      42.608   5.751  11.408  0.00  0.00    +0.000 A 
ATOM     31  N   UNL     1      42.734   4.527  12.012  0.00  0.00    +0.000 N 
ATOM     32  C   UNL     1      43.865   4.146  12.692  0.00  0.00    +0.000 A 
ATOM     33  O   UNL     1      44.006   2.999  13.101  0.00  0.00    +0.000 OA
ATOM     34  C   UNL     1      44.871   5.183  12.824  0.00  0.00    +0.000 A 
ATOM     35  H   UNL     1      42.016   3.824  11.911  0.00  0.00    +0.000 HD
ENDBRANCH  22  25
ENDBRANCH   1  21
BRANCH   1  36
ATOM     36  N   UNL     1      46.496   3.127  17.492  0.00  0.00    +0.000 NA
ATOM     37  H   UNL     1      46.926   3.021  18.408  0.00  0.00    +0.000 HD
ATOM     38  H   UNL     1      46.118   2.215  17.255  0.00  0.00    +0.000 HD
ENDBRANCH   1  36
TORSDOF 8
ENDMDL
MODEL 9
REMARK VINA RESULT:    -6.769      5.640      8.061
REMARK INTER + INTRA:         -10.240
REMARK INTER:                  -8.989
REMARK INTRA:                  -1.251
REMARK UNBOUND:                -0.700
REMARK  Name = 
REMARK  8 active torsions:
REMARK  status: ('A' for Active; 'I' for Inactive)
REMARK    1  A    between atoms: N_1  and  C_2
REMARK    2  A    between atoms: C_2  and  N_3
REMARK    3  A    between atoms: C_2  and  C_16
REMARK    4  A    between atoms: C_4  and  C_6
REMARK    5  A    between atoms: C_19  and  C_20
REMARK    6  A    between atoms: C_20  and  N_21
REMARK    7  A    between atoms: C_22  and  C_24
REMARK    8  A    between atoms: C_28  and  O_29
REMARK                            x       y       z     vdW  Elec       q    Type
REMARK                         _______ _______ _______ _____ _____    ______ ____
ROOT
ATOM      1  C   UNL     1      52.294   8.634  11.827  0.00  0.00    +0.000 C 
ENDROOT
BRANCH   1   2
ATOM      2  C   UNL     1      50.805   8.658  12.262  0.00  0.00    +0.000 C 
ATOM      3  C   UNL     1      50.581   8.255  13.728  0.00  0.00    +0.000 C 
ATOM      4  C   UNL     1      49.110   8.314  14.119  0.00  0.00    +0.000 C 
ATOM      5  C   UNL     1      48.245   7.441  13.201  0.00  0.00    +0.000 C 
ATOM      6  C   UNL     1      48.461   7.828  11.731  0.00  0.00    +0.000 C 
ATOM      7  C   UNL     1      49.937   7.789  11.336  0.00  0.00    +0.000 C 
BRANCH   5   8
ATOM      8  C   UNL     1      46.758   7.563  13.565  0.00  0.00    +0.000 C 
BRANCH   8   9
ATOM      9  N   UNL     1      46.005   6.372  13.249  0.00  0.00    +0.000 N 
ATOM     10  C   UNL     1      45.056   6.351  12.248  0.00  0.00    +0.000 C 
ATOM     11  O   UNL     1      44.791   7.335  11.566  0.00  0.00    +0.000 OA
ATOM     12  H   UNL     1      46.199   5.487  13.708  0.00  0.00    +0.000 HD
BRANCH  10  13
ATOM     13  C   UNL     1      44.410   5.045  12.091  0.00  0.00    +0.000 A 
ATOM     14  N   UNL     1      44.428   4.059  13.077  0.00  0.00    +0.000 NA
ATOM     15  C   UNL     1      43.733   3.059  12.582  0.00  0.00    +0.000 A 
ATOM     16  N   UNL     1      43.271   3.339  11.329  0.00  0.00    +0.000 N 
ATOM     17  C   UNL     1      43.696   4.597  10.990  0.00  0.00    +0.000 A 
ATOM     18  H   UNL     1      42.708   2.720  10.760  0.00  0.00    +0.000 HD
BRANCH  17  19
ATOM     19  O   UNL     1      43.415   5.164   9.824  0.00  0.00    +0.000 OA
ATOM     20  H   UNL     1      42.468   5.360   9.748  0.00  0.00    +0.000 HD
ENDBRANCH  17  19
ENDBRANCH  10  13
ENDBRANCH   8   9
ENDBRANCH   5   8
ENDBRANCH   1   2
BRANCH   1  21
ATOM     21  N   UNL     1      52.510   8.144  10.503  0.00  0.00    +0.000 N 
ATOM     22  C   UNL     1      53.275   8.823   9.586  0.00  0.00    +0.000 C 
ATOM     23  O   UNL     1      53.862   9.865   9.864  0.00  0.00    +0.000 OA
ATOM     24  H   UNL     1      51.880   7.424  10.171  0.00  0.00    +0.000 HD
BRANCH  22  25
ATOM     25  C   UNL     1      53.416   8.204   8.262  0.00  0.00    +0.000 A 
ATOM     26  C   UNL     1      53.358   9.006   7.130  0.00  0.00    +0.000 A 
ATOM     27  S   UNL     1      53.575   8.151   5.672  0.00  0.00    +0.000 S 
ATOM     28  C   UNL     1      53.704   6.669   6.496  0.00  0.00    +0.000 A 
ATOM     29  N   UNL     1      53.875   5.503   5.816  0.00  0.00    +0.000 NA
ATOM     30  C   UNL     1      53.909   4.451   6.561  0.00  0.00    +0.000 A 
ATOM     31  N   UNL     1      53.804   4.458   7.928  0.00  0.00    +0.000 N 
ATOM     32  C   UNL     1      53.710   5.617   8.660  0.00  0.00    +0.000 A 
ATOM     33  O   UNL     1      53.758   5.601   9.885  0.00  0.00    +0.000 OA
ATOM     34  C   UNL     1      53.612   6.828   7.868  0.00  0.00    +0.000 A 
ATOM     35  H   UNL     1      53.868   3.600   8.456  0.00  0.00    +0.000 HD
ENDBRANCH  22  25
ENDBRANCH   1  21
BRANCH   1  36
ATOM     36  N   UNL     1      53.086   7.737  12.645  0.00  0.00    +0.000 NA
ATOM     37  H   UNL     1      53.057   8.090  13.599  0.00  0.00    +0.000 HD
ATOM     38  H   UNL     1      54.058   7.792  12.356  0.00  0.00    +0.000 HD
ENDBRANCH   1  36
TORSDOF 8
ENDMDL
