MODEL 1
REMARK VINA RESULT:    -8.112      0.000      0.000
REMARK INTER + INTRA:         -11.720
REMARK INTER:                 -10.720
REMARK INTRA:                  -1.000
REMARK UNBOUND:                -1.000
REMARK  Name = 
REMARK  7 active torsions:
REMARK  status: ('A' for Active; 'I' for Inactive)
REMARK    1  A    between atoms: C_1  and  C_2
REMARK    2  A    between atoms: C_2  and  C_3
REMARK    3  A    between atoms: C_7  and  C_8
REMARK    4  A    between atoms: C_8  and  C_9
REMARK    5  A    between atoms: C_9  and  N_10
REMARK    6  A    between atoms: C_14  and  C_15
REMARK    7  A    between atoms: C_23  and  O_24
REMARK                            x       y       z     vdW  Elec       q    Type
REMARK                         _______ _______ _______ _____ _____    ______ ____
ROOT
ATOM      1  C   UNL     1      46.937   6.406  12.968  0.00  0.00    +0.000 A 
ATOM      2  C   UNL     1      47.508   5.263  13.550  0.00  0.00    +0.000 A 
ATOM      3  C   UNL     1      46.769   4.084  13.698  0.00  0.00    +0.000 A 
ATOM      4  C   UNL     1      45.439   4.021  13.278  0.00  0.00    +0.000 A 
ATOM      5  C   UNL     1      44.836   5.132  12.684  0.00  0.00    +0.000 A 
ATOM      6  C   UNL     1      45.614   6.294  12.519  0.00  0.00    +0.000 A 
ENDROOT
BRANCH   1   8
ATOM      7  C   UNL     1      48.211   8.018  14.358  0.00  0.00    +0.000 C 
ATOM      8  C   UNL     1      47.695   7.755  12.921  0.00  0.00    +0.000 C 
ATOM      9  C   UNL     1      48.876   7.675  11.917  0.00  0.00    +0.000 C 
ATOM     10  C   UNL     1      49.624   8.999  11.743  0.00  0.00    +0.000 C 
ATOM     11  C   UNL     1      48.693  10.148  11.364  0.00  0.00    +0.000 C 
ATOM     12  C   UNL     1      47.525  10.277  12.332  0.00  0.00    +0.000 C 
ATOM     13  C   UNL     1      46.788   8.952  12.493  0.00  0.00    +0.000 C 
BRANCH  11  14
ATOM     14  O   UNL     1      49.426  11.368  11.341  0.00  0.00    +0.000 OA
ATOM     15  H   UNL     1      49.246  11.813  10.496  0.00  0.00    +0.000 HD
ENDBRANCH  11  14
ENDBRANCH   1   8
BRANCH   5  16
ATOM     16  C   UNL     1      43.366   5.083  12.286  0.00  0.00    +0.000 C 
BRANCH  16  17
ATOM     17  C   UNL     1      43.121   4.430  10.918  0.00  0.00    +0.000 C 
BRANCH  17  18
ATOM     18  N   UNL     1      43.927   4.995   9.832  0.00  0.00    +0.000 N 
ATOM     19  C   UNL     1      44.720   3.988   9.226  0.00  0.00    +0.000 A 
ATOM     20  C   UNL     1      45.582   4.306   8.169  0.00  0.00    +0.000 A 
ATOM     21  N   UNL     1      46.373   3.402   7.526  0.00  0.00    +0.000 NA
ATOM     22  C   UNL     1      46.256   2.124   7.986  0.00  0.00    +0.000 A 
ATOM     23  C   UNL     1      45.406   1.786   9.020  0.00  0.00    +0.000 A 
ATOM     24  N   UNL     1      44.630   2.705   9.649  0.00  0.00    +0.000 NA
ATOM     25  H   UNL     1      44.540   5.736  10.163  0.00  0.00    +0.000 HD
BRANCH  22  26
ATOM     26  C   UNL     1      47.081   1.061   7.344  0.00  0.00    +0.000 C 
ATOM     27  N   UNL     1      46.733  -0.225   7.648  0.00  0.00    +0.000 N 
ATOM     28  O   UNL     1      48.010   1.318   6.590  0.00  0.00    +0.000 OA
ATOM     29  H   UNL     1      45.967  -0.411   8.286  0.00  0.00    +0.000 HD
ATOM     30  H   UNL     1      47.265  -0.987   7.253  0.00  0.00    +0.000 HD
ENDBRANCH  22  26
ENDBRANCH  17  18
ENDBRANCH  16  17
ENDBRANCH   5  16
TORSDOF 6
ENDMDL
MODEL 2
REMARK VINA RESULT:    -8.012      3.908      7.547
REMARK INTER + INTRA:         -11.588
REMARK INTER:                 -10.989
REMARK INTRA:                  -0.599
REMARK UNBOUND:                -1.000
REMARK  Name = 
REMARK  7 active torsions:
REMARK  status: ('A' for Active; 'I' for Inactive)
REMARK    1  A    between atoms: C_1  and  C_2
REMARK    2  A    between atoms: C_2  and  C_3
REMARK    3  A    between atoms: C_7  and  C_8
REMARK    4  A    between atoms: C_8  and  C_9
REMARK    5  A    between atoms: C_9  and  N_10
REMARK    6  A    between atoms: C_14  and  C_15
REMARK    7  A    between atoms: C_23  and  O_24
REMARK                            x       y       z     vdW  Elec       q    Type
REMARK                         _______ _______ _______ _____ _____    ______ ____
ROOT
ATOM      1  C   UNL     1      44.947   4.360   9.551  0.00  0.00    +0.000 A 
ATOM      2  C   UNL     1      43.754   3.999  10.197  0.00  0.00    +0.000 A 
ATOM      3  C   UNL     1      43.334   4.658  11.358  0.00  0.00    +0.000 A 
ATOM      4  C   UNL     1      44.102   5.686  11.909  0.00  0.00    +0.000 A 
ATOM      5  C   UNL     1      45.290   6.085  11.291  0.00  0.00    +0.000 A 
ATOM      6  C   UNL     1      45.670   5.426  10.106  0.00  0.00    +0.000 A 
ENDROOT
BRANCH   1   8
ATOM      7  C   UNL     1      44.296   3.341   7.385  0.00  0.00    +0.000 C 
ATOM      8  C   UNL     1      45.492   3.555   8.347  0.00  0.00    +0.000 C 
ATOM      9  C   UNL     1      46.632   4.340   7.644  0.00  0.00    +0.000 C 
ATOM     10  C   UNL     1      47.288   3.572   6.494  0.00  0.00    +0.000 C 
ATOM     11  C   UNL     1      47.791   2.197   6.926  0.00  0.00    +0.000 C 
ATOM     12  C   UNL     1      46.701   1.380   7.607  0.00  0.00    +0.000 C 
ATOM     13  C   UNL     1      46.058   2.157   8.752  0.00  0.00    +0.000 C 
BRANCH  11  14
ATOM     14  O   UNL     1      48.273   1.487   5.790  0.00  0.00    +0.000 OA
ATOM     15  H   UNL     1      48.444   0.568   6.058  0.00  0.00    +0.000 HD
ENDBRANCH  11  14
ENDBRANCH   1   8
BRANCH   5  16
ATOM     16  C   UNL     1      46.159   7.161  11.929  0.00  0.00    +0.000 C 
BRANCH  16  17
ATOM     17  C   UNL     1      47.650   6.799  11.978  0.00  0.00    +0.000 C 
BRANCH  17  18
ATOM     18  N   UNL     1      48.328   7.223  13.207  0.00  0.00    +0.000 N 
ATOM     19  C   UNL     1      48.070   6.306  14.258  0.00  0.00    +0.000 A 
ATOM     20  C   UNL     1      48.611   6.520  15.533  0.00  0.00    +0.000 A 
ATOM     21  N   UNL     1      48.421   5.689  16.596  0.00  0.00    +0.000 NA
ATOM     22  C   UNL     1      47.656   4.594  16.324  0.00  0.00    +0.000 A 
ATOM     23  C   UNL     1      47.121   4.358  15.073  0.00  0.00    +0.000 A 
ATOM     24  N   UNL     1      47.321   5.202  14.029  0.00  0.00    +0.000 NA
ATOM     25  H   UNL     1      48.029   8.149  13.504  0.00  0.00    +0.000 HD
BRANCH  22  26
ATOM     26  C   UNL     1      47.393   3.623  17.424  0.00  0.00    +0.000 C 
ATOM     27  N   UNL     1      48.272   3.657  18.470  0.00  0.00    +0.000 N 
ATOM     28  O   UNL     1      46.450   2.843  17.397  0.00  0.00    +0.000 OA
ATOM     29  H   UNL     1      49.053   4.304  18.461  0.00  0.00    +0.000 HD
ATOM     30  H   UNL     1      48.151   3.011  19.237  0.00  0.00    +0.000 HD
ENDBRANCH  22  26
ENDBRANCH  17  18
ENDBRANCH  16  17
ENDBRANCH   5  16
TORSDOF 6
ENDMDL
MODEL 3
REMARK VINA RESULT:    -7.635      4.613      7.732
REMARK INTER + INTRA:         -11.091
REMARK INTER:                  -9.924
REMARK INTRA:                  -1.167
REMARK UNBOUND:                -1.000
REMARK  Name = 
REMARK  7 active torsions:
REMARK  status: ('A' for Active; 'I' for Inactive)
REMARK    1  A    between atoms: C_1  and  C_2
REMARK    2  A    between atoms: C_2  and  C_3
REMARK    3  A    between atoms: C_7  and  C_8
REMARK    4  A    between atoms: C_8  and  C_9
REMARK    5  A    between atoms: C_9  and  N_10
REMARK    6  A    between atoms: C_14  and  C_15
REMARK    7  A    between atoms: C_23  and  O_24
REMARK                            x       y       z     vdW  Elec       q    Type
REMARK                         _______ _______ _______ _____ _____    ______ ____
ROOT
ATOM      1  C   UNL     1      45.463   7.153  11.601  0.00  0.00    +0.000 A 
ATOM      2  C   UNL     1      44.588   8.225  11.370  0.00  0.00    +0.000 A 
ATOM      3  C   UNL     1      44.951   9.536  11.700  0.00  0.00    +0.000 A 
ATOM      4  C   UNL     1      46.192   9.806  12.280  0.00  0.00    +0.000 A 
ATOM      5  C   UNL     1      47.097   8.768  12.518  0.00  0.00    +0.000 A 
ATOM      6  C   UNL     1      46.718   7.464  12.145  0.00  0.00    +0.000 A 
ENDROOT
BRANCH   1   8
ATOM      7  C   UNL     1      45.503   5.309   9.942  0.00  0.00    +0.000 C 
ATOM      8  C   UNL     1      45.026   5.686  11.367  0.00  0.00    +0.000 C 
ATOM      9  C   UNL     1      45.670   4.755  12.430  0.00  0.00    +0.000 C 
ATOM     10  C   UNL     1      45.217   3.297  12.324  0.00  0.00    +0.000 C 
ATOM     11  C   UNL     1      43.697   3.157  12.359  0.00  0.00    +0.000 C 
ATOM     12  C   UNL     1      43.019   4.040  11.321  0.00  0.00    +0.000 C 
ATOM     13  C   UNL     1      43.479   5.490  11.440  0.00  0.00    +0.000 C 
BRANCH  11  14
ATOM     14  O   UNL     1      43.339   1.798  12.131  0.00  0.00    +0.000 OA
ATOM     15  H   UNL     1      43.860   1.243  12.736  0.00  0.00    +0.000 HD
ENDBRANCH  11  14
ENDBRANCH   1   8
BRANCH   5  16
ATOM     16  C   UNL     1      48.424   9.054  13.210  0.00  0.00    +0.000 C 
BRANCH  16  17
ATOM     17  C   UNL     1      49.261   7.796  13.480  0.00  0.00    +0.000 C 
BRANCH  17  18
ATOM     18  N   UNL     1      49.825   7.729  14.832  0.00  0.00    +0.000 N 
ATOM     19  C   UNL     1      49.236   6.667  15.563  0.00  0.00    +0.000 A 
ATOM     20  C   UNL     1      49.616   6.425  16.890  0.00  0.00    +0.000 A 
ATOM     21  N   UNL     1      49.109   5.424  17.662  0.00  0.00    +0.000 NA
ATOM     22  C   UNL     1      48.186   4.641  17.035  0.00  0.00    +0.000 A 
ATOM     23  C   UNL     1      47.803   4.856  15.725  0.00  0.00    +0.000 A 
ATOM     24  N   UNL     1      48.320   5.862  14.976  0.00  0.00    +0.000 NA
ATOM     25  H   UNL     1      49.679   8.596  15.344  0.00  0.00    +0.000 HD
BRANCH  22  26
ATOM     26  C   UNL     1      47.574   3.516  17.798  0.00  0.00    +0.000 C 
ATOM     27  N   UNL     1      48.199   3.181  18.966  0.00  0.00    +0.000 N 
ATOM     28  O   UNL     1      46.574   2.928  17.408  0.00  0.00    +0.000 OA
ATOM     29  H   UNL     1      49.035   3.676  19.260  0.00  0.00    +0.000 HD
ATOM     30  H   UNL     1      47.837   2.417  19.518  0.00  0.00    +0.000 HD
ENDBRANCH  22  26
ENDBRANCH  17  18
ENDBRANCH  16  17
ENDBRANCH   5  16
TORSDOF 6
ENDMDL
MODEL 4
REMARK VINA RESULT:    -7.150      1.870      2.912
REMARK INTER + INTRA:         -10.449
REMARK INTER:                  -9.564
REMARK INTRA:                  -0.885
REMARK UNBOUND:                -1.000
REMARK  Name = 
REMARK  7 active torsions:
REMARK  status: ('A' for Active; 'I' for Inactive)
REMARK    1  A    between atoms: C_1  and  C_2
REMARK    2  A    between atoms: C_2  and  C_3
REMARK    3  A    between atoms: C_7  and  C_8
REMARK    4  A    between atoms: C_8  and  C_9
REMARK    5  A    between atoms: C_9  and  N_10
REMARK    6  A    between atoms: C_14  and  C_15
REMARK    7  A    between atoms: C_23  and  O_24
REMARK                            x       y       z     vdW  Elec       q    Type
REMARK                         _______ _______ _______ _____ _____    ______ ____
ROOT
ATOM      1  C   UNL     1      46.416   7.353  12.753  0.00  0.00    +0.000 A 
ATOM      2  C   UNL     1      45.719   8.296  11.984  0.00  0.00    +0.000 A 
ATOM      3  C   UNL     1      44.502   7.972  11.374  0.00  0.00    +0.000 A 
ATOM      4  C   UNL     1      43.958   6.693  11.508  0.00  0.00    +0.000 A 
ATOM      5  C   UNL     1      44.615   5.726  12.274  0.00  0.00    +0.000 A 
ATOM      6  C   UNL     1      45.821   6.092  12.903  0.00  0.00    +0.000 A 
ENDROOT
BRANCH   1   8
ATOM      7  C   UNL     1      48.814   7.512  12.136  0.00  0.00    +0.000 C 
ATOM      8  C   UNL     1      47.825   7.652  13.321  0.00  0.00    +0.000 C 
ATOM      9  C   UNL     1      47.874   9.087  13.914  0.00  0.00    +0.000 C 
ATOM     10  C   UNL     1      49.209   9.431  14.578  0.00  0.00    +0.000 C 
ATOM     11  C   UNL     1      49.608   8.413  15.643  0.00  0.00    +0.000 C 
ATOM     12  C   UNL     1      49.592   6.989  15.103  0.00  0.00    +0.000 C 
ATOM     13  C   UNL     1      48.255   6.659  14.447  0.00  0.00    +0.000 C 
BRANCH  11  14
ATOM     14  O   UNL     1      50.910   8.719  16.130  0.00  0.00    +0.000 OA
ATOM     15  H   UNL     1      51.392   7.883  16.250  0.00  0.00    +0.000 HD
ENDBRANCH  11  14
ENDBRANCH   1   8
BRANCH   5  16
ATOM     16  C   UNL     1      44.054   4.313  12.365  0.00  0.00    +0.000 C 
BRANCH  16  17
ATOM     17  C   UNL     1      43.494   3.786  11.036  0.00  0.00    +0.000 C 
BRANCH  17  18
ATOM     18  N   UNL     1      44.007   2.467  10.651  0.00  0.00    +0.000 N 
ATOM     19  C   UNL     1      44.836   2.572   9.506  0.00  0.00    +0.000 A 
ATOM     20  C   UNL     1      45.427   1.429   8.953  0.00  0.00    +0.000 A 
ATOM     21  N   UNL     1      46.243   1.438   7.861  0.00  0.00    +0.000 NA
ATOM     22  C   UNL     1      46.462   2.676   7.334  0.00  0.00    +0.000 A 
ATOM     23  C   UNL     1      45.898   3.817   7.869  0.00  0.00    +0.000 A 
ATOM     24  N   UNL     1      45.086   3.783   8.955  0.00  0.00    +0.000 NA
ATOM     25  H   UNL     1      43.254   1.814  10.447  0.00  0.00    +0.000 HD
BRANCH  22  26
ATOM     26  C   UNL     1      47.344   2.790   6.137  0.00  0.00    +0.000 C 
ATOM     27  N   UNL     1      48.648   2.429   6.324  0.00  0.00    +0.000 N 
ATOM     28  O   UNL     1      46.930   3.181   5.054  0.00  0.00    +0.000 OA
ATOM     29  H   UNL     1      48.969   2.121   7.236  0.00  0.00    +0.000 HD
ATOM     30  H   UNL     1      49.296   2.499   5.551  0.00  0.00    +0.000 HD
ENDBRANCH  22  26
ENDBRANCH  17  18
ENDBRANCH  16  17
ENDBRANCH   5  16
TORSDOF 6
ENDMDL
MODEL 5
REMARK VINA RESULT:    -6.816      1.742      2.703
REMARK INTER + INTRA:         -10.007
REMARK INTER:                  -9.184
REMARK INTRA:                  -0.824
REMARK UNBOUND:                -1.000
REMARK  Name = 
REMARK  7 active torsions:
REMARK  status: ('A' for Active; 'I' for Inactive)
REMARK    1  A    between atoms: C_1  and  C_2
REMARK    2  A    between atoms: C_2  and  C_3
REMARK    3  A    between atoms: C_7  and  C_8
REMARK    4  A    between atoms: C_8  and  C_9
REMARK    5  A    between atoms: C_9  and  N_10
REMARK    6  A    between atoms: C_14  and  C_15
REMARK    7  A    between atoms: C_23  and  O_24
REMARK                            x       y       z     vdW  Elec       q    Type
REMARK                         _______ _______ _______ _____ _____    ______ ____
ROOT
ATOM      1  C   UNL     1      46.523   8.509  12.219  0.00  0.00    +0.000 A 
ATOM      2  C   UNL     1      45.926   9.703  11.784  0.00  0.00    +0.000 A 
ATOM      3  C   UNL     1      44.598   9.726  11.344  0.00  0.00    +0.000 A 
ATOM      4  C   UNL     1      43.837   8.556  11.316  0.00  0.00    +0.000 A 
ATOM      5  C   UNL     1      44.389   7.348  11.751  0.00  0.00    +0.000 A 
ATOM      6  C   UNL     1      45.717   7.362  12.220  0.00  0.00    +0.000 A 
ENDROOT
BRANCH   1   8
ATOM      7  C   UNL     1      48.126   7.606  13.882  0.00  0.00    +0.000 C 
ATOM      8  C   UNL     1      48.026   8.440  12.580  0.00  0.00    +0.000 C 
ATOM      9  C   UNL     1      48.827   7.769  11.432  0.00  0.00    +0.000 C 
ATOM     10  C   UNL     1      50.339   7.743  11.671  0.00  0.00    +0.000 C 
ATOM     11  C   UNL     1      50.906   9.130  11.962  0.00  0.00    +0.000 C 
ATOM     12  C   UNL     1      50.162   9.823  13.095  0.00  0.00    +0.000 C 
ATOM     13  C   UNL     1      48.658   9.844  12.842  0.00  0.00    +0.000 C 
BRANCH  11  14
ATOM     14  O   UNL     1      52.285   9.020  12.298  0.00  0.00    +0.000 OA
ATOM     15  H   UNL     1      52.496   8.076  12.400  0.00  0.00    +0.000 HD
ENDBRANCH  11  14
ENDBRANCH   1   8
BRANCH   5  16
ATOM     16  C   UNL     1      43.580   6.061  11.660  0.00  0.00    +0.000 C 
BRANCH  16  17
ATOM     17  C   UNL     1      43.683   5.366  10.294  0.00  0.00    +0.000 C 
BRANCH  17  18
ATOM     18  N   UNL     1      43.920   3.921  10.375  0.00  0.00    +0.000 N 
ATOM     19  C   UNL     1      44.820   3.508   9.360  0.00  0.00    +0.000 A 
ATOM     20  C   UNL     1      45.182   2.160   9.240  0.00  0.00    +0.000 A 
ATOM     21  N   UNL     1      46.044   1.678   8.301  0.00  0.00    +0.000 NA
ATOM     22  C   UNL     1      46.557   2.628   7.469  0.00  0.00    +0.000 A 
ATOM     23  C   UNL     1      46.222   3.963   7.575  0.00  0.00    +0.000 A 
ATOM     24  N   UNL     1      45.358   4.420   8.516  0.00  0.00    +0.000 NA
ATOM     25  H   UNL     1      43.057   3.391  10.279  0.00  0.00    +0.000 HD
BRANCH  22  26
ATOM     26  C   UNL     1      47.513   2.198   6.408  0.00  0.00    +0.000 C 
ATOM     27  N   UNL     1      47.738   3.104   5.410  0.00  0.00    +0.000 N 
ATOM     28  O   UNL     1      48.064   1.106   6.426  0.00  0.00    +0.000 OA
ATOM     29  H   UNL     1      47.258   3.998   5.411  0.00  0.00    +0.000 HD
ATOM     30  H   UNL     1      48.366   2.862   4.656  0.00  0.00    +0.000 HD
ENDBRANCH  22  26
ENDBRANCH  17  18
ENDBRANCH  16  17
ENDBRANCH   5  16
TORSDOF 6
ENDMDL
MODEL 6
REMARK VINA RESULT:    -6.525      2.498      3.615
REMARK INTER + INTRA:          -9.624
REMARK INTER:                  -8.821
REMARK INTRA:                  -0.803
REMARK UNBOUND:                -1.000
REMARK  Name = 
REMARK  7 active torsions:
REMARK  status: ('A' for Active; 'I' for Inactive)
REMARK    1  A    between atoms: C_1  and  C_2
REMARK    2  A    between atoms: C_2  and  C_3
REMARK    3  A    between atoms: C_7  and  C_8
REMARK    4  A    between atoms: C_8  and  C_9
REMARK    5  A    between atoms: C_9  and  N_10
REMARK    6  A    between atoms: C_14  and  C_15
REMARK    7  A    between atoms: C_23  and  O_24
REMARK                            x       y       z     vdW  Elec       q    Type
REMARK                         _______ _______ _______ _____ _____    ______ ____
ROOT
ATOM      1  C   UNL     1      47.995   7.142  13.680  0.00  0.00    +0.000 A 
ATOM      2  C   UNL     1      48.552   7.480  12.437  0.00  0.00    +0.000 A 
ATOM      3  C   UNL     1      47.855   7.248  11.246  0.00  0.00    +0.000 A 
ATOM      4  C   UNL     1      46.587   6.661  11.268  0.00  0.00    +0.000 A 
ATOM      5  C   UNL     1      45.992   6.319  12.484  0.00  0.00    +0.000 A 
ATOM      6  C   UNL     1      46.704   6.595  13.668  0.00  0.00    +0.000 A 
ENDROOT
BRANCH   1   8
ATOM      7  C   UNL     1      48.328   8.570  15.680  0.00  0.00    +0.000 C 
ATOM      8  C   UNL     1      48.806   7.267  14.992  0.00  0.00    +0.000 C 
ATOM      9  C   UNL     1      48.551   6.036  15.904  0.00  0.00    +0.000 C 
ATOM     10  C   UNL     1      49.387   6.038  17.186  0.00  0.00    +0.000 C 
ATOM     11  C   UNL     1      50.881   6.180  16.905  0.00  0.00    +0.000 C 
ATOM     12  C   UNL     1      51.184   7.386  16.027  0.00  0.00    +0.000 C 
ATOM     13  C   UNL     1      50.346   7.369  14.752  0.00  0.00    +0.000 C 
BRANCH  11  14
ATOM     14  O   UNL     1      51.587   6.302  18.136  0.00  0.00    +0.000 OA
ATOM     15  H   UNL     1      52.477   6.642  17.941  0.00  0.00    +0.000 HD
ENDBRANCH  11  14
ENDBRANCH   1   8
BRANCH   5  16
ATOM     16  C   UNL     1      44.638   5.621  12.502  0.00  0.00    +0.000 C 
BRANCH  16  17
ATOM     17  C   UNL     1      44.135   5.219  11.108  0.00  0.00    +0.000 C 
BRANCH  17  18
ATOM     18  N   UNL     1      44.085   3.771  10.884  0.00  0.00    +0.000 N 
ATOM     19  C   UNL     1      44.871   3.415   9.760  0.00  0.00    +0.000 A 
ATOM     20  C   UNL     1      44.960   2.078   9.351  0.00  0.00    +0.000 A 
ATOM     21  N   UNL     1      45.697   1.647   8.289  0.00  0.00    +0.000 NA
ATOM     22  C   UNL     1      46.374   2.634   7.637  0.00  0.00    +0.000 A 
ATOM     23  C   UNL     1      46.309   3.957   8.028  0.00  0.00    +0.000 A 
ATOM     24  N   UNL     1      45.566   4.364   9.087  0.00  0.00    +0.000 NA
ATOM     25  H   UNL     1      43.133   3.445  10.731  0.00  0.00    +0.000 HD
BRANCH  22  26
ATOM     26  C   UNL     1      47.212   2.262   6.461  0.00  0.00    +0.000 C 
ATOM     27  N   UNL     1      47.092   3.071   5.367  0.00  0.00    +0.000 N 
ATOM     28  O   UNL     1      47.961   1.295   6.471  0.00  0.00    +0.000 OA
ATOM     29  H   UNL     1      46.453   3.859   5.380  0.00  0.00    +0.000 HD
ATOM     30  H   UNL     1      47.624   2.859   4.535  0.00  0.00    +0.000 HD
ENDBRANCH  22  26
ENDBRANCH  17  18
ENDBRANCH  16  17
ENDBRANCH   5  16
TORSDOF 6
ENDMDL
MODEL 7
REMARK VINA RESULT:    -6.506      4.367      7.086
REMARK INTER + INTRA:          -9.598
REMARK INTER:                  -8.347
REMARK INTRA:                  -1.251
REMARK UNBOUND:                -1.000
REMARK  Name = 
REMARK  7 active torsions:
REMARK  status: ('A' for Active; 'I' for Inactive)
REMARK    1  A    between atoms: C_1  and  C_2
REMARK    2  A    between atoms: C_2  and  C_3
REMARK    3  A    between atoms: C_7  and  C_8
REMARK    4  A    between atoms: C_8  and  C_9
REMARK    5  A    between atoms: C_9  and  N_10
REMARK    6  A    between atoms: C_14  and  C_15
REMARK    7  A    between atoms: C_23  and  O_24
REMARK                            x       y       z     vdW  Elec       q    Type
REMARK                         _______ _______ _______ _____ _____    ______ ____
ROOT
ATOM      1  C   UNL     1      50.492   6.469  16.369  0.00  0.00    +0.000 A 
ATOM      2  C   UNL     1      51.854   6.393  16.697  0.00  0.00    +0.000 A 
ATOM      3  C   UNL     1      52.816   7.078  15.946  0.00  0.00    +0.000 A 
ATOM      4  C   UNL     1      52.442   7.846  14.841  0.00  0.00    +0.000 A 
ATOM      5  C   UNL     1      51.095   7.956  14.486  0.00  0.00    +0.000 A 
ATOM      6  C   UNL     1      50.147   7.283  15.280  0.00  0.00    +0.000 A 
ENDROOT
BRANCH   1   8
ATOM      7  C   UNL     1      49.074   6.379  18.402  0.00  0.00    +0.000 C 
ATOM      8  C   UNL     1      49.433   5.613  17.104  0.00  0.00    +0.000 C 
ATOM      9  C   UNL     1      48.178   5.422  16.211  0.00  0.00    +0.000 C 
ATOM     10  C   UNL     1      47.116   4.510  16.831  0.00  0.00    +0.000 C 
ATOM     11  C   UNL     1      47.681   3.150  17.233  0.00  0.00    +0.000 C 
ATOM     12  C   UNL     1      48.907   3.285  18.126  0.00  0.00    +0.000 C 
ATOM     13  C   UNL     1      49.957   4.194  17.495  0.00  0.00    +0.000 C 
BRANCH  11  14
ATOM     14  O   UNL     1      46.680   2.401  17.914  0.00  0.00    +0.000 OA
ATOM     15  H   UNL     1      46.030   3.026  18.276  0.00  0.00    +0.000 HD
ENDBRANCH  11  14
ENDBRANCH   1   8
BRANCH   5  16
ATOM     16  C   UNL     1      50.694   8.740  13.243  0.00  0.00    +0.000 C 
BRANCH  16  17
ATOM     17  C   UNL     1      49.672   8.011  12.360  0.00  0.00    +0.000 C 
BRANCH  17  18
ATOM     18  N   UNL     1      48.366   8.674  12.283  0.00  0.00    +0.000 N 
ATOM     19  C   UNL     1      47.321   7.737  12.480  0.00  0.00    +0.000 A 
ATOM     20  C   UNL     1      45.983   8.149  12.436  0.00  0.00    +0.000 A 
ATOM     21  N   UNL     1      44.918   7.319  12.622  0.00  0.00    +0.000 NA
ATOM     22  C   UNL     1      45.253   6.022  12.874  0.00  0.00    +0.000 A 
ATOM     23  C   UNL     1      46.565   5.596  12.932  0.00  0.00    +0.000 A 
ATOM     24  N   UNL     1      47.610   6.440  12.740  0.00  0.00    +0.000 NA
ATOM     25  H   UNL     1      48.227   9.131  11.384  0.00  0.00    +0.000 HD
BRANCH  22  26
ATOM     26  C   UNL     1      44.156   5.037  13.094  0.00  0.00    +0.000 C 
ATOM     27  N   UNL     1      42.889   5.549  13.094  0.00  0.00    +0.000 N 
ATOM     28  O   UNL     1      44.371   3.844  13.262  0.00  0.00    +0.000 OA
ATOM     29  H   UNL     1      42.738   6.544  12.966  0.00  0.00    +0.000 HD
ATOM     30  H   UNL     1      42.106   4.930  13.253  0.00  0.00    +0.000 HD
ENDBRANCH  22  26
ENDBRANCH  17  18
ENDBRANCH  16  17
ENDBRANCH   5  16
TORSDOF 6
ENDMDL
MODEL 8
REMARK VINA RESULT:    -6.479      3.371      4.605
REMARK INTER + INTRA:          -9.562
REMARK INTER:                  -8.775
REMARK INTRA:                  -0.787
REMARK UNBOUND:                -1.000
REMARK  Name = 
REMARK  7 active torsions:
REMARK  status: ('A' for Active; 'I' for Inactive)
REMARK    1  A    between atoms: C_1  and  C_2
REMARK    2  A    between atoms: C_2  and  C_3
REMARK    3  A    between atoms: C_7  and  C_8
REMARK    4  A    between atoms: C_8  and  C_9
REMARK    5  A    between atoms: C_9  and  N_10
REMARK    6  A    between atoms: C_14  and  C_15
REMARK    7  A    between atoms: C_23  and  O_24
REMARK                            x       y       z     vdW  Elec       q    Type
REMARK                         _______ _______ _______ _____ _____    ______ ____
ROOT
ATOM      1  C   UNL     1      47.574   5.336  15.111  0.00  0.00    +0.000 A 
ATOM      2  C   UNL     1      48.087   6.327  14.260  0.00  0.00    +0.000 A 
ATOM      3  C   UNL     1      47.454   6.637  13.051  0.00  0.00    +0.000 A 
ATOM      4  C   UNL     1      46.299   5.957  12.658  0.00  0.00    +0.000 A 
ATOM      5  C   UNL     1      45.750   4.971  13.481  0.00  0.00    +0.000 A 
ATOM      6  C   UNL     1      46.390   4.703  14.706  0.00  0.00    +0.000 A 
ENDROOT
BRANCH   1   8
ATOM      7  C   UNL     1      47.398   5.188  17.581  0.00  0.00    +0.000 C 
ATOM      8  C   UNL     1      48.334   4.888  16.383  0.00  0.00    +0.000 C 
ATOM      9  C   UNL     1      48.666   3.373  16.308  0.00  0.00    +0.000 C 
ATOM     10  C   UNL     1      49.498   2.867  17.489  0.00  0.00    +0.000 C 
ATOM     11  C   UNL     1      50.779   3.674  17.684  0.00  0.00    +0.000 C 
ATOM     12  C   UNL     1      50.503   5.168  17.781  0.00  0.00    +0.000 C 
ATOM     13  C   UNL     1      49.676   5.657  16.597  0.00  0.00    +0.000 C 
BRANCH  11  14
ATOM     14  O   UNL     1      51.441   3.237  18.867  0.00  0.00    +0.000 OA
ATOM     15  H   UNL     1      51.518   3.998  19.468  0.00  0.00    +0.000 HD
ENDBRANCH  11  14
ENDBRANCH   1   8
BRANCH   5  16
ATOM     16  C   UNL     1      44.529   4.185  13.020  0.00  0.00    +0.000 C 
BRANCH  16  17
ATOM     17  C   UNL     1      44.367   4.138  11.494  0.00  0.00    +0.000 C 
BRANCH  17  18
ATOM     18  N   UNL     1      44.449   2.790  10.924  0.00  0.00    +0.000 N 
ATOM     19  C   UNL     1      45.158   2.812   9.696  0.00  0.00    +0.000 A 
ATOM     20  C   UNL     1      45.347   1.631   8.967  0.00  0.00    +0.000 A 
ATOM     21  N   UNL     1      46.021   1.560   7.784  0.00  0.00    +0.000 NA
ATOM     22  C   UNL     1      46.525   2.749   7.351  0.00  0.00    +0.000 A 
ATOM     23  C   UNL     1      46.358   3.924   8.059  0.00  0.00    +0.000 A 
ATOM     24  N   UNL     1      45.681   3.972   9.233  0.00  0.00    +0.000 NA
ATOM     25  H   UNL     1      43.527   2.393  10.759  0.00  0.00    +0.000 HD
BRANCH  22  26
ATOM     26  C   UNL     1      47.280   2.774   6.066  0.00  0.00    +0.000 C 
ATOM     27  N   UNL     1      48.634   2.618   6.170  0.00  0.00    +0.000 N 
ATOM     28  O   UNL     1      46.728   2.922   4.984  0.00  0.00    +0.000 OA
ATOM     29  H   UNL     1      49.069   2.511   7.081  0.00  0.00    +0.000 HD
ATOM     30  H   UNL     1      49.199   2.641   5.334  0.00  0.00    +0.000 HD
ENDBRANCH  22  26
ENDBRANCH  17  18
ENDBRANCH  16  17
ENDBRANCH   5  16
TORSDOF 6
ENDMDL
MODEL 9
REMARK VINA RESULT:    -6.302      5.183      7.944
REMARK INTER + INTRA:          -9.328
REMARK INTER:                  -8.569
REMARK INTRA:                  -0.758
REMARK UNBOUND:                -1.000
REMARK  Name = 
REMARK  7 active torsions:
REMARK  status: ('A' for Active; 'I' for Inactive)
REMARK    1  A    between atoms: C_1  and  C_2
REMARK    2  A    between atoms: C_2  and  C_3
REMARK    3  A    between atoms: C_7  and  C_8
REMARK    4  A    between atoms: C_8  and  C_9
REMARK    5  A    between atoms: C_9  and  N_10
REMARK    6  A    between atoms: C_14  and  C_15
REMARK    7  A    between atoms: C_23  and  O_24
REMARK                            x       y       z     vdW  Elec       q    Type
REMARK                         _______ _______ _______ _____ _____    ______ ____
ROOT
ATOM      1  C   UNL     1      46.854   6.840  12.379  0.00  0.00    +0.000 A 
ATOM      2  C   UNL     1      47.823   7.080  11.392  0.00  0.00    +0.000 A 
ATOM      3  C   UNL     1      48.964   7.840  11.671  0.00  0.00    +0.000 A 
ATOM      4  C   UNL     1      49.159   8.389  12.940  0.00  0.00    +0.000 A 
ATOM      5  C   UNL     1      48.225   8.166  13.954  0.00  0.00    +0.000 A 
ATOM      6  C   UNL     1      47.103   7.370  13.653  0.00  0.00    +0.000 A 
ENDROOT
BRANCH   1   8
ATOM      7  C   UNL     1      44.487   7.227  11.747  0.00  0.00    +0.000 C 
ATOM      8  C   UNL     1      45.525   6.118  12.050  0.00  0.00    +0.000 C 
ATOM      9  C   UNL     1      45.708   5.183  10.824  0.00  0.00    +0.000 C 
ATOM     10  C   UNL     1      44.461   4.361  10.487  0.00  0.00    +0.000 C 
ATOM     11  C   UNL     1      43.952   3.561  11.683  0.00  0.00    +0.000 C 
ATOM     12  C   UNL     1      43.741   4.439  12.909  0.00  0.00    +0.000 C 
ATOM     13  C   UNL     1      44.991   5.250  13.233  0.00  0.00    +0.000 C 
BRANCH  11  14
ATOM     14  O   UNL     1      42.727   2.922  11.342  0.00  0.00    +0.000 OA
ATOM     15  H   UNL     1      42.775   1.997  11.639  0.00  0.00    +0.000 HD
ENDBRANCH  11  14
ENDBRANCH   1   8
BRANCH   5  16
ATOM     16  C   UNL     1      48.406   8.819  15.319  0.00  0.00    +0.000 C 
BRANCH  16  17
ATOM     17  C   UNL     1      49.042   7.893  16.365  0.00  0.00    +0.000 C 
BRANCH  17  18
ATOM     18  N   UNL     1      48.280   6.666  16.619  0.00  0.00    +0.000 N 
ATOM     19  C   UNL     1      49.156   5.588  16.903  0.00  0.00    +0.000 A 
ATOM     20  C   UNL     1      48.644   4.310  17.166  0.00  0.00    +0.000 A 
ATOM     21  N   UNL     1      49.411   3.221  17.455  0.00  0.00    +0.000 NA
ATOM     22  C   UNL     1      50.751   3.469  17.484  0.00  0.00    +0.000 A 
ATOM     23  C   UNL     1      51.277   4.722  17.237  0.00  0.00    +0.000 A 
ATOM     24  N   UNL     1      50.494   5.791  16.948  0.00  0.00    +0.000 NA
ATOM     25  H   UNL     1      47.698   6.411  15.825  0.00  0.00    +0.000 HD
BRANCH  22  26
ATOM     26  C   UNL     1      51.674   2.339  17.794  0.00  0.00    +0.000 C 
ATOM     27  N   UNL     1      51.143   1.087  17.665  0.00  0.00    +0.000 N 
ATOM     28  O   UNL     1      52.834   2.517  18.140  0.00  0.00    +0.000 OA
ATOM     29  H   UNL     1      50.174   0.966  17.389  0.00  0.00    +0.000 HD
ATOM     30  H   UNL     1      51.718   0.283  17.876  0.00  0.00    +0.000 HD
ENDBRANCH  22  26
ENDBRANCH  17  18
ENDBRANCH  16  17
ENDBRANCH   5  16
TORSDOF 6
ENDMDL
