MODEL 1
REMARK VINA RESULT:    -7.270      0.000      0.000
REMARK INTER + INTRA:         -11.156
REMARK INTER:                  -9.820
REMARK INTRA:                  -1.336
REMARK UNBOUND:                -1.336
REMARK  Name = 
REMARK  6 active torsions:
REMARK  status: ('A' for Active; 'I' for Inactive)
REMARK    1  A    between atoms: C_2  and  C_20
REMARK    2  A    between atoms: N_3  and  C_4
REMARK    3  A    between atoms: C_4  and  C_5
REMARK    4  A    between atoms: C_8  and  C_9
REMARK    5  A    between atoms: C_9  and  N_10
REMARK    6  A    between atoms: C_11  and  C_13
REMARK                            x       y       z     vdW  Elec       q    Type
REMARK                         _______ _______ _______ _____ _____    ______ ____
ROOT
ATOM      1  C   UNL     1      46.637   7.859  12.896  0.00  0.00    +0.000 C 
ENDROOT
BRANCH   1   2
ATOM      2  C   UNL     1      45.902   6.851  12.048  0.00  0.00    +0.000 A 
ATOM      3  C   UNL     1      44.760   6.205  12.540  0.00  0.00    +0.000 A 
ATOM      4  C   UNL     1      44.094   5.246  11.768  0.00  0.00    +0.000 A 
ATOM      5  C   UNL     1      44.569   4.896  10.498  0.00  0.00    +0.000 A 
ATOM      6  C   UNL     1      45.712   5.540  10.007  0.00  0.00    +0.000 A 
ATOM      7  C   UNL     1      46.379   6.500  10.778  0.00  0.00    +0.000 A 
BRANCH   5   8
ATOM      8  C   UNL     1      43.881   3.830   9.686  0.00  0.00    +0.000 C 
BRANCH   8   9
ATOM      9  N   UNL     1      44.579   3.517   8.464  0.00  0.00    +0.000 N 
ATOM     10  C   UNL     1      45.218   2.302   8.323  0.00  0.00    +0.000 C 
ATOM     11  O   UNL     1      45.313   1.487   9.238  0.00  0.00    +0.000 OA
ATOM     12  H   UNL     1      44.354   4.013   7.606  0.00  0.00    +0.000 HD
BRANCH  10  13
ATOM     13  C   UNL     1      45.867   2.098   6.940  0.00  0.00    +0.000 C 
ATOM     14  C   UNL     1      46.381   3.396   6.336  0.00  0.00    +0.000 C 
ATOM     15  C   UNL     1      47.814   3.419   6.806  0.00  0.00    +0.000 C 
ATOM     16  C   UNL     1      48.189   1.954   6.763  0.00  0.00    +0.000 C 
ATOM     17  O   UNL     1      46.993   1.206   7.029  0.00  0.00    +0.000 OA
ENDBRANCH  10  13
ENDBRANCH   8   9
ENDBRANCH   5   8
ENDBRANCH   1   2
BRANCH   1  20
ATOM     18  O   UNL     1      49.156   6.695  13.210  0.00  0.00    +0.000 OA
ATOM     19  C   UNL     1      48.413   6.758  14.184  0.00  0.00    +0.000 C 
ATOM     20  N   UNL     1      47.135   7.247  14.102  0.00  0.00    +0.000 N 
ATOM     21  H   UNL     1      46.638   7.474  14.956  0.00  0.00    +0.000 HD
BRANCH  19  22
ATOM     22  C   UNL     1      48.831   6.271  15.505  0.00  0.00    +0.000 A 
ATOM     23  C   UNL     1      49.843   6.923  16.198  0.00  0.00    +0.000 A 
ATOM     24  S   UNL     1      50.224   6.194  17.694  0.00  0.00    +0.000 S 
ATOM     25  C   UNL     1      49.018   5.013  17.493  0.00  0.00    +0.000 A 
ATOM     26  N   UNL     1      48.795   4.065  18.440  0.00  0.00    +0.000 NA
ATOM     27  C   UNL     1      47.829   3.252  18.168  0.00  0.00    +0.000 A 
ATOM     28  N   UNL     1      47.062   3.298  17.031  0.00  0.00    +0.000 N 
ATOM     29  C   UNL     1      47.268   4.222  16.036  0.00  0.00    +0.000 A 
ATOM     30  O   UNL     1      46.590   4.212  15.013  0.00  0.00    +0.000 OA
ATOM     31  C   UNL     1      48.342   5.163  16.293  0.00  0.00    +0.000 A 
ATOM     32  H   UNL     1      46.324   2.631  16.875  0.00  0.00    +0.000 HD
ENDBRANCH  19  22
ENDBRANCH   1  20
TORSDOF 6
ENDMDL
MODEL 2
REMARK VINA RESULT:    -7.209      1.783      2.218
REMARK INTER + INTRA:         -11.073
REMARK INTER:                 -10.292
REMARK INTRA:                  -0.781
REMARK UNBOUND:                -1.336
REMARK  Name = 
REMARK  6 active torsions:
REMARK  status: ('A' for Active; 'I' for Inactive)
REMARK    1  A    between atoms: C_2  and  C_20
REMARK    2  A    between atoms: N_3  and  C_4
REMARK    3  A    between atoms: C_4  and  C_5
REMARK    4  A    between atoms: C_8  and  C_9
REMARK    5  A    between atoms: C_9  and  N_10
REMARK    6  A    between atoms: C_11  and  C_13
REMARK                            x       y       z     vdW  Elec       q    Type
REMARK                         _______ _______ _______ _____ _____    ______ ____
ROOT
ATOM      1  C   UNL     1      48.447   6.856  13.659  0.00  0.00    +0.000 C 
ENDROOT
BRANCH   1   2
ATOM      2  C   UNL     1      47.169   6.472  12.956  0.00  0.00    +0.000 A 
ATOM      3  C   UNL     1      46.187   5.725  13.621  0.00  0.00    +0.000 A 
ATOM      4  C   UNL     1      45.014   5.340  12.963  0.00  0.00    +0.000 A 
ATOM      5  C   UNL     1      44.807   5.673  11.618  0.00  0.00    +0.000 A 
ATOM      6  C   UNL     1      45.790   6.418  10.953  0.00  0.00    +0.000 A 
ATOM      7  C   UNL     1      46.963   6.804  11.610  0.00  0.00    +0.000 A 
BRANCH   5   8
ATOM      8  C   UNL     1      43.568   5.218  10.895  0.00  0.00    +0.000 C 
BRANCH   8   9
ATOM      9  N   UNL     1      43.859   4.459   9.704  0.00  0.00    +0.000 N 
ATOM     10  C   UNL     1      44.357   3.175   9.805  0.00  0.00    +0.000 C 
ATOM     11  O   UNL     1      44.667   2.662  10.878  0.00  0.00    +0.000 OA
ATOM     12  H   UNL     1      43.423   4.708   8.821  0.00  0.00    +0.000 HD
BRANCH  10  13
ATOM     13  C   UNL     1      44.561   2.480   8.445  0.00  0.00    +0.000 C 
ATOM     14  C   UNL     1      45.037   3.436   7.362  0.00  0.00    +0.000 C 
ATOM     15  C   UNL     1      46.537   3.298   7.455  0.00  0.00    +0.000 C 
ATOM     16  C   UNL     1      46.704   1.833   7.788  0.00  0.00    +0.000 C 
ATOM     17  O   UNL     1      45.550   1.439   8.545  0.00  0.00    +0.000 OA
ENDBRANCH  10  13
ENDBRANCH   8   9
ENDBRANCH   5   8
ENDBRANCH   1   2
BRANCH   1  20
ATOM     18  O   UNL     1      50.499   6.639  15.542  0.00  0.00    +0.000 OA
ATOM     19  C   UNL     1      49.347   6.780  15.942  0.00  0.00    +0.000 C 
ATOM     20  N   UNL     1      48.274   6.822  15.089  0.00  0.00    +0.000 N 
ATOM     21  H   UNL     1      47.380   7.146  15.439  0.00  0.00    +0.000 HD
BRANCH  19  22
ATOM     22  C   UNL     1      49.035   6.871  17.374  0.00  0.00    +0.000 A 
ATOM     23  C   UNL     1      48.718   8.099  17.940  0.00  0.00    +0.000 A 
ATOM     24  S   UNL     1      48.425   8.021  19.620  0.00  0.00    +0.000 S 
ATOM     25  C   UNL     1      48.659   6.337  19.642  0.00  0.00    +0.000 A 
ATOM     26  N   UNL     1      48.535   5.623  20.791  0.00  0.00    +0.000 NA
ATOM     27  C   UNL     1      48.710   4.351  20.654  0.00  0.00    +0.000 A 
ATOM     28  N   UNL     1      49.001   3.723  19.468  0.00  0.00    +0.000 N 
ATOM     29  C   UNL     1      49.161   4.407  18.288  0.00  0.00    +0.000 A 
ATOM     30  O   UNL     1      49.460   3.820  17.252  0.00  0.00    +0.000 OA
ATOM     31  C   UNL     1      48.972   5.842  18.386  0.00  0.00    +0.000 A 
ATOM     32  H   UNL     1      49.131   2.725  19.428  0.00  0.00    +0.000 HD
ENDBRANCH  19  22
ENDBRANCH   1  20
TORSDOF 6
ENDMDL
MODEL 3
REMARK VINA RESULT:    -7.208      2.603      3.125
REMARK INTER + INTRA:         -11.072
REMARK INTER:                 -10.360
REMARK INTRA:                  -0.712
REMARK UNBOUND:                -1.336
REMARK  Name = 
REMARK  6 active torsions:
REMARK  status: ('A' for Active; 'I' for Inactive)
REMARK    1  A    between atoms: C_2  and  C_20
REMARK    2  A    between atoms: N_3  and  C_4
REMARK    3  A    between atoms: C_4  and  C_5
REMARK    4  A    between atoms: C_8  and  C_9
REMARK    5  A    between atoms: C_9  and  N_10
REMARK    6  A    between atoms: C_11  and  C_13
REMARK                            x       y       z     vdW  Elec       q    Type
REMARK                         _______ _______ _______ _____ _____    ______ ____
ROOT
ATOM      1  C   UNL     1      47.216   4.141  14.790  0.00  0.00    +0.000 C 
ENDROOT
BRANCH   1   2
ATOM      2  C   UNL     1      46.327   4.344  13.588  0.00  0.00    +0.000 A 
ATOM      3  C   UNL     1      45.797   3.244  12.901  0.00  0.00    +0.000 A 
ATOM      4  C   UNL     1      44.997   3.428  11.768  0.00  0.00    +0.000 A 
ATOM      5  C   UNL     1      44.730   4.715  11.283  0.00  0.00    +0.000 A 
ATOM      6  C   UNL     1      45.262   5.814  11.969  0.00  0.00    +0.000 A 
ATOM      7  C   UNL     1      46.061   5.631  13.103  0.00  0.00    +0.000 A 
BRANCH   5   8
ATOM      8  C   UNL     1      43.910   4.912  10.036  0.00  0.00    +0.000 C 
BRANCH   8   9
ATOM      9  N   UNL     1      44.183   3.925   9.022  0.00  0.00    +0.000 N 
ATOM     10  C   UNL     1      45.314   4.033   8.237  0.00  0.00    +0.000 C 
ATOM     11  O   UNL     1      46.071   4.999   8.287  0.00  0.00    +0.000 OA
ATOM     12  H   UNL     1      43.755   3.005   9.076  0.00  0.00    +0.000 HD
BRANCH  10  13
ATOM     13  C   UNL     1      45.492   2.870   7.241  0.00  0.00    +0.000 C 
ATOM     14  C   UNL     1      46.552   3.157   6.188  0.00  0.00    +0.000 C 
ATOM     15  C   UNL     1      47.791   2.571   6.817  0.00  0.00    +0.000 C 
ATOM     16  C   UNL     1      47.243   1.357   7.534  0.00  0.00    +0.000 C 
ATOM     17  O   UNL     1      45.898   1.670   7.923  0.00  0.00    +0.000 OA
ENDBRANCH  10  13
ENDBRANCH   8   9
ENDBRANCH   5   8
ENDBRANCH   1   2
BRANCH   1  20
ATOM     18  O   UNL     1      49.230   4.588  16.673  0.00  0.00    +0.000 OA
ATOM     19  C   UNL     1      48.552   5.541  16.301  0.00  0.00    +0.000 C 
ATOM     20  N   UNL     1      47.497   5.398  15.436  0.00  0.00    +0.000 N 
ATOM     21  H   UNL     1      47.104   6.222  14.998  0.00  0.00    +0.000 HD
BRANCH  19  22
ATOM     22  C   UNL     1      48.798   6.901  16.795  0.00  0.00    +0.000 A 
ATOM     23  C   UNL     1      49.478   7.817  16.001  0.00  0.00    +0.000 A 
ATOM     24  S   UNL     1      49.709   9.332  16.752  0.00  0.00    +0.000 S 
ATOM     25  C   UNL     1      48.864   8.837  18.143  0.00  0.00    +0.000 A 
ATOM     26  N   UNL     1      48.678   9.681  19.192  0.00  0.00    +0.000 NA
ATOM     27  C   UNL     1      47.994   9.181  20.167  0.00  0.00    +0.000 A 
ATOM     28  N   UNL     1      47.479   7.909  20.191  0.00  0.00    +0.000 N 
ATOM     29  C   UNL     1      47.664   7.014  19.166  0.00  0.00    +0.000 A 
ATOM     30  O   UNL     1      47.223   5.871  19.237  0.00  0.00    +0.000 OA
ATOM     31  C   UNL     1      48.425   7.528  18.043  0.00  0.00    +0.000 A 
ATOM     32  H   UNL     1      46.956   7.576  20.986  0.00  0.00    +0.000 HD
ENDBRANCH  19  22
ENDBRANCH   1  20
TORSDOF 6
ENDMDL
MODEL 4
REMARK VINA RESULT:    -7.204      2.379      3.551
REMARK INTER + INTRA:         -11.067
REMARK INTER:                 -10.090
REMARK INTRA:                  -0.977
REMARK UNBOUND:                -1.336
REMARK  Name = 
REMARK  6 active torsions:
REMARK  status: ('A' for Active; 'I' for Inactive)
REMARK    1  A    between atoms: C_2  and  C_20
REMARK    2  A    between atoms: N_3  and  C_4
REMARK    3  A    between atoms: C_4  and  C_5
REMARK    4  A    between atoms: C_8  and  C_9
REMARK    5  A    between atoms: C_9  and  N_10
REMARK    6  A    between atoms: C_11  and  C_13
REMARK                            x       y       z     vdW  Elec       q    Type
REMARK                         _______ _______ _______ _____ _____    ______ ____
ROOT
ATOM      1  C   UNL     1      47.445   3.991  15.155  0.00  0.00    +0.000 C 
ENDROOT
BRANCH   1   2
ATOM      2  C   UNL     1      46.670   4.312  13.901  0.00  0.00    +0.000 A 
ATOM      3  C   UNL     1      46.523   5.639  13.474  0.00  0.00    +0.000 A 
ATOM      4  C   UNL     1      45.779   5.943  12.329  0.00  0.00    +0.000 A 
ATOM      5  C   UNL     1      45.146   4.930  11.598  0.00  0.00    +0.000 A 
ATOM      6  C   UNL     1      45.290   3.603  12.026  0.00  0.00    +0.000 A 
ATOM      7  C   UNL     1      46.035   3.298  13.172  0.00  0.00    +0.000 A 
BRANCH   5   8
ATOM      8  C   UNL     1      44.305   5.259  10.394  0.00  0.00    +0.000 C 
BRANCH   8   9
ATOM      9  N   UNL     1      44.399   4.265   9.354  0.00  0.00    +0.000 N 
ATOM     10  C   UNL     1      45.441   4.305   8.449  0.00  0.00    +0.000 C 
ATOM     11  O   UNL     1      46.262   5.218   8.417  0.00  0.00    +0.000 OA
ATOM     12  H   UNL     1      43.919   3.375   9.454  0.00  0.00    +0.000 HD
BRANCH  10  13
ATOM     13  C   UNL     1      45.431   3.141   7.439  0.00  0.00    +0.000 C 
ATOM     14  C   UNL     1      46.469   3.309   6.339  0.00  0.00    +0.000 C 
ATOM     15  C   UNL     1      47.655   2.570   6.907  0.00  0.00    +0.000 C 
ATOM     16  C   UNL     1      46.996   1.423   7.640  0.00  0.00    +0.000 C 
ATOM     17  O   UNL     1      45.718   1.892   8.093  0.00  0.00    +0.000 OA
ENDBRANCH  10  13
ENDBRANCH   8   9
ENDBRANCH   5   8
ENDBRANCH   1   2
BRANCH   1  20
ATOM     18  O   UNL     1      49.605   4.664  16.793  0.00  0.00    +0.000 OA
ATOM     19  C   UNL     1      48.647   5.430  16.741  0.00  0.00    +0.000 C 
ATOM     20  N   UNL     1      47.516   5.142  16.020  0.00  0.00    +0.000 N 
ATOM     21  H   UNL     1      46.848   5.881  15.835  0.00  0.00    +0.000 HD
BRANCH  19  22
ATOM     22  C   UNL     1      48.629   6.694  17.486  0.00  0.00    +0.000 A 
ATOM     23  C   UNL     1      48.650   6.682  18.876  0.00  0.00    +0.000 A 
ATOM     24  S   UNL     1      48.583   8.239  19.572  0.00  0.00    +0.000 S 
ATOM     25  C   UNL     1      48.574   8.986  18.045  0.00  0.00    +0.000 A 
ATOM     26  N   UNL     1      48.541  10.339  17.922  0.00  0.00    +0.000 NA
ATOM     27  C   UNL     1      48.569  10.768  16.705  0.00  0.00    +0.000 A 
ATOM     28  N   UNL     1      48.625   9.965  15.592  0.00  0.00    +0.000 N 
ATOM     29  C   UNL     1      48.635   8.594  15.667  0.00  0.00    +0.000 A 
ATOM     30  O   UNL     1      48.646   7.905  14.652  0.00  0.00    +0.000 OA
ATOM     31  C   UNL     1      48.607   8.060  17.016  0.00  0.00    +0.000 A 
ATOM     32  H   UNL     1      48.640  10.362  14.666  0.00  0.00    +0.000 HD
ENDBRANCH  19  22
ENDBRANCH   1  20
TORSDOF 6
ENDMDL
MODEL 5
REMARK VINA RESULT:    -6.620      4.547      9.398
REMARK INTER + INTRA:         -10.278
REMARK INTER:                  -9.364
REMARK INTRA:                  -0.914
REMARK UNBOUND:                -1.336
REMARK  Name = 
REMARK  6 active torsions:
REMARK  status: ('A' for Active; 'I' for Inactive)
REMARK    1  A    between atoms: C_2  and  C_20
REMARK    2  A    between atoms: N_3  and  C_4
REMARK    3  A    between atoms: C_4  and  C_5
REMARK    4  A    between atoms: C_8  and  C_9
REMARK    5  A    between atoms: C_9  and  N_10
REMARK    6  A    between atoms: C_11  and  C_13
REMARK                            x       y       z     vdW  Elec       q    Type
REMARK                         _______ _______ _______ _____ _____    ______ ____
ROOT
ATOM      1  C   UNL     1      47.292   3.528  16.887  0.00  0.00    +0.000 C 
ENDROOT
BRANCH   1   2
ATOM      2  C   UNL     1      48.697   3.694  17.413  0.00  0.00    +0.000 A 
ATOM      3  C   UNL     1      49.064   4.853  18.110  0.00  0.00    +0.000 A 
ATOM      4  C   UNL     1      50.374   5.024  18.571  0.00  0.00    +0.000 A 
ATOM      5  C   UNL     1      51.351   4.051  18.325  0.00  0.00    +0.000 A 
ATOM      6  C   UNL     1      50.984   2.894  17.625  0.00  0.00    +0.000 A 
ATOM      7  C   UNL     1      49.674   2.721  17.164  0.00  0.00    +0.000 A 
BRANCH   5   8
ATOM      8  C   UNL     1      52.772   4.255  18.779  0.00  0.00    +0.000 C 
BRANCH   8   9
ATOM      9  N   UNL     1      53.690   3.310  18.194  0.00  0.00    +0.000 N 
ATOM     10  C   UNL     1      54.303   2.359  18.985  0.00  0.00    +0.000 C 
ATOM     11  O   UNL     1      54.185   2.331  20.207  0.00  0.00    +0.000 OA
ATOM     12  H   UNL     1      53.658   3.118  17.196  0.00  0.00    +0.000 HD
BRANCH  10  13
ATOM     13  C   UNL     1      55.208   1.389  18.201  0.00  0.00    +0.000 C 
ATOM     14  C   UNL     1      55.257   0.001  18.821  0.00  0.00    +0.000 C 
ATOM     15  C   UNL     1      54.154  -0.716  18.083  0.00  0.00    +0.000 C 
ATOM     16  C   UNL     1      54.256  -0.120  16.697  0.00  0.00    +0.000 C 
ATOM     17  O   UNL     1      54.735   1.224  16.851  0.00  0.00    +0.000 OA
ENDBRANCH  10  13
ENDBRANCH   8   9
ENDBRANCH   5   8
ENDBRANCH   1   2
BRANCH   1  20
ATOM     18  O   UNL     1      47.303   3.105  14.126  0.00  0.00    +0.000 OA
ATOM     19  C   UNL     1      46.965   4.206  14.550  0.00  0.00    +0.000 C 
ATOM     20  N   UNL     1      47.001   4.521  15.884  0.00  0.00    +0.000 N 
ATOM     21  H   UNL     1      46.522   5.354  16.207  0.00  0.00    +0.000 HD
BRANCH  19  22
ATOM     22  C   UNL     1      46.538   5.281  13.647  0.00  0.00    +0.000 A 
ATOM     23  C   UNL     1      47.395   6.340  13.373  0.00  0.00    +0.000 A 
ATOM     24  S   UNL     1      46.717   7.516  12.338  0.00  0.00    +0.000 S 
ATOM     25  C   UNL     1      45.275   6.627  12.176  0.00  0.00    +0.000 A 
ATOM     26  N   UNL     1      44.257   7.073  11.395  0.00  0.00    +0.000 NA
ATOM     27  C   UNL     1      43.237   6.283  11.343  0.00  0.00    +0.000 A 
ATOM     28  N   UNL     1      43.140   5.083  12.003  0.00  0.00    +0.000 N 
ATOM     29  C   UNL     1      44.133   4.605  12.823  0.00  0.00    +0.000 A 
ATOM     30  O   UNL     1      43.998   3.547  13.430  0.00  0.00    +0.000 OA
ATOM     31  C   UNL     1      45.305   5.456  12.915  0.00  0.00    +0.000 A 
ATOM     32  H   UNL     1      42.312   4.513  11.924  0.00  0.00    +0.000 HD
ENDBRANCH  19  22
ENDBRANCH   1  20
TORSDOF 6
ENDMDL
MODEL 6
REMARK VINA RESULT:    -6.535      3.620      8.182
REMARK INTER + INTRA:         -10.163
REMARK INTER:                  -9.013
REMARK INTRA:                  -1.150
REMARK UNBOUND:                -1.336
REMARK  Name = 
REMARK  6 active torsions:
REMARK  status: ('A' for Active; 'I' for Inactive)
REMARK    1  A    between atoms: C_2  and  C_20
REMARK    2  A    between atoms: N_3  and  C_4
REMARK    3  A    between atoms: C_4  and  C_5
REMARK    4  A    between atoms: C_8  and  C_9
REMARK    5  A    between atoms: C_9  and  N_10
REMARK    6  A    between atoms: C_11  and  C_13
REMARK                            x       y       z     vdW  Elec       q    Type
REMARK                         _______ _______ _______ _____ _____    ______ ____
ROOT
ATOM      1  C   UNL     1      48.139   8.225  12.039  0.00  0.00    +0.000 C 
ENDROOT
BRANCH   1   2
ATOM      2  C   UNL     1      48.464   8.097  13.506  0.00  0.00    +0.000 A 
ATOM      3  C   UNL     1      47.899   8.976  14.440  0.00  0.00    +0.000 A 
ATOM      4  C   UNL     1      48.222   8.879  15.798  0.00  0.00    +0.000 A 
ATOM      5  C   UNL     1      49.136   7.918  16.249  0.00  0.00    +0.000 A 
ATOM      6  C   UNL     1      49.703   7.041  15.315  0.00  0.00    +0.000 A 
ATOM      7  C   UNL     1      49.380   7.136  13.956  0.00  0.00    +0.000 A 
BRANCH   5   8
ATOM      8  C   UNL     1      49.521   7.845  17.702  0.00  0.00    +0.000 C 
BRANCH   8   9
ATOM      9  N   UNL     1      49.762   6.496  18.152  0.00  0.00    +0.000 N 
ATOM     10  C   UNL     1      48.710   5.712  18.584  0.00  0.00    +0.000 C 
ATOM     11  O   UNL     1      47.564   6.139  18.702  0.00  0.00    +0.000 OA
ATOM     12  H   UNL     1      50.606   6.007  17.870  0.00  0.00    +0.000 HD
BRANCH  10  13
ATOM     13  C   UNL     1      49.124   4.280  18.976  0.00  0.00    +0.000 C 
ATOM     14  C   UNL     1      48.206   3.221  18.384  0.00  0.00    +0.000 C 
ATOM     15  C   UNL     1      48.907   2.879  17.093  0.00  0.00    +0.000 C 
ATOM     16  C   UNL     1      50.364   2.987  17.482  0.00  0.00    +0.000 C 
ATOM     17  O   UNL     1      50.453   3.985  18.509  0.00  0.00    +0.000 OA
ENDBRANCH  10  13
ENDBRANCH   8   9
ENDBRANCH   5   8
ENDBRANCH   1   2
BRANCH   1  20
ATOM     18  O   UNL     1      45.376   7.916  11.770  0.00  0.00    +0.000 OA
ATOM     19  C   UNL     1      46.108   7.005  11.397  0.00  0.00    +0.000 C 
ATOM     20  N   UNL     1      47.469   7.043  11.558  0.00  0.00    +0.000 N 
ATOM     21  H   UNL     1      48.044   6.378  11.054  0.00  0.00    +0.000 HD
BRANCH  19  22
ATOM     22  C   UNL     1      45.567   5.784  10.787  0.00  0.00    +0.000 A 
ATOM     23  C   UNL     1      45.803   5.514   9.444  0.00  0.00    +0.000 A 
ATOM     24  S   UNL     1      45.065   4.075   8.898  0.00  0.00    +0.000 S 
ATOM     25  C   UNL     1      44.448   3.735  10.445  0.00  0.00    +0.000 A 
ATOM     26  N   UNL     1      43.717   2.613  10.681  0.00  0.00    +0.000 NA
ATOM     27  C   UNL     1      43.339   2.469  11.907  0.00  0.00    +0.000 A 
ATOM     28  N   UNL     1      43.623   3.346  12.924  0.00  0.00    +0.000 N 
ATOM     29  C   UNL     1      44.335   4.504  12.727  0.00  0.00    +0.000 A 
ATOM     30  O   UNL     1      44.539   5.287  13.650  0.00  0.00    +0.000 OA
ATOM     31  C   UNL     1      44.787   4.714  11.365  0.00  0.00    +0.000 A 
ATOM     32  H   UNL     1      43.294   3.178  13.862  0.00  0.00    +0.000 HD
ENDBRANCH  19  22
ENDBRANCH   1  20
TORSDOF 6
ENDMDL
MODEL 7
REMARK VINA RESULT:    -6.448      1.736      2.353
REMARK INTER + INTRA:         -10.046
REMARK INTER:                  -8.967
REMARK INTRA:                  -1.080
REMARK UNBOUND:                -1.336
REMARK  Name = 
REMARK  6 active torsions:
REMARK  status: ('A' for Active; 'I' for Inactive)
REMARK    1  A    between atoms: C_2  and  C_20
REMARK    2  A    between atoms: N_3  and  C_4
REMARK    3  A    between atoms: C_4  and  C_5
REMARK    4  A    between atoms: C_8  and  C_9
REMARK    5  A    between atoms: C_9  and  N_10
REMARK    6  A    between atoms: C_11  and  C_13
REMARK                            x       y       z     vdW  Elec       q    Type
REMARK                         _______ _______ _______ _____ _____    ______ ____
ROOT
ATOM      1  C   UNL     1      48.454   8.882  12.529  0.00  0.00    +0.000 C 
ENDROOT
BRANCH   1   2
ATOM      2  C   UNL     1      47.246   8.058  12.157  0.00  0.00    +0.000 A 
ATOM      3  C   UNL     1      45.972   8.413  12.620  0.00  0.00    +0.000 A 
ATOM      4  C   UNL     1      44.854   7.634  12.304  0.00  0.00    +0.000 A 
ATOM      5  C   UNL     1      44.989   6.469  11.537  0.00  0.00    +0.000 A 
ATOM      6  C   UNL     1      46.263   6.112  11.077  0.00  0.00    +0.000 A 
ATOM      7  C   UNL     1      47.382   6.891  11.392  0.00  0.00    +0.000 A 
BRANCH   5   8
ATOM      8  C   UNL     1      43.794   5.603  11.237  0.00  0.00    +0.000 C 
BRANCH   8   9
ATOM      9  N   UNL     1      43.965   4.804  10.049  0.00  0.00    +0.000 N 
ATOM     10  C   UNL     1      44.345   3.481  10.152  0.00  0.00    +0.000 C 
ATOM     11  O   UNL     1      44.650   2.956  11.220  0.00  0.00    +0.000 OA
ATOM     12  H   UNL     1      43.517   5.080   9.179  0.00  0.00    +0.000 HD
BRANCH  10  13
ATOM     13  C   UNL     1      44.427   2.751   8.797  0.00  0.00    +0.000 C 
ATOM     14  C   UNL     1      44.872   3.664   7.665  0.00  0.00    +0.000 C 
ATOM     15  C   UNL     1      46.367   3.461   7.662  0.00  0.00    +0.000 C 
ATOM     16  C   UNL     1      46.492   1.996   8.016  0.00  0.00    +0.000 C 
ATOM     17  O   UNL     1      45.375   1.669   8.855  0.00  0.00    +0.000 OA
ENDBRANCH  10  13
ENDBRANCH   8   9
ENDBRANCH   5   8
ENDBRANCH   1   2
BRANCH   1  20
ATOM     18  O   UNL     1      51.103   8.129  12.997  0.00  0.00    +0.000 OA
ATOM     19  C   UNL     1      50.327   8.167  13.946  0.00  0.00    +0.000 C 
ATOM     20  N   UNL     1      48.995   8.455  13.794  0.00  0.00    +0.000 N 
ATOM     21  H   UNL     1      48.443   8.680  14.614  0.00  0.00    +0.000 HD
BRANCH  19  22
ATOM     22  C   UNL     1      50.766   7.862  15.313  0.00  0.00    +0.000 A 
ATOM     23  C   UNL     1      51.822   8.566  15.878  0.00  0.00    +0.000 A 
ATOM     24  S   UNL     1      52.222   8.050  17.455  0.00  0.00    +0.000 S 
ATOM     25  C   UNL     1      50.966   6.903  17.460  0.00  0.00    +0.000 A 
ATOM     26  N   UNL     1      50.738   6.113  18.543  0.00  0.00    +0.000 NA
ATOM     27  C   UNL     1      49.735   5.310  18.418  0.00  0.00    +0.000 A 
ATOM     28  N   UNL     1      48.935   5.221  17.305  0.00  0.00    +0.000 N 
ATOM     29  C   UNL     1      49.145   5.980  16.179  0.00  0.00    +0.000 A 
ATOM     30  O   UNL     1      48.436   5.848  15.186  0.00  0.00    +0.000 OA
ATOM     31  C   UNL     1      50.260   6.903  16.268  0.00  0.00    +0.000 A 
ATOM     32  H   UNL     1      48.168   4.569  17.268  0.00  0.00    +0.000 HD
ENDBRANCH  19  22
ENDBRANCH   1  20
TORSDOF 6
ENDMDL
MODEL 8
REMARK VINA RESULT:    -6.370      3.129      8.678
REMARK INTER + INTRA:          -9.940
REMARK INTER:                  -8.939
REMARK INTRA:                  -1.001
REMARK UNBOUND:                -1.336
REMARK  Name = 
REMARK  6 active torsions:
REMARK  status: ('A' for Active; 'I' for Inactive)
REMARK    1  A    between atoms: C_2  and  C_20
REMARK    2  A    between atoms: N_3  and  C_4
REMARK    3  A    between atoms: C_4  and  C_5
REMARK    4  A    between atoms: C_8  and  C_9
REMARK    5  A    between atoms: C_9  and  N_10
REMARK    6  A    between atoms: C_11  and  C_13
REMARK                            x       y       z     vdW  Elec       q    Type
REMARK                         _______ _______ _______ _____ _____    ______ ____
ROOT
ATOM      1  C   UNL     1      47.417   7.795  12.082  0.00  0.00    +0.000 C 
ENDROOT
BRANCH   1   2
ATOM      2  C   UNL     1      48.035   7.880  13.456  0.00  0.00    +0.000 A 
ATOM      3  C   UNL     1      47.646   8.886  14.351  0.00  0.00    +0.000 A 
ATOM      4  C   UNL     1      48.239   8.986  15.614  0.00  0.00    +0.000 A 
ATOM      5  C   UNL     1      49.250   8.098  16.001  0.00  0.00    +0.000 A 
ATOM      6  C   UNL     1      49.641   7.094  15.105  0.00  0.00    +0.000 A 
ATOM      7  C   UNL     1      49.048   6.992  13.842  0.00  0.00    +0.000 A 
BRANCH   5   8
ATOM      8  C   UNL     1      49.923   8.235  17.341  0.00  0.00    +0.000 C 
BRANCH   8   9
ATOM      9  N   UNL     1      50.234   6.964  17.945  0.00  0.00    +0.000 N 
ATOM     10  C   UNL     1      49.250   6.246  18.597  0.00  0.00    +0.000 C 
ATOM     11  O   UNL     1      48.117   6.684  18.781  0.00  0.00    +0.000 OA
ATOM     12  H   UNL     1      51.051   6.440  17.642  0.00  0.00    +0.000 HD
BRANCH  10  13
ATOM     13  C   UNL     1      49.729   4.885  19.136  0.00  0.00    +0.000 C 
ATOM     14  C   UNL     1      48.731   3.766  18.876  0.00  0.00    +0.000 C 
ATOM     15  C   UNL     1      49.213   3.212  17.558  0.00  0.00    +0.000 C 
ATOM     16  C   UNL     1      50.714   3.348  17.684  0.00  0.00    +0.000 C 
ATOM     17  O   UNL     1      50.965   4.492  18.513  0.00  0.00    +0.000 OA
ENDBRANCH  10  13
ENDBRANCH   8   9
ENDBRANCH   5   8
ENDBRANCH   1   2
BRANCH   1  20
ATOM     18  O   UNL     1      44.659   7.527  11.732  0.00  0.00    +0.000 OA
ATOM     19  C   UNL     1      45.357   6.519  11.683  0.00  0.00    +0.000 C 
ATOM     20  N   UNL     1      46.709   6.551  11.916  0.00  0.00    +0.000 N 
ATOM     21  H   UNL     1      47.271   5.748  11.662  0.00  0.00    +0.000 HD
BRANCH  19  22
ATOM     22  C   UNL     1      44.783   5.196  11.412  0.00  0.00    +0.000 A 
ATOM     23  C   UNL     1      43.969   4.585  12.358  0.00  0.00    +0.000 A 
ATOM     24  S   UNL     1      43.426   3.035  11.891  0.00  0.00    +0.000 S 
ATOM     25  C   UNL     1      44.216   3.146  10.389  0.00  0.00    +0.000 A 
ATOM     26  N   UNL     1      44.141   2.141   9.478  0.00  0.00    +0.000 NA
ATOM     27  C   UNL     1      44.764   2.374   8.371  0.00  0.00    +0.000 A 
ATOM     28  N   UNL     1      45.460   3.524   8.090  0.00  0.00    +0.000 N 
ATOM     29  C   UNL     1      45.583   4.554   8.989  0.00  0.00    +0.000 A 
ATOM     30  O   UNL     1      46.245   5.552   8.722  0.00  0.00    +0.000 OA
ATOM     31  C   UNL     1      44.898   4.344  10.251  0.00  0.00    +0.000 A 
ATOM     32  H   UNL     1      45.930   3.643   7.206  0.00  0.00    +0.000 HD
ENDBRANCH  19  22
ENDBRANCH   1  20
TORSDOF 6
ENDMDL
MODEL 9
REMARK VINA RESULT:    -6.360      4.473      7.400
REMARK INTER + INTRA:          -9.927
REMARK INTER:                  -8.966
REMARK INTRA:                  -0.960
REMARK UNBOUND:                -1.336
REMARK  Name = 
REMARK  6 active torsions:
REMARK  status: ('A' for Active; 'I' for Inactive)
REMARK    1  A    between atoms: C_2  and  C_20
REMARK    2  A    between atoms: N_3  and  C_4
REMARK    3  A    between atoms: C_4  and  C_5
REMARK    4  A    between atoms: C_8  and  C_9
REMARK    5  A    between atoms: C_9  and  N_10
REMARK    6  A    between atoms: C_11  and  C_13
REMARK                            x       y       z     vdW  Elec       q    Type
REMARK                         _______ _______ _______ _____ _____    ______ ____
ROOT
ATOM      1  C   UNL     1      46.243   8.175  12.926  0.00  0.00    +0.000 C 
ENDROOT
BRANCH   1   2
ATOM      2  C   UNL     1      47.671   8.332  12.465  0.00  0.00    +0.000 A 
ATOM      3  C   UNL     1      48.146   9.577  12.032  0.00  0.00    +0.000 A 
ATOM      4  C   UNL     1      49.460   9.720  11.575  0.00  0.00    +0.000 A 
ATOM      5  C   UNL     1      50.321   8.617  11.518  0.00  0.00    +0.000 A 
ATOM      6  C   UNL     1      49.845   7.371  11.948  0.00  0.00    +0.000 A 
ATOM      7  C   UNL     1      48.530   7.227  12.407  0.00  0.00    +0.000 A 
BRANCH   5   8
ATOM      8  C   UNL     1      51.720   8.759  10.981  0.00  0.00    +0.000 C 
BRANCH   8   9
ATOM      9  N   UNL     1      52.006   7.839   9.908  0.00  0.00    +0.000 N 
ATOM     10  C   UNL     1      53.278   7.323   9.759  0.00  0.00    +0.000 C 
ATOM     11  O   UNL     1      54.231   7.685  10.445  0.00  0.00    +0.000 OA
ATOM     12  H   UNL     1      51.253   7.322   9.464  0.00  0.00    +0.000 HD
BRANCH  10  13
ATOM     13  C   UNL     1      53.406   6.311   8.603  0.00  0.00    +0.000 C 
ATOM     14  C   UNL     1      52.380   6.543   7.504  0.00  0.00    +0.000 C 
ATOM     15  C   UNL     1      53.127   7.448   6.557  0.00  0.00    +0.000 C 
ATOM     16  C   UNL     1      54.540   6.919   6.657  0.00  0.00    +0.000 C 
ATOM     17  O   UNL     1      54.703   6.401   7.985  0.00  0.00    +0.000 OA
ENDBRANCH  10  13
ENDBRANCH   8   9
ENDBRANCH   5   8
ENDBRANCH   1   2
BRANCH   1  20
ATOM     18  O   UNL     1      44.098   7.551  11.249  0.00  0.00    +0.000 OA
ATOM     19  C   UNL     1      44.737   6.632  11.752  0.00  0.00    +0.000 C 
ATOM     20  N   UNL     1      45.757   6.849  12.643  0.00  0.00    +0.000 N 
ATOM     21  H   UNL     1      46.386   6.086  12.866  0.00  0.00    +0.000 HD
BRANCH  19  22
ATOM     22  C   UNL     1      44.422   5.227  11.465  0.00  0.00    +0.000 A 
ATOM     23  C   UNL     1      43.611   4.505  12.331  0.00  0.00    +0.000 A 
ATOM     24  S   UNL     1      43.387   2.880  11.862  0.00  0.00    +0.000 S 
ATOM     25  C   UNL     1      44.322   3.095  10.457  0.00  0.00    +0.000 A 
ATOM     26  N   UNL     1      44.521   2.077   9.580  0.00  0.00    +0.000 NA
ATOM     27  C   UNL     1      45.226   2.391   8.545  0.00  0.00    +0.000 A 
ATOM     28  N   UNL     1      45.753   3.636   8.305  0.00  0.00    +0.000 N 
ATOM     29  C   UNL     1      45.599   4.687   9.175  0.00  0.00    +0.000 A 
ATOM     30  O   UNL     1      46.117   5.777   8.949  0.00  0.00    +0.000 OA
ATOM     31  C   UNL     1      44.811   4.387  10.356  0.00  0.00    +0.000 A 
ATOM     32  H   UNL     1      46.300   3.817   7.477  0.00  0.00    +0.000 HD
ENDBRANCH  19  22
ENDBRANCH   1  20
TORSDOF 6
ENDMDL
