MODEL 1
REMARK VINA RESULT:    -9.429      0.000      0.000
REMARK INTER + INTRA:         -13.965
REMARK INTER:                 -13.563
REMARK INTRA:                  -0.402
REMARK UNBOUND:                -0.402
REMARK  Name = 
REMARK  8 active torsions:
REMARK  status: ('A' for Active; 'I' for Inactive)
REMARK    1  A    between atoms: C_2  and  C_4
REMARK    2  A    between atoms: N_8  and  C_9
REMARK    3  A    between atoms: C_9  and  C_10
REMARK    4  A    between atoms: C_10  and  C_13
REMARK    5  A    between atoms: C_17  and  O_18
REMARK    6  A    between atoms: O_18  and  C_19
REMARK    7  A    between atoms: N_21  and  S_22
REMARK    8  A    between atoms: S_22  and  N_23
REMARK                            x       y       z     vdW  Elec       q    Type
REMARK                         _______ _______ _______ _____ _____    ______ ____
ROOT
ATOM      1  C   UNL     1      43.490   5.368  12.225  0.00  0.00    +0.000 C 
ATOM      2  F   UNL     1      43.003   6.618  11.925  0.00  0.00    +0.000 F 
ATOM      3  F   UNL     1      42.723   4.939  13.273  0.00  0.00    +0.000 F 
ENDROOT
BRANCH   1   4
ATOM      4  C   UNL     1      44.956   5.448  12.627  0.00  0.00    +0.000 A 
ATOM      5  C   UNL     1      45.838   6.430  12.158  0.00  0.00    +0.000 A 
ATOM      6  C   UNL     1      47.156   6.416  12.593  0.00  0.00    +0.000 A 
ATOM      7  N   UNL     1      47.658   5.513  13.460  0.00  0.00    +0.000 NA
ATOM      8  C   UNL     1      46.803   4.573  13.903  0.00  0.00    +0.000 A 
ATOM      9  C   UNL     1      45.470   4.494  13.521  0.00  0.00    +0.000 A 
BRANCH   8  10
ATOM     10  O   UNL     1      47.259   3.668  14.839  0.00  0.00    +0.000 OA
BRANCH  10  11
ATOM     11  C   UNL     1      47.351   4.163  16.199  0.00  0.00    +0.000 C 
ATOM     12  C   UNL     1      48.753   4.656  16.625  0.00  0.00    +0.000 C 
ATOM     13  N   UNL     1      48.612   3.986  17.963  0.00  0.00    +0.000 NA
ATOM     14  C   UNL     1      47.501   3.161  17.369  0.00  0.00    +0.000 C 
BRANCH  13  15
ATOM     15  S   UNL     1      48.467   4.892  19.377  0.00  0.00    +0.000 S 
ATOM     16  O   UNL     1      49.725   5.539  19.635  0.00  0.00    +0.000 OA
ATOM     17  O   UNL     1      47.206   5.590  19.340  0.00  0.00    +0.000 OA
BRANCH  15  18
ATOM     18  N   UNL     1      48.323   3.631  20.446  0.00  0.00    +0.000 NA
ATOM     19  H   UNL     1      48.337   2.733  19.970  0.00  0.00    +0.000 HD
ATOM     20  H   UNL     1      47.592   3.775  21.134  0.00  0.00    +0.000 HD
ENDBRANCH  15  18
ENDBRANCH  13  15
ENDBRANCH  10  11
ENDBRANCH   8  10
ENDBRANCH   1   4
BRANCH   1  21
ATOM     21  C   UNL     1      43.194   4.464  10.996  0.00  0.00    +0.000 C 
BRANCH  21  26
ATOM     22  C   UNL     1      46.257   2.048   7.911  0.00  0.00    +0.000 A 
ATOM     23  C   UNL     1      46.213   3.342   7.400  0.00  0.00    +0.000 A 
ATOM     24  C   UNL     1      45.414   4.295   8.034  0.00  0.00    +0.000 A 
ATOM     25  C   UNL     1      44.684   3.946   9.170  0.00  0.00    +0.000 A 
ATOM     26  N   UNL     1      43.851   4.913   9.752  0.00  0.00    +0.000 N 
ATOM     27  N   UNL     1      44.707   2.688   9.659  0.00  0.00    +0.000 NA
ATOM     28  C   UNL     1      45.479   1.767   9.022  0.00  0.00    +0.000 A 
ATOM     29  H   UNL     1      44.335   5.801   9.865  0.00  0.00    +0.000 HD
BRANCH  22  31
ATOM     30  N   UNL     1      46.759  -0.313   7.669  0.00  0.00    +0.000 N 
ATOM     31  C   UNL     1      47.072   0.970   7.315  0.00  0.00    +0.000 C 
ATOM     32  O   UNL     1      47.960   1.212   6.509  0.00  0.00    +0.000 OA
ATOM     33  H   UNL     1      47.242  -1.049   7.166  0.00  0.00    +0.000 HD
ATOM     34  H   UNL     1      45.886  -0.551   8.114  0.00  0.00    +0.000 HD
ENDBRANCH  22  31
ENDBRANCH  21  26
ENDBRANCH   1  21
TORSDOF 8
ENDMDL
MODEL 2
REMARK VINA RESULT:    -7.980      2.444      3.002
REMARK INTER + INTRA:         -11.881
REMARK INTER:                 -11.394
REMARK INTRA:                  -0.487
REMARK UNBOUND:                -0.402
REMARK  Name = 
REMARK  8 active torsions:
REMARK  status: ('A' for Active; 'I' for Inactive)
REMARK    1  A    between atoms: C_2  and  C_4
REMARK    2  A    between atoms: N_8  and  C_9
REMARK    3  A    between atoms: C_9  and  C_10
REMARK    4  A    between atoms: C_10  and  C_13
REMARK    5  A    between atoms: C_17  and  O_18
REMARK    6  A    between atoms: O_18  and  C_19
REMARK    7  A    between atoms: N_21  and  S_22
REMARK    8  A    between atoms: S_22  and  N_23
REMARK                            x       y       z     vdW  Elec       q    Type
REMARK                         _______ _______ _______ _____ _____    ______ ____
ROOT
ATOM      1  C   UNL     1      43.586   5.229  12.271  0.00  0.00    +0.000 C 
ATOM      2  F   UNL     1      43.332   6.569  12.101  0.00  0.00    +0.000 F 
ATOM      3  F   UNL     1      42.699   4.827  13.232  0.00  0.00    +0.000 F 
ENDROOT
BRANCH   1   4
ATOM      4  C   UNL     1      45.020   5.013  12.737  0.00  0.00    +0.000 A 
ATOM      5  C   UNL     1      45.545   3.762  13.083  0.00  0.00    +0.000 A 
ATOM      6  C   UNL     1      46.869   3.675  13.490  0.00  0.00    +0.000 A 
ATOM      7  N   UNL     1      47.708   4.728  13.570  0.00  0.00    +0.000 NA
ATOM      8  C   UNL     1      47.193   5.926  13.238  0.00  0.00    +0.000 A 
ATOM      9  C   UNL     1      45.880   6.121  12.828  0.00  0.00    +0.000 A 
BRANCH   8  10
ATOM     10  O   UNL     1      48.033   7.021  13.245  0.00  0.00    +0.000 OA
BRANCH  10  11
ATOM     11  C   UNL     1      48.133   7.726  14.509  0.00  0.00    +0.000 C 
ATOM     12  C   UNL     1      49.147   8.894  14.529  0.00  0.00    +0.000 C 
ATOM     13  N   UNL     1      49.636   8.480  15.890  0.00  0.00    +0.000 NA
ATOM     14  C   UNL     1      49.001   7.137  15.646  0.00  0.00    +0.000 C 
BRANCH  13  15
ATOM     15  S   UNL     1      49.342   9.436  17.246  0.00  0.00    +0.000 S 
ATOM     16  O   UNL     1      48.029  10.010  17.124  0.00  0.00    +0.000 OA
ATOM     17  O   UNL     1      49.790   8.717  18.412  0.00  0.00    +0.000 OA
BRANCH  15  18
ATOM     18  N   UNL     1      50.445  10.634  16.928  0.00  0.00    +0.000 NA
ATOM     19  H   UNL     1      50.007  11.440  16.490  0.00  0.00    +0.000 HD
ATOM     20  H   UNL     1      51.298  10.287  16.503  0.00  0.00    +0.000 HD
ENDBRANCH  15  18
ENDBRANCH  13  15
ENDBRANCH  10  11
ENDBRANCH   8  10
ENDBRANCH   1   4
BRANCH   1  21
ATOM     21  C   UNL     1      43.217   4.528  10.935  0.00  0.00    +0.000 C 
BRANCH  21  26
ATOM     22  C   UNL     1      46.322   2.116   7.889  0.00  0.00    +0.000 A 
ATOM     23  C   UNL     1      46.401   3.442   7.472  0.00  0.00    +0.000 A 
ATOM     24  C   UNL     1      45.625   4.404   8.121  0.00  0.00    +0.000 A 
ATOM     25  C   UNL     1      44.795   4.032   9.178  0.00  0.00    +0.000 A 
ATOM     26  N   UNL     1      43.989   5.014   9.772  0.00  0.00    +0.000 N 
ATOM     27  N   UNL     1      44.699   2.745   9.573  0.00  0.00    +0.000 NA
ATOM     28  C   UNL     1      45.451   1.817   8.922  0.00  0.00    +0.000 A 
ATOM     29  H   UNL     1      44.522   5.855   9.982  0.00  0.00    +0.000 HD
BRANCH  22  31
ATOM     30  N   UNL     1      46.795  -0.251   7.648  0.00  0.00    +0.000 N 
ATOM     31  C   UNL     1      47.104   1.026   7.270  0.00  0.00    +0.000 C 
ATOM     32  O   UNL     1      47.960   1.253   6.426  0.00  0.00    +0.000 OA
ATOM     33  H   UNL     1      47.251  -0.995   7.132  0.00  0.00    +0.000 HD
ATOM     34  H   UNL     1      45.938  -0.477   8.130  0.00  0.00    +0.000 HD
ENDBRANCH  22  31
ENDBRANCH  21  26
ENDBRANCH   1  21
TORSDOF 8
ENDMDL
MODEL 3
REMARK VINA RESULT:    -7.768      3.196      9.015
REMARK INTER + INTRA:         -11.576
REMARK INTER:                 -11.172
REMARK INTRA:                  -0.404
REMARK UNBOUND:                -0.402
REMARK  Name = 
REMARK  8 active torsions:
REMARK  status: ('A' for Active; 'I' for Inactive)
REMARK    1  A    between atoms: C_2  and  C_4
REMARK    2  A    between atoms: N_8  and  C_9
REMARK    3  A    between atoms: C_9  and  C_10
REMARK    4  A    between atoms: C_10  and  C_13
REMARK    5  A    between atoms: C_17  and  O_18
REMARK    6  A    between atoms: O_18  and  C_19
REMARK    7  A    between atoms: N_21  and  S_22
REMARK    8  A    between atoms: S_22  and  N_23
REMARK                            x       y       z     vdW  Elec       q    Type
REMARK                         _______ _______ _______ _____ _____    ______ ____
ROOT
ATOM      1  C   UNL     1      46.398   6.341  12.610  0.00  0.00    +0.000 C 
ATOM      2  F   UNL     1      46.150   7.434  13.406  0.00  0.00    +0.000 F 
ATOM      3  F   UNL     1      46.951   6.859  11.472  0.00  0.00    +0.000 F 
ENDROOT
BRANCH   1   4
ATOM      4  C   UNL     1      45.103   5.606  12.294  0.00  0.00    +0.000 A 
ATOM      5  C   UNL     1      43.882   5.876  12.924  0.00  0.00    +0.000 A 
ATOM      6  C   UNL     1      42.758   5.150  12.556  0.00  0.00    +0.000 A 
ATOM      7  N   UNL     1      42.752   4.189  11.609  0.00  0.00    +0.000 NA
ATOM      8  C   UNL     1      43.931   3.936  11.011  0.00  0.00    +0.000 A 
ATOM      9  C   UNL     1      45.114   4.598  11.314  0.00  0.00    +0.000 A 
BRANCH   8  10
ATOM     10  O   UNL     1      43.958   3.005   9.993  0.00  0.00    +0.000 OA
BRANCH  10  11
ATOM     11  C   UNL     1      45.183   2.957   9.218  0.00  0.00    +0.000 C 
ATOM     12  C   UNL     1      45.058   3.463   7.762  0.00  0.00    +0.000 C 
ATOM     13  N   UNL     1      45.904   2.324   7.265  0.00  0.00    +0.000 NA
ATOM     14  C   UNL     1      45.625   1.624   8.568  0.00  0.00    +0.000 C 
BRANCH  13  15
ATOM     15  S   UNL     1      47.448   2.594   6.646  0.00  0.00    +0.000 S 
ATOM     16  O   UNL     1      47.935   3.844   7.163  0.00  0.00    +0.000 OA
ATOM     17  O   UNL     1      48.189   1.359   6.723  0.00  0.00    +0.000 OA
BRANCH  15  18
ATOM     18  N   UNL     1      47.022   2.837   5.061  0.00  0.00    +0.000 NA
ATOM     19  H   UNL     1      47.076   1.977   4.522  0.00  0.00    +0.000 HD
ATOM     20  H   UNL     1      47.451   3.662   4.656  0.00  0.00    +0.000 HD
ENDBRANCH  15  18
ENDBRANCH  13  15
ENDBRANCH  10  11
ENDBRANCH   8  10
ENDBRANCH   1   4
BRANCH   1  21
ATOM     21  C   UNL     1      47.476   5.490  13.338  0.00  0.00    +0.000 C 
BRANCH  21  26
ATOM     22  C   UNL     1      48.527   4.507  18.099  0.00  0.00    +0.000 A 
ATOM     23  C   UNL     1      47.620   3.515  17.741  0.00  0.00    +0.000 A 
ATOM     24  C   UNL     1      47.099   3.506  16.446  0.00  0.00    +0.000 A 
ATOM     25  C   UNL     1      47.500   4.479  15.529  0.00  0.00    +0.000 A 
ATOM     26  N   UNL     1      46.917   4.473  14.253  0.00  0.00    +0.000 N 
ATOM     27  N   UNL     1      48.363   5.456  15.877  0.00  0.00    +0.000 NA
ATOM     28  C   UNL     1      48.851   5.458  17.146  0.00  0.00    +0.000 A 
ATOM     29  H   UNL     1      46.920   3.540  13.847  0.00  0.00    +0.000 HD
BRANCH  22  31
ATOM     30  N   UNL     1      48.577   3.840  20.431  0.00  0.00    +0.000 N 
ATOM     31  C   UNL     1      49.136   4.600  19.441  0.00  0.00    +0.000 C 
ATOM     32  O   UNL     1      50.123   5.293  19.649  0.00  0.00    +0.000 OA
ATOM     33  H   UNL     1      49.072   3.818  21.315  0.00  0.00    +0.000 HD
ATOM     34  H   UNL     1      47.945   3.079  20.233  0.00  0.00    +0.000 HD
ENDBRANCH  22  31
ENDBRANCH  21  26
ENDBRANCH   1  21
TORSDOF 8
ENDMDL
MODEL 4
REMARK VINA RESULT:    -7.756      3.348      9.141
REMARK INTER + INTRA:         -11.559
REMARK INTER:                 -11.468
REMARK INTRA:                  -0.091
REMARK UNBOUND:                -0.402
REMARK  Name = 
REMARK  8 active torsions:
REMARK  status: ('A' for Active; 'I' for Inactive)
REMARK    1  A    between atoms: C_2  and  C_4
REMARK    2  A    between atoms: N_8  and  C_9
REMARK    3  A    between atoms: C_9  and  C_10
REMARK    4  A    between atoms: C_10  and  C_13
REMARK    5  A    between atoms: C_17  and  O_18
REMARK    6  A    between atoms: O_18  and  C_19
REMARK    7  A    between atoms: N_21  and  S_22
REMARK    8  A    between atoms: S_22  and  N_23
REMARK                            x       y       z     vdW  Elec       q    Type
REMARK                         _______ _______ _______ _____ _____    ______ ____
ROOT
ATOM      1  C   UNL     1      46.999   6.657  12.396  0.00  0.00    +0.000 C 
ATOM      2  F   UNL     1      46.363   7.636  13.123  0.00  0.00    +0.000 F 
ATOM      3  F   UNL     1      47.394   7.282  11.246  0.00  0.00    +0.000 F 
ENDROOT
BRANCH   1   4
ATOM      4  C   UNL     1      46.042   5.514  12.088  0.00  0.00    +0.000 A 
ATOM      5  C   UNL     1      45.680   4.531  13.016  0.00  0.00    +0.000 A 
ATOM      6  C   UNL     1      44.794   3.534  12.633  0.00  0.00    +0.000 A 
ATOM      7  N   UNL     1      44.236   3.446  11.408  0.00  0.00    +0.000 NA
ATOM      8  C   UNL     1      44.591   4.396  10.522  0.00  0.00    +0.000 A 
ATOM      9  C   UNL     1      45.477   5.428  10.804  0.00  0.00    +0.000 A 
BRANCH   8  10
ATOM     10  O   UNL     1      43.996   4.380   9.278  0.00  0.00    +0.000 OA
BRANCH  10  11
ATOM     11  C   UNL     1      44.763   3.747   8.222  0.00  0.00    +0.000 C 
ATOM     12  C   UNL     1      45.487   2.442   8.630  0.00  0.00    +0.000 C 
ATOM     13  N   UNL     1      46.720   2.859   7.878  0.00  0.00    +0.000 NA
ATOM     14  C   UNL     1      46.183   4.266   7.893  0.00  0.00    +0.000 C 
BRANCH  13  15
ATOM     15  S   UNL     1      47.205   2.045   6.484  0.00  0.00    +0.000 S 
ATOM     16  O   UNL     1      47.248   0.636   6.771  0.00  0.00    +0.000 OA
ATOM     17  O   UNL     1      46.495   2.607   5.362  0.00  0.00    +0.000 OA
BRANCH  15  18
ATOM     18  N   UNL     1      48.770   2.594   6.428  0.00  0.00    +0.000 NA
ATOM     19  H   UNL     1      49.150   2.545   5.488  0.00  0.00    +0.000 HD
ATOM     20  H   UNL     1      49.346   2.229   7.178  0.00  0.00    +0.000 HD
ENDBRANCH  15  18
ENDBRANCH  13  15
ENDBRANCH  10  11
ENDBRANCH   8  10
ENDBRANCH   1   4
BRANCH   1  21
ATOM     21  C   UNL     1      48.267   6.255  13.199  0.00  0.00    +0.000 C 
BRANCH  21  26
ATOM     22  C   UNL     1      48.699   5.186  18.037  0.00  0.00    +0.000 A 
ATOM     23  C   UNL     1      48.800   6.573  17.986  0.00  0.00    +0.000 A 
ATOM     24  C   UNL     1      48.733   7.214  16.748  0.00  0.00    +0.000 A 
ATOM     25  C   UNL     1      48.556   6.464  15.586  0.00  0.00    +0.000 A 
ATOM     26  N   UNL     1      48.547   7.134  14.353  0.00  0.00    +0.000 N 
ATOM     27  N   UNL     1      48.478   5.117  15.626  0.00  0.00    +0.000 NA
ATOM     28  C   UNL     1      48.559   4.507  16.839  0.00  0.00    +0.000 A 
ATOM     29  H   UNL     1      47.940   7.950  14.379  0.00  0.00    +0.000 HD
BRANCH  22  31
ATOM     30  N   UNL     1      48.281   3.135  19.262  0.00  0.00    +0.000 N 
ATOM     31  C   UNL     1      48.755   4.417  19.297  0.00  0.00    +0.000 C 
ATOM     32  O   UNL     1      49.242   4.890  20.314  0.00  0.00    +0.000 OA
ATOM     33  H   UNL     1      48.432   2.577  20.095  0.00  0.00    +0.000 HD
ATOM     34  H   UNL     1      48.122   2.642  18.396  0.00  0.00    +0.000 HD
ENDBRANCH  22  31
ENDBRANCH  21  26
ENDBRANCH   1  21
TORSDOF 8
ENDMDL
MODEL 5
REMARK VINA RESULT:    -7.335      4.112      4.944
REMARK INTER + INTRA:         -10.953
REMARK INTER:                 -10.627
REMARK INTRA:                  -0.326
REMARK UNBOUND:                -0.402
REMARK  Name = 
REMARK  8 active torsions:
REMARK  status: ('A' for Active; 'I' for Inactive)
REMARK    1  A    between atoms: C_2  and  C_4
REMARK    2  A    between atoms: N_8  and  C_9
REMARK    3  A    between atoms: C_9  and  C_10
REMARK    4  A    between atoms: C_10  and  C_13
REMARK    5  A    between atoms: C_17  and  O_18
REMARK    6  A    between atoms: O_18  and  C_19
REMARK    7  A    between atoms: N_21  and  S_22
REMARK    8  A    between atoms: S_22  and  N_23
REMARK                            x       y       z     vdW  Elec       q    Type
REMARK                         _______ _______ _______ _____ _____    ______ ____
ROOT
ATOM      1  C   UNL     1      44.429   4.844  12.297  0.00  0.00    +0.000 C 
ATOM      2  F   UNL     1      43.668   4.643  13.424  0.00  0.00    +0.000 F 
ATOM      3  F   UNL     1      45.543   4.075  12.491  0.00  0.00    +0.000 F 
ENDROOT
BRANCH   1   4
ATOM      4  C   UNL     1      44.805   6.313  12.162  0.00  0.00    +0.000 A 
ATOM      5  C   UNL     1      44.102   7.226  11.366  0.00  0.00    +0.000 A 
ATOM      6  C   UNL     1      44.526   8.546  11.317  0.00  0.00    +0.000 A 
ATOM      7  N   UNL     1      45.583   9.028  12.003  0.00  0.00    +0.000 NA
ATOM      8  C   UNL     1      46.253   8.143  12.764  0.00  0.00    +0.000 A 
ATOM      9  C   UNL     1      45.916   6.800  12.872  0.00  0.00    +0.000 A 
BRANCH   8  10
ATOM     10  O   UNL     1      47.302   8.607  13.531  0.00  0.00    +0.000 OA
BRANCH  10  11
ATOM     11  C   UNL     1      48.559   8.788  12.831  0.00  0.00    +0.000 C 
ATOM     12  C   UNL     1      48.894   7.695  11.789  0.00  0.00    +0.000 C 
ATOM     13  N   UNL     1      50.326   7.661  12.245  0.00  0.00    +0.000 NA
ATOM     14  C   UNL     1      49.881   8.350  13.507  0.00  0.00    +0.000 C 
BRANCH  13  15
ATOM     15  S   UNL     1      51.567   8.216  11.250  0.00  0.00    +0.000 S 
ATOM     16  O   UNL     1      51.690   7.322  10.130  0.00  0.00    +0.000 OA
ATOM     17  O   UNL     1      51.434   9.646  11.115  0.00  0.00    +0.000 OA
BRANCH  15  18
ATOM     18  N   UNL     1      52.837   7.915  12.275  0.00  0.00    +0.000 NA
ATOM     19  H   UNL     1      53.407   8.743  12.419  0.00  0.00    +0.000 HD
ATOM     20  H   UNL     1      53.325   7.052  12.060  0.00  0.00    +0.000 HD
ENDBRANCH  15  18
ENDBRANCH  13  15
ENDBRANCH  10  11
ENDBRANCH   8  10
ENDBRANCH   1   4
BRANCH   1  21
ATOM     21  C   UNL     1      43.627   4.258  11.103  0.00  0.00    +0.000 C 
BRANCH  21  26
ATOM     22  C   UNL     1      46.519   2.775   7.338  0.00  0.00    +0.000 A 
ATOM     23  C   UNL     1      46.085   1.587   7.919  0.00  0.00    +0.000 A 
ATOM     24  C   UNL     1      45.250   1.644   9.036  0.00  0.00    +0.000 A 
ATOM     25  C   UNL     1      44.854   2.881   9.546  0.00  0.00    +0.000 A 
ATOM     26  N   UNL     1      44.059   2.903  10.702  0.00  0.00    +0.000 N 
ATOM     27  N   UNL     1      45.288   4.035   8.999  0.00  0.00    +0.000 NA
ATOM     28  C   UNL     1      46.112   3.963   7.920  0.00  0.00    +0.000 A 
ATOM     29  H   UNL     1      43.281   2.251  10.629  0.00  0.00    +0.000 HD
BRANCH  22  31
ATOM     30  N   UNL     1      48.732   2.591   6.361  0.00  0.00    +0.000 N 
ATOM     31  C   UNL     1      47.400   2.821   6.153  0.00  0.00    +0.000 C 
ATOM     32  O   UNL     1      46.953   3.013   5.031  0.00  0.00    +0.000 OA
ATOM     33  H   UNL     1      49.308   2.506   5.531  0.00  0.00    +0.000 HD
ATOM     34  H   UNL     1      49.081   2.180   7.213  0.00  0.00    +0.000 HD
ENDBRANCH  22  31
ENDBRANCH  21  26
ENDBRANCH   1  21
TORSDOF 8
ENDMDL
MODEL 6
REMARK VINA RESULT:    -7.286      2.869      3.237
REMARK INTER + INTRA:         -10.883
REMARK INTER:                 -10.429
REMARK INTRA:                  -0.454
REMARK UNBOUND:                -0.402
REMARK  Name = 
REMARK  8 active torsions:
REMARK  status: ('A' for Active; 'I' for Inactive)
REMARK    1  A    between atoms: C_2  and  C_4
REMARK    2  A    between atoms: N_8  and  C_9
REMARK    3  A    between atoms: C_9  and  C_10
REMARK    4  A    between atoms: C_10  and  C_13
REMARK    5  A    between atoms: C_17  and  O_18
REMARK    6  A    between atoms: O_18  and  C_19
REMARK    7  A    between atoms: N_21  and  S_22
REMARK    8  A    between atoms: S_22  and  N_23
REMARK                            x       y       z     vdW  Elec       q    Type
REMARK                         _______ _______ _______ _____ _____    ______ ____
ROOT
ATOM      1  C   UNL     1      43.981   4.875  12.509  0.00  0.00    +0.000 C 
ATOM      2  F   UNL     1      42.972   5.613  13.079  0.00  0.00    +0.000 F 
ATOM      3  F   UNL     1      44.087   3.764  13.299  0.00  0.00    +0.000 F 
ENDROOT
BRANCH   1   4
ATOM      4  C   UNL     1      45.284   5.662  12.508  0.00  0.00    +0.000 A 
ATOM      5  C   UNL     1      45.606   6.634  11.553  0.00  0.00    +0.000 A 
ATOM      6  C   UNL     1      46.821   7.298  11.648  0.00  0.00    +0.000 A 
ATOM      7  N   UNL     1      47.730   7.079  12.620  0.00  0.00    +0.000 NA
ATOM      8  C   UNL     1      47.412   6.142  13.533  0.00  0.00    +0.000 A 
ATOM      9  C   UNL     1      46.229   5.415  13.520  0.00  0.00    +0.000 A 
BRANCH   8  10
ATOM     10  O   UNL     1      48.286   5.930  14.579  0.00  0.00    +0.000 OA
BRANCH  10  11
ATOM     11  C   UNL     1      49.190   7.026  14.874  0.00  0.00    +0.000 C 
ATOM     12  C   UNL     1      50.248   6.728  15.961  0.00  0.00    +0.000 C 
ATOM     13  N   UNL     1      50.037   8.084  16.576  0.00  0.00    +0.000 NA
ATOM     14  C   UNL     1      48.733   8.157  15.826  0.00  0.00    +0.000 C 
BRANCH  13  15
ATOM     15  S   UNL     1      51.237   9.265  16.507  0.00  0.00    +0.000 S 
ATOM     16  O   UNL     1      52.065   9.009  15.360  0.00  0.00    +0.000 OA
ATOM     17  O   UNL     1      50.630  10.544  16.780  0.00  0.00    +0.000 OA
BRANCH  15  18
ATOM     18  N   UNL     1      52.090   8.806  17.855  0.00  0.00    +0.000 NA
ATOM     19  H   UNL     1      51.785   7.901  18.201  0.00  0.00    +0.000 HD
ATOM     20  H   UNL     1      52.187   9.550  18.537  0.00  0.00    +0.000 HD
ENDBRANCH  15  18
ENDBRANCH  13  15
ENDBRANCH  10  11
ENDBRANCH   8  10
ENDBRANCH   1   4
BRANCH   1  21
ATOM     21  C   UNL     1      43.478   4.435  11.106  0.00  0.00    +0.000 C 
BRANCH  21  26
ATOM     22  C   UNL     1      46.437   2.610   7.549  0.00  0.00    +0.000 A 
ATOM     23  C   UNL     1      45.871   1.480   8.132  0.00  0.00    +0.000 A 
ATOM     24  C   UNL     1      44.983   1.638   9.197  0.00  0.00    +0.000 A 
ATOM     25  C   UNL     1      44.667   2.917   9.655  0.00  0.00    +0.000 A 
ATOM     26  N   UNL     1      43.813   3.038  10.762  0.00  0.00    +0.000 N 
ATOM     27  N   UNL     1      45.228   4.016   9.108  0.00  0.00    +0.000 NA
ATOM     28  C   UNL     1      46.102   3.844   8.080  0.00  0.00    +0.000 A 
ATOM     29  H   UNL     1      42.987   2.453  10.659  0.00  0.00    +0.000 HD
BRANCH  22  31
ATOM     30  N   UNL     1      47.176   3.422   5.386  0.00  0.00    +0.000 N 
ATOM     31  C   UNL     1      47.384   2.549   6.417  0.00  0.00    +0.000 C 
ATOM     32  O   UNL     1      48.336   1.780   6.421  0.00  0.00    +0.000 OA
ATOM     33  H   UNL     1      47.895   3.455   4.673  0.00  0.00    +0.000 HD
ATOM     34  H   UNL     1      46.572   4.225   5.474  0.00  0.00    +0.000 HD
ENDBRANCH  22  31
ENDBRANCH  21  26
ENDBRANCH   1  21
TORSDOF 8
ENDMDL
MODEL 7
REMARK VINA RESULT:    -7.122      2.854      3.567
REMARK INTER + INTRA:         -10.647
REMARK INTER:                 -10.316
REMARK INTRA:                  -0.331
REMARK UNBOUND:                -0.402
REMARK  Name = 
REMARK  8 active torsions:
REMARK  status: ('A' for Active; 'I' for Inactive)
REMARK    1  A    between atoms: C_2  and  C_4
REMARK    2  A    between atoms: N_8  and  C_9
REMARK    3  A    between atoms: C_9  and  C_10
REMARK    4  A    between atoms: C_10  and  C_13
REMARK    5  A    between atoms: C_17  and  O_18
REMARK    6  A    between atoms: O_18  and  C_19
REMARK    7  A    between atoms: N_21  and  S_22
REMARK    8  A    between atoms: S_22  and  N_23
REMARK                            x       y       z     vdW  Elec       q    Type
REMARK                         _______ _______ _______ _____ _____    ______ ____
ROOT
ATOM      1  C   UNL     1      44.733   5.838  12.202  0.00  0.00    +0.000 C 
ATOM      2  F   UNL     1      43.818   5.829  13.228  0.00  0.00    +0.000 F 
ATOM      3  F   UNL     1      45.638   4.869  12.537  0.00  0.00    +0.000 F 
ENDROOT
BRANCH   1   4
ATOM      4  C   UNL     1      45.411   7.197  12.103  0.00  0.00    +0.000 A 
ATOM      5  C   UNL     1      44.716   8.404  11.955  0.00  0.00    +0.000 A 
ATOM      6  C   UNL     1      45.433   9.590  11.879  0.00  0.00    +0.000 A 
ATOM      7  N   UNL     1      46.777   9.669  11.950  0.00  0.00    +0.000 NA
ATOM      8  C   UNL     1      47.436   8.504  12.091  0.00  0.00    +0.000 A 
ATOM      9  C   UNL     1      46.814   7.264  12.165  0.00  0.00    +0.000 A 
BRANCH   8  10
ATOM     10  O   UNL     1      48.808   8.544  12.230  0.00  0.00    +0.000 OA
BRANCH  10  11
ATOM     11  C   UNL     1      49.354   7.737  13.304  0.00  0.00    +0.000 C 
ATOM     12  C   UNL     1      48.885   8.131  14.724  0.00  0.00    +0.000 C 
ATOM     13  N   UNL     1      50.279   7.960  15.261  0.00  0.00    +0.000 NA
ATOM     14  C   UNL     1      50.774   8.040  13.841  0.00  0.00    +0.000 C 
BRANCH  13  15
ATOM     15  S   UNL     1      50.652   6.709  16.326  0.00  0.00    +0.000 S 
ATOM     16  O   UNL     1      49.648   5.688  16.201  0.00  0.00    +0.000 OA
ATOM     17  O   UNL     1      52.068   6.448  16.239  0.00  0.00    +0.000 OA
BRANCH  15  18
ATOM     18  N   UNL     1      50.368   7.522  17.745  0.00  0.00    +0.000 NA
ATOM     19  H   UNL     1      49.902   8.409  17.581  0.00  0.00    +0.000 HD
ATOM     20  H   UNL     1      51.171   7.531  18.365  0.00  0.00    +0.000 HD
ENDBRANCH  15  18
ENDBRANCH  13  15
ENDBRANCH  10  11
ENDBRANCH   8  10
ENDBRANCH   1   4
BRANCH   1  21
ATOM     21  C   UNL     1      43.977   5.385  10.923  0.00  0.00    +0.000 C 
BRANCH  21  26
ATOM     22  C   UNL     1      46.429   2.696   7.533  0.00  0.00    +0.000 A 
ATOM     23  C   UNL     1      45.650   1.761   8.207  0.00  0.00    +0.000 A 
ATOM     24  C   UNL     1      44.832   2.188   9.255  0.00  0.00    +0.000 A 
ATOM     25  C   UNL     1      44.798   3.538   9.604  0.00  0.00    +0.000 A 
ATOM     26  N   UNL     1      44.007   3.925  10.696  0.00  0.00    +0.000 N 
ATOM     27  N   UNL     1      45.567   4.446   8.968  0.00  0.00    +0.000 NA
ATOM     28  C   UNL     1      46.368   4.012   7.958  0.00  0.00    +0.000 A 
ATOM     29  H   UNL     1      43.075   3.520  10.642  0.00  0.00    +0.000 HD
BRANCH  22  31
ATOM     30  N   UNL     1      47.185   3.068   5.258  0.00  0.00    +0.000 N 
ATOM     31  C   UNL     1      47.323   2.345   6.410  0.00  0.00    +0.000 C 
ATOM     32  O   UNL     1      48.177   1.476   6.520  0.00  0.00    +0.000 OA
ATOM     33  H   UNL     1      47.879   2.903   4.537  0.00  0.00    +0.000 HD
ATOM     34  H   UNL     1      46.684   3.943   5.228  0.00  0.00    +0.000 HD
ENDBRANCH  22  31
ENDBRANCH  21  26
ENDBRANCH   1  21
TORSDOF 8
ENDMDL
MODEL 8
REMARK VINA RESULT:    -6.951      4.192      7.945
REMARK INTER + INTRA:         -10.400
REMARK INTER:                  -9.502
REMARK INTRA:                  -0.899
REMARK UNBOUND:                -0.402
REMARK  Name = 
REMARK  8 active torsions:
REMARK  status: ('A' for Active; 'I' for Inactive)
REMARK    1  A    between atoms: C_2  and  C_4
REMARK    2  A    between atoms: N_8  and  C_9
REMARK    3  A    between atoms: C_9  and  C_10
REMARK    4  A    between atoms: C_10  and  C_13
REMARK    5  A    between atoms: C_17  and  O_18
REMARK    6  A    between atoms: O_18  and  C_19
REMARK    7  A    between atoms: N_21  and  S_22
REMARK    8  A    between atoms: S_22  and  N_23
REMARK                            x       y       z     vdW  Elec       q    Type
REMARK                         _______ _______ _______ _____ _____    ______ ____
ROOT
ATOM      1  C   UNL     1      49.476   9.095  12.156  0.00  0.00    +0.000 C 
ATOM      2  F   UNL     1      50.098   9.872  13.105  0.00  0.00    +0.000 F 
ATOM      3  F   UNL     1      50.225   9.265  11.025  0.00  0.00    +0.000 F 
ENDROOT
BRANCH   1   4
ATOM      4  C   UNL     1      48.047   9.567  11.932  0.00  0.00    +0.000 A 
ATOM      5  C   UNL     1      47.715  10.832  11.433  0.00  0.00    +0.000 A 
ATOM      6  C   UNL     1      46.377  11.161  11.261  0.00  0.00    +0.000 A 
ATOM      7  N   UNL     1      45.352  10.329  11.536  0.00  0.00    +0.000 NA
ATOM      8  C   UNL     1      45.681   9.116  12.016  0.00  0.00    +0.000 A 
ATOM      9  C   UNL     1      46.987   8.695  12.234  0.00  0.00    +0.000 A 
BRANCH   8  10
ATOM     10  O   UNL     1      44.666   8.211  12.252  0.00  0.00    +0.000 OA
BRANCH  10  11
ATOM     11  C   UNL     1      45.043   6.812  12.182  0.00  0.00    +0.000 C 
ATOM     12  C   UNL     1      44.205   5.955  11.204  0.00  0.00    +0.000 C 
ATOM     13  N   UNL     1      44.139   4.833  12.202  0.00  0.00    +0.000 NA
ATOM     14  C   UNL     1      44.532   5.828  13.261  0.00  0.00    +0.000 C 
BRANCH  13  15
ATOM     15  S   UNL     1      44.942   3.377  11.925  0.00  0.00    +0.000 S 
ATOM     16  O   UNL     1      45.103   3.207  10.507  0.00  0.00    +0.000 OA
ATOM     17  O   UNL     1      46.029   3.273  12.868  0.00  0.00    +0.000 OA
BRANCH  15  18
ATOM     18  N   UNL     1      43.735   2.351  12.421  0.00  0.00    +0.000 NA
ATOM     19  H   UNL     1      43.163   2.769  13.148  0.00  0.00    +0.000 HD
ATOM     20  H   UNL     1      44.060   1.403  12.578  0.00  0.00    +0.000 HD
ENDBRANCH  15  18
ENDBRANCH  13  15
ENDBRANCH  10  11
ENDBRANCH   8  10
ENDBRANCH   1   4
BRANCH   1  21
ATOM     21  C   UNL     1      49.616   7.619  12.622  0.00  0.00    +0.000 C 
BRANCH  21  26
ATOM     22  C   UNL     1      48.062   5.191  16.675  0.00  0.00    +0.000 A 
ATOM     23  C   UNL     1      49.230   5.826  17.088  0.00  0.00    +0.000 A 
ATOM     24  C   UNL     1      49.943   6.597  16.170  0.00  0.00    +0.000 A 
ATOM     25  C   UNL     1      49.476   6.731  14.862  0.00  0.00    +0.000 A 
ATOM     26  N   UNL     1      50.246   7.470  13.951  0.00  0.00    +0.000 N 
ATOM     27  N   UNL     1      48.356   6.102  14.451  0.00  0.00    +0.000 NA
ATOM     28  C   UNL     1      47.679   5.343  15.353  0.00  0.00    +0.000 A 
ATOM     29  H   UNL     1      50.538   8.360  14.347  0.00  0.00    +0.000 HD
BRANCH  22  31
ATOM     30  N   UNL     1      47.095   4.783  18.862  0.00  0.00    +0.000 N 
ATOM     31  C   UNL     1      47.235   4.357  17.571  0.00  0.00    +0.000 C 
ATOM     32  O   UNL     1      46.665   3.353  17.164  0.00  0.00    +0.000 OA
ATOM     33  H   UNL     1      46.432   4.272  19.435  0.00  0.00    +0.000 HD
ATOM     34  H   UNL     1      47.329   5.721  19.148  0.00  0.00    +0.000 HD
ENDBRANCH  22  31
ENDBRANCH  21  26
ENDBRANCH   1  21
TORSDOF 8
ENDMDL
MODEL 9
REMARK VINA RESULT:    -6.861      4.489      6.510
REMARK INTER + INTRA:         -10.271
REMARK INTER:                 -10.228
REMARK INTRA:                  -0.042
REMARK UNBOUND:                -0.402
REMARK  Name = 
REMARK  8 active torsions:
REMARK  status: ('A' for Active; 'I' for Inactive)
REMARK    1  A    between atoms: C_2  and  C_4
REMARK    2  A    between atoms: N_8  and  C_9
REMARK    3  A    between atoms: C_9  and  C_10
REMARK    4  A    between atoms: C_10  and  C_13
REMARK    5  A    between atoms: C_17  and  O_18
REMARK    6  A    between atoms: O_18  and  C_19
REMARK    7  A    between atoms: N_21  and  S_22
REMARK    8  A    between atoms: S_22  and  N_23
REMARK                            x       y       z     vdW  Elec       q    Type
REMARK                         _______ _______ _______ _____ _____    ______ ____
ROOT
ATOM      1  C   UNL     1      47.460   3.758  17.407  0.00  0.00    +0.000 C 
ATOM      2  F   UNL     1      46.499   4.693  17.710  0.00  0.00    +0.000 F 
ATOM      3  F   UNL     1      46.941   2.572  17.846  0.00  0.00    +0.000 F 
ENDROOT
BRANCH   1   4
ATOM      4  C   UNL     1      48.762   4.078  18.129  0.00  0.00    +0.000 A 
ATOM      5  C   UNL     1      48.824   4.729  19.367  0.00  0.00    +0.000 A 
ATOM      6  C   UNL     1      50.065   4.967  19.942  0.00  0.00    +0.000 A 
ATOM      7  N   UNL     1      51.239   4.600  19.390  0.00  0.00    +0.000 NA
ATOM      8  C   UNL     1      51.168   3.975  18.200  0.00  0.00    +0.000 A 
ATOM      9  C   UNL     1      49.979   3.700  17.537  0.00  0.00    +0.000 A 
BRANCH   8  10
ATOM     10  O   UNL     1      52.342   3.527  17.629  0.00  0.00    +0.000 OA
BRANCH  10  11
ATOM     11  C   UNL     1      52.881   2.300  18.185  0.00  0.00    +0.000 C 
ATOM     12  C   UNL     1      54.146   1.761  17.478  0.00  0.00    +0.000 C 
ATOM     13  N   UNL     1      53.617   0.355  17.544  0.00  0.00    +0.000 NA
ATOM     14  C   UNL     1      52.253   0.942  17.790  0.00  0.00    +0.000 C 
BRANCH  13  15
ATOM     15  S   UNL     1      54.344  -0.801  18.532  0.00  0.00    +0.000 S 
ATOM     16  O   UNL     1      55.200  -1.623  17.720  0.00  0.00    +0.000 OA
ATOM     17  O   UNL     1      54.781  -0.151  19.743  0.00  0.00    +0.000 OA
BRANCH  15  18
ATOM     18  N   UNL     1      52.986  -1.687  18.887  0.00  0.00    +0.000 NA
ATOM     19  H   UNL     1      52.853  -1.782  19.890  0.00  0.00    +0.000 HD
ATOM     20  H   UNL     1      52.905  -2.530  18.330  0.00  0.00    +0.000 HD
ENDBRANCH  15  18
ENDBRANCH  13  15
ENDBRANCH  10  11
ENDBRANCH   8  10
ENDBRANCH   1   4
BRANCH   1  21
ATOM     21  C   UNL     1      47.564   3.707  15.857  0.00  0.00    +0.000 C 
BRANCH  21  26
ATOM     22  C   UNL     1      45.139   4.473  11.583  0.00  0.00    +0.000 A 
ATOM     23  C   UNL     1      45.488   5.751  12.008  0.00  0.00    +0.000 A 
ATOM     24  C   UNL     1      46.181   5.901  13.211  0.00  0.00    +0.000 A 
ATOM     25  C   UNL     1      46.523   4.776  13.961  0.00  0.00    +0.000 A 
ATOM     26  N   UNL     1      47.172   4.965  15.190  0.00  0.00    +0.000 N 
ATOM     27  N   UNL     1      46.170   3.535  13.564  0.00  0.00    +0.000 NA
ATOM     28  C   UNL     1      45.484   3.407  12.397  0.00  0.00    +0.000 A 
ATOM     29  H   UNL     1      47.947   5.619  15.104  0.00  0.00    +0.000 HD
BRANCH  22  31
ATOM     30  N   UNL     1      44.857   4.848   9.203  0.00  0.00    +0.000 N 
ATOM     31  C   UNL     1      44.410   4.209  10.326  0.00  0.00    +0.000 C 
ATOM     32  O   UNL     1      43.474   3.422  10.283  0.00  0.00    +0.000 OA
ATOM     33  H   UNL     1      44.429   4.571   8.327  0.00  0.00    +0.000 HD
ATOM     34  H   UNL     1      45.765   5.285   9.158  0.00  0.00    +0.000 HD
ENDBRANCH  22  31
ENDBRANCH  21  26
ENDBRANCH   1  21
TORSDOF 8
ENDMDL
