MODEL 1
REMARK VINA RESULT:    -8.440      0.000      0.000
REMARK INTER + INTRA:         -12.856
REMARK INTER:                 -11.893
REMARK INTRA:                  -0.962
REMARK UNBOUND:                -0.962
REMARK  Name = 
REMARK  9 active torsions:
REMARK  status: ('A' for Active; 'I' for Inactive)
REMARK    1  A    between atoms: C_1  and  C_2
REMARK    2  A    between atoms: C_2  and  C_3
REMARK    3  A    between atoms: C_3  and  N_4
REMARK    4  A    between atoms: C_3  and  C_18
REMARK    5  A    between atoms: C_5  and  C_7
REMARK    6  A    between atoms: N_13  and  C_14
REMARK    7  A    between atoms: C_21  and  O_22
REMARK    8  A    between atoms: O_22  and  C_23
REMARK    9  A    between atoms: C_23  and  C_24
REMARK                            x       y       z     vdW  Elec       q    Type
REMARK                         _______ _______ _______ _____ _____    ______ ____
ROOT
ATOM      1  C   UNL     1      46.525   7.915  12.743  0.00  0.00    +0.000 C 
ENDROOT
BRANCH   1   2
ATOM      2  C   UNL     1      46.017   6.579  12.218  0.00  0.00    +0.000 A 
ATOM      3  C   UNL     1      45.746   6.393  10.855  0.00  0.00    +0.000 A 
ATOM      4  C   UNL     1      45.305   5.151  10.383  0.00  0.00    +0.000 A 
ATOM      5  C   UNL     1      45.149   4.079  11.264  0.00  0.00    +0.000 A 
ATOM      6  C   UNL     1      45.366   4.273  12.626  0.00  0.00    +0.000 A 
ATOM      7  C   UNL     1      45.813   5.503  13.095  0.00  0.00    +0.000 A 
BRANCH   5   8
ATOM      8  O   UNL     1      44.791   2.880  10.705  0.00  0.00    +0.000 OA
BRANCH   8   9
ATOM      9  C   UNL     1      44.398   2.974   9.328  0.00  0.00    +0.000 C 
BRANCH   9  10
ATOM     10  C   UNL     1      45.474   2.489   8.388  0.00  0.00    +0.000 A 
ATOM     11  C   UNL     1      46.140   3.369   7.535  0.00  0.00    +0.000 A 
ATOM     12  C   UNL     1      47.173   2.881   6.744  0.00  0.00    +0.000 A 
ATOM     13  C   UNL     1      47.529   1.544   6.831  0.00  0.00    +0.000 A 
ATOM     14  C   UNL     1      46.835   0.738   7.716  0.00  0.00    +0.000 A 
ATOM     15  N   UNL     1      45.823   1.180   8.496  0.00  0.00    +0.000 NA
ENDBRANCH   9  10
ENDBRANCH   8   9
ENDBRANCH   5   8
ENDBRANCH   1   2
BRANCH   1  16
ATOM     16  N   UNL     1      47.152   7.689  14.037  0.00  0.00    +0.000 N 
ATOM     17  C   UNL     1      48.498   7.520  14.216  0.00  0.00    +0.000 C 
ATOM     18  O   UNL     1      49.285   7.456  13.275  0.00  0.00    +0.000 OA
ATOM     19  H   UNL     1      46.584   7.896  14.850  0.00  0.00    +0.000 HD
BRANCH  17  20
ATOM     20  C   UNL     1      48.948   7.356  15.606  0.00  0.00    +0.000 A 
ATOM     21  C   UNL     1      49.639   8.385  16.231  0.00  0.00    +0.000 A 
ATOM     22  S   UNL     1      50.090   8.031  17.837  0.00  0.00    +0.000 S 
ATOM     23  C   UNL     1      49.343   6.503  17.767  0.00  0.00    +0.000 A 
ATOM     24  N   UNL     1      49.332   5.688  18.854  0.00  0.00    +0.000 NA
ATOM     25  C   UNL     1      48.708   4.568  18.676  0.00  0.00    +0.000 A 
ATOM     26  N   UNL     1      48.097   4.171  17.506  0.00  0.00    +0.000 N 
ATOM     27  C   UNL     1      47.447   2.879  17.422  0.00  0.00    +0.000 C 
ATOM     28  C   UNL     1      48.122   4.966  16.363  0.00  0.00    +0.000 A 
ATOM     29  O   UNL     1      47.651   4.602  15.287  0.00  0.00    +0.000 OA
ATOM     30  C   UNL     1      48.785   6.251  16.529  0.00  0.00    +0.000 A 
ENDBRANCH  17  20
ENDBRANCH   1  16
BRANCH   1  32
ATOM     31  C   UNL     1      45.419  10.032  11.800  0.00  0.00    +0.000 C 
ATOM     32  C   UNL     1      45.392   8.953  12.877  0.00  0.00    +0.000 C 
ENDBRANCH   1  32
TORSDOF 7
ENDMDL
MODEL 2
REMARK VINA RESULT:    -8.434      1.907      2.539
REMARK INTER + INTRA:         -12.848
REMARK INTER:                 -11.659
REMARK INTRA:                  -1.189
REMARK UNBOUND:                -0.962
REMARK  Name = 
REMARK  9 active torsions:
REMARK  status: ('A' for Active; 'I' for Inactive)
REMARK    1  A    between atoms: C_1  and  C_2
REMARK    2  A    between atoms: C_2  and  C_3
REMARK    3  A    between atoms: C_3  and  N_4
REMARK    4  A    between atoms: C_3  and  C_18
REMARK    5  A    between atoms: C_5  and  C_7
REMARK    6  A    between atoms: N_13  and  C_14
REMARK    7  A    between atoms: C_21  and  O_22
REMARK    8  A    between atoms: O_22  and  C_23
REMARK    9  A    between atoms: C_23  and  C_24
REMARK                            x       y       z     vdW  Elec       q    Type
REMARK                         _______ _______ _______ _____ _____    ______ ____
ROOT
ATOM      1  C   UNL     1      47.541   6.893  13.450  0.00  0.00    +0.000 C 
ENDROOT
BRANCH   1   2
ATOM      2  C   UNL     1      46.616   6.074  12.560  0.00  0.00    +0.000 A 
ATOM      3  C   UNL     1      46.278   6.511  11.271  0.00  0.00    +0.000 A 
ATOM      4  C   UNL     1      45.449   5.735  10.454  0.00  0.00    +0.000 A 
ATOM      5  C   UNL     1      44.964   4.507  10.908  0.00  0.00    +0.000 A 
ATOM      6  C   UNL     1      45.253   4.093  12.205  0.00  0.00    +0.000 A 
ATOM      7  C   UNL     1      46.085   4.858  13.016  0.00  0.00    +0.000 A 
BRANCH   5   8
ATOM      8  O   UNL     1      44.225   3.777  10.014  0.00  0.00    +0.000 OA
BRANCH   8   9
ATOM      9  C   UNL     1      44.719   2.446   9.800  0.00  0.00    +0.000 C 
BRANCH   9  10
ATOM     10  C   UNL     1      45.551   2.335   8.547  0.00  0.00    +0.000 A 
ATOM     11  C   UNL     1      45.690   3.413   7.673  0.00  0.00    +0.000 A 
ATOM     12  C   UNL     1      46.528   3.278   6.572  0.00  0.00    +0.000 A 
ATOM     13  C   UNL     1      47.216   2.091   6.377  0.00  0.00    +0.000 A 
ATOM     14  C   UNL     1      47.043   1.074   7.299  0.00  0.00    +0.000 A 
ATOM     15  N   UNL     1      46.233   1.171   8.377  0.00  0.00    +0.000 NA
ENDBRANCH   9  10
ENDBRANCH   8   9
ENDBRANCH   5   8
ENDBRANCH   1   2
BRANCH   1  16
ATOM     16  N   UNL     1      47.587   6.263  14.762  0.00  0.00    +0.000 N 
ATOM     17  C   UNL     1      48.697   6.242  15.562  0.00  0.00    +0.000 C 
ATOM     18  O   UNL     1      49.783   6.681  15.193  0.00  0.00    +0.000 OA
ATOM     19  H   UNL     1      46.692   6.037  15.180  0.00  0.00    +0.000 HD
BRANCH  17  20
ATOM     20  C   UNL     1      48.533   5.602  16.876  0.00  0.00    +0.000 A 
ATOM     21  C   UNL     1      48.680   4.227  16.994  0.00  0.00    +0.000 A 
ATOM     22  S   UNL     1      48.453   3.648  18.582  0.00  0.00    +0.000 S 
ATOM     23  C   UNL     1      48.190   5.221  19.176  0.00  0.00    +0.000 A 
ATOM     24  N   UNL     1      47.971   5.433  20.500  0.00  0.00    +0.000 NA
ATOM     25  C   UNL     1      47.812   6.676  20.823  0.00  0.00    +0.000 A 
ATOM     26  N   UNL     1      47.840   7.740  19.947  0.00  0.00    +0.000 N 
ATOM     27  C   UNL     1      47.627   9.089  20.428  0.00  0.00    +0.000 C 
ATOM     28  C   UNL     1      48.025   7.554  18.580  0.00  0.00    +0.000 A 
ATOM     29  O   UNL     1      47.977   8.477  17.768  0.00  0.00    +0.000 OA
ATOM     30  C   UNL     1      48.242   6.172  18.176  0.00  0.00    +0.000 A 
ENDBRANCH  17  20
ENDBRANCH   1  16
BRANCH   1  32
ATOM     31  C   UNL     1      47.978   9.355  12.869  0.00  0.00    +0.000 C 
ATOM     32  C   UNL     1      47.072   8.357  13.582  0.00  0.00    +0.000 C 
ENDBRANCH   1  32
TORSDOF 7
ENDMDL
MODEL 3
REMARK VINA RESULT:    -7.977      1.262      1.535
REMARK INTER + INTRA:         -12.204
REMARK INTER:                 -10.795
REMARK INTRA:                  -1.409
REMARK UNBOUND:                -0.962
REMARK  Name = 
REMARK  9 active torsions:
REMARK  status: ('A' for Active; 'I' for Inactive)
REMARK    1  A    between atoms: C_1  and  C_2
REMARK    2  A    between atoms: C_2  and  C_3
REMARK    3  A    between atoms: C_3  and  N_4
REMARK    4  A    between atoms: C_3  and  C_18
REMARK    5  A    between atoms: C_5  and  C_7
REMARK    6  A    between atoms: N_13  and  C_14
REMARK    7  A    between atoms: C_21  and  O_22
REMARK    8  A    between atoms: O_22  and  C_23
REMARK    9  A    between atoms: C_23  and  C_24
REMARK                            x       y       z     vdW  Elec       q    Type
REMARK                         _______ _______ _______ _____ _____    ______ ____
ROOT
ATOM      1  C   UNL     1      47.798   7.852  13.231  0.00  0.00    +0.000 C 
ENDROOT
BRANCH   1   2
ATOM      2  C   UNL     1      46.784   6.836  12.723  0.00  0.00    +0.000 A 
ATOM      3  C   UNL     1      45.819   7.192  11.770  0.00  0.00    +0.000 A 
ATOM      4  C   UNL     1      44.910   6.241  11.292  0.00  0.00    +0.000 A 
ATOM      5  C   UNL     1      44.967   4.922  11.747  0.00  0.00    +0.000 A 
ATOM      6  C   UNL     1      45.888   4.576  12.733  0.00  0.00    +0.000 A 
ATOM      7  C   UNL     1      46.798   5.518  13.202  0.00  0.00    +0.000 A 
BRANCH   5   8
ATOM      8  O   UNL     1      44.093   4.041  11.168  0.00  0.00    +0.000 OA
BRANCH   8   9
ATOM      9  C   UNL     1      43.916   4.238   9.757  0.00  0.00    +0.000 C 
BRANCH   9  10
ATOM     10  C   UNL     1      44.969   3.530   8.940  0.00  0.00    +0.000 A 
ATOM     11  C   UNL     1      45.183   2.158   9.069  0.00  0.00    +0.000 A 
ATOM     12  C   UNL     1      46.114   1.545   8.239  0.00  0.00    +0.000 A 
ATOM     13  C   UNL     1      46.793   2.302   7.296  0.00  0.00    +0.000 A 
ATOM     14  C   UNL     1      46.511   3.654   7.215  0.00  0.00    +0.000 A 
ATOM     15  N   UNL     1      45.615   4.281   8.009  0.00  0.00    +0.000 NA
ENDBRANCH   9  10
ENDBRANCH   8   9
ENDBRANCH   5   8
ENDBRANCH   1   2
BRANCH   1  16
ATOM     16  N   UNL     1      48.026   7.600  14.647  0.00  0.00    +0.000 N 
ATOM     17  C   UNL     1      49.225   7.797  15.276  0.00  0.00    +0.000 C 
ATOM     18  O   UNL     1      50.241   8.122  14.669  0.00  0.00    +0.000 OA
ATOM     19  H   UNL     1      47.197   7.494  15.221  0.00  0.00    +0.000 HD
BRANCH  17  20
ATOM     20  C   UNL     1      49.244   7.537  16.724  0.00  0.00    +0.000 A 
ATOM     21  C   UNL     1      49.609   8.549  17.599  0.00  0.00    +0.000 A 
ATOM     22  S   UNL     1      49.583   8.080  19.238  0.00  0.00    +0.000 S 
ATOM     23  C   UNL     1      49.043   6.517  18.838  0.00  0.00    +0.000 A 
ATOM     24  N   UNL     1      48.780   5.605  19.810  0.00  0.00    +0.000 NA
ATOM     25  C   UNL     1      48.352   4.465  19.373  0.00  0.00    +0.000 A 
ATOM     26  N   UNL     1      48.166   4.136  18.047  0.00  0.00    +0.000 N 
ATOM     27  C   UNL     1      47.700   2.815  17.680  0.00  0.00    +0.000 C 
ATOM     28  C   UNL     1      48.461   5.034  17.025  0.00  0.00    +0.000 A 
ATOM     29  O   UNL     1      48.377   4.739  15.834  0.00  0.00    +0.000 OA
ATOM     30  C   UNL     1      48.915   6.342  17.474  0.00  0.00    +0.000 A 
ENDBRANCH  17  20
ENDBRANCH   1  16
BRANCH   1  32
ATOM     31  C   UNL     1      48.111  10.061  11.961  0.00  0.00    +0.000 C 
ATOM     32  C   UNL     1      47.320   9.303  13.022  0.00  0.00    +0.000 C 
ENDBRANCH   1  32
TORSDOF 7
ENDMDL
MODEL 4
REMARK VINA RESULT:    -7.847      2.377      3.691
REMARK INTER + INTRA:         -12.021
REMARK INTER:                 -10.563
REMARK INTRA:                  -1.458
REMARK UNBOUND:                -0.962
REMARK  Name = 
REMARK  9 active torsions:
REMARK  status: ('A' for Active; 'I' for Inactive)
REMARK    1  A    between atoms: C_1  and  C_2
REMARK    2  A    between atoms: C_2  and  C_3
REMARK    3  A    between atoms: C_3  and  N_4
REMARK    4  A    between atoms: C_3  and  C_18
REMARK    5  A    between atoms: C_5  and  C_7
REMARK    6  A    between atoms: N_13  and  C_14
REMARK    7  A    between atoms: C_21  and  O_22
REMARK    8  A    between atoms: O_22  and  C_23
REMARK    9  A    between atoms: C_23  and  C_24
REMARK                            x       y       z     vdW  Elec       q    Type
REMARK                         _______ _______ _______ _____ _____    ______ ____
ROOT
ATOM      1  C   UNL     1      48.555   6.461  14.205  0.00  0.00    +0.000 C 
ENDROOT
BRANCH   1   2
ATOM      2  C   UNL     1      47.339   5.910  13.472  0.00  0.00    +0.000 A 
ATOM      3  C   UNL     1      46.893   4.600  13.695  0.00  0.00    +0.000 A 
ATOM      4  C   UNL     1      45.758   4.115  13.034  0.00  0.00    +0.000 A 
ATOM      5  C   UNL     1      45.048   4.940  12.160  0.00  0.00    +0.000 A 
ATOM      6  C   UNL     1      45.517   6.224  11.895  0.00  0.00    +0.000 A 
ATOM      7  C   UNL     1      46.640   6.710  12.557  0.00  0.00    +0.000 A 
BRANCH   5   8
ATOM      8  O   UNL     1      43.906   4.412  11.618  0.00  0.00    +0.000 OA
BRANCH   8   9
ATOM      9  C   UNL     1      43.752   4.672  10.215  0.00  0.00    +0.000 C 
BRANCH   9  10
ATOM     10  C   UNL     1      44.682   3.837   9.370  0.00  0.00    +0.000 A 
ATOM     11  C   UNL     1      44.747   2.453   9.517  0.00  0.00    +0.000 A 
ATOM     12  C   UNL     1      45.566   1.726   8.662  0.00  0.00    +0.000 A 
ATOM     13  C   UNL     1      46.284   2.386   7.676  0.00  0.00    +0.000 A 
ATOM     14  C   UNL     1      46.152   3.760   7.580  0.00  0.00    +0.000 A 
ATOM     15  N   UNL     1      45.368   4.496   8.398  0.00  0.00    +0.000 NA
ENDBRANCH   9  10
ENDBRANCH   8   9
ENDBRANCH   5   8
ENDBRANCH   1   2
BRANCH   1  16
ATOM     16  N   UNL     1      48.207   6.622  15.609  0.00  0.00    +0.000 N 
ATOM     17  C   UNL     1      48.906   6.058  16.641  0.00  0.00    +0.000 C 
ATOM     18  O   UNL     1      49.844   5.287  16.457  0.00  0.00    +0.000 OA
ATOM     19  H   UNL     1      47.557   7.370  15.825  0.00  0.00    +0.000 HD
BRANCH  17  20
ATOM     20  C   UNL     1      48.430   6.380  17.995  0.00  0.00    +0.000 A 
ATOM     21  C   UNL     1      48.339   5.376  18.948  0.00  0.00    +0.000 A 
ATOM     22  S   UNL     1      47.766   5.916  20.461  0.00  0.00    +0.000 S 
ATOM     23  C   UNL     1      47.659   7.522  19.907  0.00  0.00    +0.000 A 
ATOM     24  N   UNL     1      47.262   8.518  20.741  0.00  0.00    +0.000 NA
ATOM     25  C   UNL     1      47.249   9.694  20.203  0.00  0.00    +0.000 A 
ATOM     26  N   UNL     1      47.587   9.979  18.897  0.00  0.00    +0.000 N 
ATOM     27  C   UNL     1      47.512  11.338  18.403  0.00  0.00    +0.000 C 
ATOM     28  C   UNL     1      47.962   8.978  18.006  0.00  0.00    +0.000 A 
ATOM     29  O   UNL     1      48.193   9.195  16.818  0.00  0.00    +0.000 OA
ATOM     30  C   UNL     1      48.022   7.641  18.580  0.00  0.00    +0.000 A 
ENDBRANCH  17  20
ENDBRANCH   1  16
BRANCH   1  32
ATOM     31  C   UNL     1      50.477   8.144  13.944  0.00  0.00    +0.000 C 
ATOM     32  C   UNL     1      49.026   7.807  13.617  0.00  0.00    +0.000 C 
ENDBRANCH   1  32
TORSDOF 7
ENDMDL
MODEL 5
REMARK VINA RESULT:    -7.019      2.144      2.963
REMARK INTER + INTRA:         -10.853
REMARK INTER:                  -9.902
REMARK INTRA:                  -0.951
REMARK UNBOUND:                -0.962
REMARK  Name = 
REMARK  9 active torsions:
REMARK  status: ('A' for Active; 'I' for Inactive)
REMARK    1  A    between atoms: C_1  and  C_2
REMARK    2  A    between atoms: C_2  and  C_3
REMARK    3  A    between atoms: C_3  and  N_4
REMARK    4  A    between atoms: C_3  and  C_18
REMARK    5  A    between atoms: C_5  and  C_7
REMARK    6  A    between atoms: N_13  and  C_14
REMARK    7  A    between atoms: C_21  and  O_22
REMARK    8  A    between atoms: O_22  and  C_23
REMARK    9  A    between atoms: C_23  and  C_24
REMARK                            x       y       z     vdW  Elec       q    Type
REMARK                         _______ _______ _______ _____ _____    ______ ____
ROOT
ATOM      1  C   UNL     1      49.033   7.258  12.971  0.00  0.00    +0.000 C 
ENDROOT
BRANCH   1   2
ATOM      2  C   UNL     1      47.752   6.547  12.558  0.00  0.00    +0.000 A 
ATOM      3  C   UNL     1      47.336   5.373  13.202  0.00  0.00    +0.000 A 
ATOM      4  C   UNL     1      46.142   4.744  12.829  0.00  0.00    +0.000 A 
ATOM      5  C   UNL     1      45.343   5.292  11.823  0.00  0.00    +0.000 A 
ATOM      6  C   UNL     1      45.778   6.427  11.144  0.00  0.00    +0.000 A 
ATOM      7  C   UNL     1      46.959   7.058  11.519  0.00  0.00    +0.000 A 
BRANCH   5   8
ATOM      8  O   UNL     1      44.155   4.657  11.577  0.00  0.00    +0.000 OA
BRANCH   8   9
ATOM      9  C   UNL     1      43.774   4.649  10.193  0.00  0.00    +0.000 C 
BRANCH   9  10
ATOM     10  C   UNL     1      44.693   3.800   9.348  0.00  0.00    +0.000 A 
ATOM     11  C   UNL     1      44.771   2.420   9.527  0.00  0.00    +0.000 A 
ATOM     12  C   UNL     1      45.578   1.679   8.672  0.00  0.00    +0.000 A 
ATOM     13  C   UNL     1      46.269   2.321   7.656  0.00  0.00    +0.000 A 
ATOM     14  C   UNL     1      46.125   3.690   7.530  0.00  0.00    +0.000 A 
ATOM     15  N   UNL     1      45.352   4.441   8.346  0.00  0.00    +0.000 NA
ENDBRANCH   9  10
ENDBRANCH   8   9
ENDBRANCH   5   8
ENDBRANCH   1   2
BRANCH   1  16
ATOM     16  N   UNL     1      48.772   7.988  14.203  0.00  0.00    +0.000 N 
ATOM     17  C   UNL     1      49.365   7.702  15.403  0.00  0.00    +0.000 C 
ATOM     18  O   UNL     1      50.106   6.736  15.557  0.00  0.00    +0.000 OA
ATOM     19  H   UNL     1      48.306   8.883  14.102  0.00  0.00    +0.000 HD
BRANCH  17  20
ATOM     20  C   UNL     1      49.012   8.587  16.524  0.00  0.00    +0.000 A 
ATOM     21  C   UNL     1      49.117   9.962  16.373  0.00  0.00    +0.000 A 
ATOM     22  S   UNL     1      48.675  10.840  17.765  0.00  0.00    +0.000 S 
ATOM     23  C   UNL     1      48.287   9.413  18.608  0.00  0.00    +0.000 A 
ATOM     24  N   UNL     1      47.799   9.468  19.875  0.00  0.00    +0.000 NA
ATOM     25  C   UNL     1      47.520   8.314  20.390  0.00  0.00    +0.000 A 
ATOM     26  N   UNL     1      47.692   7.097  19.767  0.00  0.00    +0.000 N 
ATOM     27  C   UNL     1      47.363   5.868  20.458  0.00  0.00    +0.000 C 
ATOM     28  C   UNL     1      48.225   7.004  18.484  0.00  0.00    +0.000 A 
ATOM     29  O   UNL     1      48.460   5.928  17.936  0.00  0.00    +0.000 OA
ATOM     30  C   UNL     1      48.522   8.281  17.852  0.00  0.00    +0.000 A 
ENDBRANCH  17  20
ENDBRANCH   1  16
BRANCH   1  32
ATOM     31  C   UNL     1      51.058   8.313  11.797  0.00  0.00    +0.000 C 
ATOM     32  C   UNL     1      49.539   8.224  11.880  0.00  0.00    +0.000 C 
ENDBRANCH   1  32
TORSDOF 7
ENDMDL
MODEL 6
REMARK VINA RESULT:    -6.749      3.358      9.333
REMARK INTER + INTRA:         -10.474
REMARK INTER:                  -8.802
REMARK INTRA:                  -1.671
REMARK UNBOUND:                -0.962
REMARK  Name = 
REMARK  9 active torsions:
REMARK  status: ('A' for Active; 'I' for Inactive)
REMARK    1  A    between atoms: C_1  and  C_2
REMARK    2  A    between atoms: C_2  and  C_3
REMARK    3  A    between atoms: C_3  and  N_4
REMARK    4  A    between atoms: C_3  and  C_18
REMARK    5  A    between atoms: C_5  and  C_7
REMARK    6  A    between atoms: N_13  and  C_14
REMARK    7  A    between atoms: C_21  and  O_22
REMARK    8  A    between atoms: O_22  and  C_23
REMARK    9  A    between atoms: C_23  and  C_24
REMARK                            x       y       z     vdW  Elec       q    Type
REMARK                         _______ _______ _______ _____ _____    ______ ____
ROOT
ATOM      1  C   UNL     1      48.291   4.506  16.044  0.00  0.00    +0.000 C 
ENDROOT
BRANCH   1   2
ATOM      2  C   UNL     1      48.301   5.196  17.401  0.00  0.00    +0.000 A 
ATOM      3  C   UNL     1      49.472   5.775  17.911  0.00  0.00    +0.000 A 
ATOM      4  C   UNL     1      49.460   6.429  19.148  0.00  0.00    +0.000 A 
ATOM      5  C   UNL     1      48.276   6.529  19.879  0.00  0.00    +0.000 A 
ATOM      6  C   UNL     1      47.122   5.911  19.403  0.00  0.00    +0.000 A 
ATOM      7  C   UNL     1      47.130   5.268  18.170  0.00  0.00    +0.000 A 
BRANCH   5   8
ATOM      8  O   UNL     1      48.336   7.254  21.039  0.00  0.00    +0.000 OA
BRANCH   8   9
ATOM      9  C   UNL     1      49.093   8.470  20.927  0.00  0.00    +0.000 C 
BRANCH   9  10
ATOM     10  C   UNL     1      48.289   9.594  20.321  0.00  0.00    +0.000 A 
ATOM     11  C   UNL     1      48.718  10.250  19.169  0.00  0.00    +0.000 A 
ATOM     12  C   UNL     1      47.902  11.228  18.612  0.00  0.00    +0.000 A 
ATOM     13  C   UNL     1      46.680  11.516  19.200  0.00  0.00    +0.000 A 
ATOM     14  C   UNL     1      46.315  10.807  20.331  0.00  0.00    +0.000 A 
ATOM     15  N   UNL     1      47.087   9.854  20.900  0.00  0.00    +0.000 NA
ENDBRANCH   9  10
ENDBRANCH   8   9
ENDBRANCH   5   8
ENDBRANCH   1   2
BRANCH   1  16
ATOM     16  N   UNL     1      47.333   5.193  15.190  0.00  0.00    +0.000 N 
ATOM     17  C   UNL     1      47.681   5.940  14.097  0.00  0.00    +0.000 C 
ATOM     18  O   UNL     1      48.850   6.166  13.799  0.00  0.00    +0.000 OA
ATOM     19  H   UNL     1      46.365   4.910  15.287  0.00  0.00    +0.000 HD
BRANCH  17  20
ATOM     20  C   UNL     1      46.566   6.514  13.328  0.00  0.00    +0.000 A 
ATOM     21  C   UNL     1      46.528   7.881  13.089  0.00  0.00    +0.000 A 
ATOM     22  S   UNL     1      45.170   8.381  12.188  0.00  0.00    +0.000 S 
ATOM     23  C   UNL     1      44.605   6.782  12.049  0.00  0.00    +0.000 A 
ATOM     24  N   UNL     1      43.477   6.504  11.345  0.00  0.00    +0.000 NA
ATOM     25  C   UNL     1      43.173   5.248  11.295  0.00  0.00    +0.000 A 
ATOM     26  N   UNL     1      43.884   4.229  11.893  0.00  0.00    +0.000 N 
ATOM     27  C   UNL     1      43.429   2.858  11.783  0.00  0.00    +0.000 C 
ATOM     28  C   UNL     1      45.023   4.482  12.652  0.00  0.00    +0.000 A 
ATOM     29  O   UNL     1      45.630   3.601  13.258  0.00  0.00    +0.000 OA
ATOM     30  C   UNL     1      45.421   5.882  12.707  0.00  0.00    +0.000 A 
ENDBRANCH  17  20
ENDBRANCH   1  16
BRANCH   1  32
ATOM     31  C   UNL     1      49.069   2.137  16.655  0.00  0.00    +0.000 C 
ATOM     32  C   UNL     1      47.924   3.012  16.157  0.00  0.00    +0.000 C 
ENDBRANCH   1  32
TORSDOF 7
ENDMDL
MODEL 7
REMARK VINA RESULT:    -6.613      4.471      8.655
REMARK INTER + INTRA:         -10.281
REMARK INTER:                  -9.292
REMARK INTRA:                  -0.990
REMARK UNBOUND:                -0.962
REMARK  Name = 
REMARK  9 active torsions:
REMARK  status: ('A' for Active; 'I' for Inactive)
REMARK    1  A    between atoms: C_1  and  C_2
REMARK    2  A    between atoms: C_2  and  C_3
REMARK    3  A    between atoms: C_3  and  N_4
REMARK    4  A    between atoms: C_3  and  C_18
REMARK    5  A    between atoms: C_5  and  C_7
REMARK    6  A    between atoms: N_13  and  C_14
REMARK    7  A    between atoms: C_21  and  O_22
REMARK    8  A    between atoms: O_22  and  C_23
REMARK    9  A    between atoms: C_23  and  C_24
REMARK                            x       y       z     vdW  Elec       q    Type
REMARK                         _______ _______ _______ _____ _____    ______ ____
ROOT
ATOM      1  C   UNL     1      47.855   3.870  17.215  0.00  0.00    +0.000 C 
ENDROOT
BRANCH   1   2
ATOM      2  C   UNL     1      49.360   3.690  17.361  0.00  0.00    +0.000 A 
ATOM      3  C   UNL     1      50.209   4.796  17.511  0.00  0.00    +0.000 A 
ATOM      4  C   UNL     1      51.587   4.615  17.672  0.00  0.00    +0.000 A 
ATOM      5  C   UNL     1      52.129   3.328  17.702  0.00  0.00    +0.000 A 
ATOM      6  C   UNL     1      51.297   2.229  17.500  0.00  0.00    +0.000 A 
ATOM      7  C   UNL     1      49.926   2.407  17.350  0.00  0.00    +0.000 A 
BRANCH   5   8
ATOM      8  O   UNL     1      53.474   3.240  17.943  0.00  0.00    +0.000 OA
BRANCH   8   9
ATOM      9  C   UNL     1      53.870   2.029  18.605  0.00  0.00    +0.000 C 
BRANCH   9  10
ATOM     10  C   UNL     1      54.521   1.045  17.665  0.00  0.00    +0.000 A 
ATOM     11  C   UNL     1      54.300  -0.326  17.787  0.00  0.00    +0.000 A 
ATOM     12  C   UNL     1      54.866  -1.181  16.849  0.00  0.00    +0.000 A 
ATOM     13  C   UNL     1      55.618  -0.655  15.809  0.00  0.00    +0.000 A 
ATOM     14  C   UNL     1      55.775   0.718  15.745  0.00  0.00    +0.000 A 
ATOM     15  N   UNL     1      55.242   1.576  16.642  0.00  0.00    +0.000 NA
ENDBRANCH   9  10
ENDBRANCH   8   9
ENDBRANCH   5   8
ENDBRANCH   1   2
BRANCH   1  16
ATOM     16  N   UNL     1      47.611   4.810  16.130  0.00  0.00    +0.000 N 
ATOM     17  C   UNL     1      47.369   4.438  14.836  0.00  0.00    +0.000 C 
ATOM     18  O   UNL     1      47.427   3.269  14.464  0.00  0.00    +0.000 OA
ATOM     19  H   UNL     1      47.389   5.760  16.404  0.00  0.00    +0.000 HD
BRANCH  17  20
ATOM     20  C   UNL     1      47.093   5.532  13.892  0.00  0.00    +0.000 A 
ATOM     21  C   UNL     1      48.061   6.498  13.658  0.00  0.00    +0.000 A 
ATOM     22  S   UNL     1      47.580   7.695  12.543  0.00  0.00    +0.000 S 
ATOM     23  C   UNL     1      46.074   6.940  12.300  0.00  0.00    +0.000 A 
ATOM     24  N   UNL     1      45.179   7.448  11.414  0.00  0.00    +0.000 NA
ATOM     25  C   UNL     1      44.086   6.765  11.305  0.00  0.00    +0.000 A 
ATOM     26  N   UNL     1      43.788   5.617  12.009  0.00  0.00    +0.000 N 
ATOM     27  C   UNL     1      42.516   4.951  11.816  0.00  0.00    +0.000 C 
ATOM     28  C   UNL     1      44.666   5.091  12.952  0.00  0.00    +0.000 A 
ATOM     29  O   UNL     1      44.391   4.114  13.647  0.00  0.00    +0.000 OA
ATOM     30  C   UNL     1      45.925   5.810  13.082  0.00  0.00    +0.000 A 
ENDBRANCH  17  20
ENDBRANCH   1  16
BRANCH   1  32
ATOM     31  C   UNL     1      47.206   5.901  18.646  0.00  0.00    +0.000 C 
ATOM     32  C   UNL     1      47.203   4.382  18.516  0.00  0.00    +0.000 C 
ENDBRANCH   1  32
TORSDOF 7
ENDMDL
MODEL 8
REMARK VINA RESULT:    -6.538      2.055      2.721
REMARK INTER + INTRA:         -10.176
REMARK INTER:                  -9.166
REMARK INTRA:                  -1.010
REMARK UNBOUND:                -0.962
REMARK  Name = 
REMARK  9 active torsions:
REMARK  status: ('A' for Active; 'I' for Inactive)
REMARK    1  A    between atoms: C_1  and  C_2
REMARK    2  A    between atoms: C_2  and  C_3
REMARK    3  A    between atoms: C_3  and  N_4
REMARK    4  A    between atoms: C_3  and  C_18
REMARK    5  A    between atoms: C_5  and  C_7
REMARK    6  A    between atoms: N_13  and  C_14
REMARK    7  A    between atoms: C_21  and  O_22
REMARK    8  A    between atoms: O_22  and  C_23
REMARK    9  A    between atoms: C_23  and  C_24
REMARK                            x       y       z     vdW  Elec       q    Type
REMARK                         _______ _______ _______ _____ _____    ______ ____
ROOT
ATOM      1  C   UNL     1      48.772   7.765  13.737  0.00  0.00    +0.000 C 
ENDROOT
BRANCH   1   2
ATOM      2  C   UNL     1      47.518   6.963  13.418  0.00  0.00    +0.000 A 
ATOM      3  C   UNL     1      46.382   7.582  12.876  0.00  0.00    +0.000 A 
ATOM      4  C   UNL     1      45.245   6.828  12.563  0.00  0.00    +0.000 A 
ATOM      5  C   UNL     1      45.237   5.448  12.771  0.00  0.00    +0.000 A 
ATOM      6  C   UNL     1      46.343   4.837  13.358  0.00  0.00    +0.000 A 
ATOM      7  C   UNL     1      47.477   5.583  13.661  0.00  0.00    +0.000 A 
BRANCH   5   8
ATOM      8  O   UNL     1      44.114   4.778  12.364  0.00  0.00    +0.000 OA
BRANCH   8   9
ATOM      9  C   UNL     1      43.690   5.108  11.032  0.00  0.00    +0.000 C 
BRANCH   9  10
ATOM     10  C   UNL     1      44.338   4.232   9.988  0.00  0.00    +0.000 A 
ATOM     11  C   UNL     1      45.274   4.745   9.092  0.00  0.00    +0.000 A 
ATOM     12  C   UNL     1      45.893   3.877   8.200  0.00  0.00    +0.000 A 
ATOM     13  C   UNL     1      45.582   2.527   8.232  0.00  0.00    +0.000 A 
ATOM     14  C   UNL     1      44.658   2.090   9.163  0.00  0.00    +0.000 A 
ATOM     15  N   UNL     1      44.035   2.907  10.041  0.00  0.00    +0.000 NA
ENDBRANCH   9  10
ENDBRANCH   8   9
ENDBRANCH   5   8
ENDBRANCH   1   2
BRANCH   1  16
ATOM     16  N   UNL     1      49.497   7.077  14.795  0.00  0.00    +0.000 N 
ATOM     17  C   UNL     1      50.765   7.404  15.192  0.00  0.00    +0.000 C 
ATOM     18  O   UNL     1      51.435   8.257  14.617  0.00  0.00    +0.000 OA
ATOM     19  H   UNL     1      48.942   6.488  15.405  0.00  0.00    +0.000 HD
BRANCH  17  20
ATOM     20  C   UNL     1      51.310   6.627  16.315  0.00  0.00    +0.000 A 
ATOM     21  C   UNL     1      52.660   6.305  16.337  0.00  0.00    +0.000 A 
ATOM     22  S   UNL     1      53.126   5.399  17.704  0.00  0.00    +0.000 S 
ATOM     23  C   UNL     1      51.546   5.439  18.337  0.00  0.00    +0.000 A 
ATOM     24  N   UNL     1      51.265   4.866  19.536  0.00  0.00    +0.000 NA
ATOM     25  C   UNL     1      50.034   4.991  19.913  0.00  0.00    +0.000 A 
ATOM     26  N   UNL     1      49.040   5.629  19.201  0.00  0.00    +0.000 N 
ATOM     27  C   UNL     1      47.690   5.684  19.721  0.00  0.00    +0.000 C 
ATOM     28  C   UNL     1      49.285   6.193  17.953  0.00  0.00    +0.000 A 
ATOM     29  O   UNL     1      48.401   6.699  17.264  0.00  0.00    +0.000 OA
ATOM     30  C   UNL     1      50.668   6.105  17.504  0.00  0.00    +0.000 A 
ENDBRANCH  17  20
ENDBRANCH   1  16
BRANCH   1  32
ATOM     31  C   UNL     1      48.061   9.333  15.642  0.00  0.00    +0.000 C 
ATOM     32  C   UNL     1      48.443   9.209  14.171  0.00  0.00    +0.000 C 
ENDBRANCH   1  32
TORSDOF 7
ENDMDL
MODEL 9
REMARK VINA RESULT:    -6.334      3.303      8.826
REMARK INTER + INTRA:          -9.888
REMARK INTER:                  -8.179
REMARK INTRA:                  -1.710
REMARK UNBOUND:                -0.962
REMARK  Name = 
REMARK  9 active torsions:
REMARK  status: ('A' for Active; 'I' for Inactive)
REMARK    1  A    between atoms: C_1  and  C_2
REMARK    2  A    between atoms: C_2  and  C_3
REMARK    3  A    between atoms: C_3  and  N_4
REMARK    4  A    between atoms: C_3  and  C_18
REMARK    5  A    between atoms: C_5  and  C_7
REMARK    6  A    between atoms: N_13  and  C_14
REMARK    7  A    between atoms: C_21  and  O_22
REMARK    8  A    between atoms: O_22  and  C_23
REMARK    9  A    between atoms: C_23  and  C_24
REMARK                            x       y       z     vdW  Elec       q    Type
REMARK                         _______ _______ _______ _____ _____    ______ ____
ROOT
ATOM      1  C   UNL     1      48.130   4.718  16.166  0.00  0.00    +0.000 C 
ENDROOT
BRANCH   1   2
ATOM      2  C   UNL     1      48.673   5.797  17.092  0.00  0.00    +0.000 A 
ATOM      3  C   UNL     1      50.032   6.145  17.079  0.00  0.00    +0.000 A 
ATOM      4  C   UNL     1      50.513   7.157  17.918  0.00  0.00    +0.000 A 
ATOM      5  C   UNL     1      49.640   7.843  18.764  0.00  0.00    +0.000 A 
ATOM      6  C   UNL     1      48.300   7.466  18.820  0.00  0.00    +0.000 A 
ATOM      7  C   UNL     1      47.819   6.467  17.980  0.00  0.00    +0.000 A 
BRANCH   5   8
ATOM      8  O   UNL     1      50.180   8.871  19.491  0.00  0.00    +0.000 OA
BRANCH   8   9
ATOM      9  C   UNL     1      49.625  10.158  19.181  0.00  0.00    +0.000 C 
BRANCH   9  10
ATOM     10  C   UNL     1      49.920  10.587  17.765  0.00  0.00    +0.000 A 
ATOM     11  C   UNL     1      48.894  10.889  16.872  0.00  0.00    +0.000 A 
ATOM     12  C   UNL     1      49.225  11.350  15.603  0.00  0.00    +0.000 A 
ATOM     13  C   UNL     1      50.558  11.515  15.261  0.00  0.00    +0.000 A 
ATOM     14  C   UNL     1      51.519  11.214  16.210  0.00  0.00    +0.000 A 
ATOM     15  N   UNL     1      51.231  10.760  17.450  0.00  0.00    +0.000 NA
ENDBRANCH   9  10
ENDBRANCH   8   9
ENDBRANCH   5   8
ENDBRANCH   1   2
BRANCH   1  16
ATOM     16  N   UNL     1      47.194   5.341  15.240  0.00  0.00    +0.000 N 
ATOM     17  C   UNL     1      47.555   5.882  14.036  0.00  0.00    +0.000 C 
ATOM     18  O   UNL     1      48.726   5.966  13.677  0.00  0.00    +0.000 OA
ATOM     19  H   UNL     1      46.212   5.154  15.405  0.00  0.00    +0.000 HD
BRANCH  17  20
ATOM     20  C   UNL     1      46.459   6.419  13.216  0.00  0.00    +0.000 A 
ATOM     21  C   UNL     1      46.432   7.772  12.906  0.00  0.00    +0.000 A 
ATOM     22  S   UNL     1      45.094   8.229  11.953  0.00  0.00    +0.000 S 
ATOM     23  C   UNL     1      44.524   6.627  11.887  0.00  0.00    +0.000 A 
ATOM     24  N   UNL     1      43.408   6.317  11.177  0.00  0.00    +0.000 NA
ATOM     25  C   UNL     1      43.099   5.061  11.186  0.00  0.00    +0.000 A 
ATOM     26  N   UNL     1      43.794   4.072  11.850  0.00  0.00    +0.000 N 
ATOM     27  C   UNL     1      43.335   2.699  11.803  0.00  0.00    +0.000 C 
ATOM     28  C   UNL     1      44.919   4.360  12.617  0.00  0.00    +0.000 A 
ATOM     29  O   UNL     1      45.510   3.510  13.280  0.00  0.00    +0.000 OA
ATOM     30  C   UNL     1      45.322   5.759  12.607  0.00  0.00    +0.000 A 
ENDBRANCH  17  20
ENDBRANCH   1  16
BRANCH   1  32
ATOM     31  C   UNL     1      48.358   2.824  17.884  0.00  0.00    +0.000 C 
ATOM     32  C   UNL     1      47.430   3.584  16.943  0.00  0.00    +0.000 C 
ENDBRANCH   1  32
TORSDOF 7
ENDMDL
