MODEL 1
REMARK VINA RESULT:    -6.990      0.000      0.000
REMARK INTER + INTRA:         -11.540
REMARK INTER:                 -10.259
REMARK INTRA:                  -1.281
REMARK UNBOUND:                -1.281
REMARK  Name = 
REMARK  9 active torsions:
REMARK  status: ('A' for Active; 'I' for Inactive)
REMARK    1  A    between atoms: C_1  and  O_2
REMARK    2  A    between atoms: O_2  and  C_3
REMARK    3  A    between atoms: C_3  and  C_4
REMARK    4  A    between atoms: C_4  and  N_5
REMARK    5  A    between atoms: N_5  and  C_6
REMARK    6  A    between atoms: C_6  and  C_7
REMARK    7  A    between atoms: C_10  and  C_11
REMARK    8  A    between atoms: C_11  and  N_12
REMARK    9  A    between atoms: C_20  and  C_22
REMARK                            x       y       z     vdW  Elec       q    Type
REMARK                         _______ _______ _______ _____ _____    ______ ____
ROOT
ATOM      1  N   UNL     1      45.929   7.113  11.768  0.00  0.00    +0.000 N 
ATOM      2  C   UNL     1      44.668   6.637  11.340  0.00  0.00    +0.000 C 
ATOM      3  O   UNL     1      43.788   7.417  10.985  0.00  0.00    +0.000 OA
ENDROOT
BRANCH   2   4
ATOM      4  C   UNL     1      44.375   5.185  11.341  0.00  0.00    +0.000 A 
ATOM      5  C   UNL     1      43.628   4.508  12.295  0.00  0.00    +0.000 A 
ATOM      6  S   UNL     1      43.438   2.842  11.974  0.00  0.00    +0.000 S 
ATOM      7  C   UNL     1      44.186   3.004  10.459  0.00  0.00    +0.000 A 
ATOM      8  N   UNL     1      44.224   1.964   9.587  0.00  0.00    +0.000 NA
ATOM      9  C   UNL     1      44.772   2.242   8.455  0.00  0.00    +0.000 A 
ATOM     10  N   UNL     1      45.306   3.459   8.122  0.00  0.00    +0.000 N 
ATOM     11  C   UNL     1      45.409   4.502   9.022  0.00  0.00    +0.000 A 
ATOM     12  O   UNL     1      46.112   5.474   8.781  0.00  0.00    +0.000 OA
ATOM     13  C   UNL     1      44.687   4.275  10.261  0.00  0.00    +0.000 A 
ATOM     14  H   UNL     1      45.787   3.591   7.245  0.00  0.00    +0.000 HD
ENDBRANCH   2   4
BRANCH   1  15
ATOM     15  C   UNL     1      46.124   8.574  11.805  0.00  0.00    +0.000 C 
BRANCH  15  16
ATOM     16  C   UNL     1      45.341   9.307  12.909  0.00  0.00    +0.000 C 
BRANCH  16  18
ATOM     17  C   UNL     1      45.180  10.888  11.159  0.00  0.00    +0.000 C 
ATOM     18  O   UNL     1      44.563  10.362  12.330  0.00  0.00    +0.000 OA
ENDBRANCH  16  18
ENDBRANCH  15  16
ENDBRANCH   1  15
BRANCH   1  19
ATOM     19  C   UNL     1      46.949   6.202  12.261  0.00  0.00    +0.000 C 
BRANCH  19  20
ATOM     20  C   UNL     1      47.205   5.953  13.722  0.00  0.00    +0.000 A 
ATOM     21  C   UNL     1      46.707   4.785  14.320  0.00  0.00    +0.000 A 
ATOM     22  C   UNL     1      47.246   4.319  15.522  0.00  0.00    +0.000 A 
ATOM     23  C   UNL     1      48.266   5.032  16.167  0.00  0.00    +0.000 A 
ATOM     24  C   UNL     1      48.683   6.254  15.619  0.00  0.00    +0.000 A 
ATOM     25  C   UNL     1      48.154   6.715  14.411  0.00  0.00    +0.000 A 
BRANCH  23  26
ATOM     26  C   UNL     1      48.897   4.520  17.444  0.00  0.00    +0.000 C 
BRANCH  26  27
ATOM     27  N   UNL     1      50.181   3.814  17.303  0.00  0.00    +0.000 NA
ATOM     28  C   UNL     1      51.216   4.162  18.305  0.00  0.00    +0.000 C 
ATOM     29  C   UNL     1      52.496   3.318  18.084  0.00  0.00    +0.000 C 
ATOM     30  O   UNL     1      52.229   1.908  18.106  0.00  0.00    +0.000 OA
ATOM     31  C   UNL     1      51.222   1.578  17.142  0.00  0.00    +0.000 C 
ATOM     32  C   UNL     1      49.936   2.356  17.430  0.00  0.00    +0.000 C 
ENDBRANCH  26  27
ENDBRANCH  23  26
ENDBRANCH  19  20
ENDBRANCH   1  19
TORSDOF 8
ENDMDL
MODEL 2
REMARK VINA RESULT:    -6.419      1.469      2.127
REMARK INTER + INTRA:         -10.702
REMARK INTER:                  -9.286
REMARK INTRA:                  -1.416
REMARK UNBOUND:                -1.281
REMARK  Name = 
REMARK  9 active torsions:
REMARK  status: ('A' for Active; 'I' for Inactive)
REMARK    1  A    between atoms: C_1  and  O_2
REMARK    2  A    between atoms: O_2  and  C_3
REMARK    3  A    between atoms: C_3  and  C_4
REMARK    4  A    between atoms: C_4  and  N_5
REMARK    5  A    between atoms: N_5  and  C_6
REMARK    6  A    between atoms: C_6  and  C_7
REMARK    7  A    between atoms: C_10  and  C_11
REMARK    8  A    between atoms: C_11  and  N_12
REMARK    9  A    between atoms: C_20  and  C_22
REMARK                            x       y       z     vdW  Elec       q    Type
REMARK                         _______ _______ _______ _____ _____    ______ ____
ROOT
ATOM      1  N   UNL     1      46.383   7.457  12.303  0.00  0.00    +0.000 N 
ATOM      2  C   UNL     1      45.332   7.286  11.372  0.00  0.00    +0.000 C 
ATOM      3  O   UNL     1      44.567   8.211  11.110  0.00  0.00    +0.000 OA
ENDROOT
BRANCH   2   4
ATOM      4  C   UNL     1      45.117   5.975  10.717  0.00  0.00    +0.000 A 
ATOM      5  C   UNL     1      45.657   5.575   9.503  0.00  0.00    +0.000 A 
ATOM      6  S   UNL     1      45.250   3.979   9.054  0.00  0.00    +0.000 S 
ATOM      7  C   UNL     1      44.494   3.705  10.549  0.00  0.00    +0.000 A 
ATOM      8  N   UNL     1      44.045   2.468  10.885  0.00  0.00    +0.000 NA
ATOM      9  C   UNL     1      43.543   2.391  12.069  0.00  0.00    +0.000 A 
ATOM     10  N   UNL     1      43.430   3.442  12.942  0.00  0.00    +0.000 N 
ATOM     11  C   UNL     1      43.750   4.740  12.594  0.00  0.00    +0.000 A 
ATOM     12  O   UNL     1      43.401   5.682  13.291  0.00  0.00    +0.000 OA
ATOM     13  C   UNL     1      44.440   4.848  11.321  0.00  0.00    +0.000 A 
ATOM     14  H   UNL     1      42.961   3.331  13.827  0.00  0.00    +0.000 HD
ENDBRANCH   2   4
BRANCH   1  15
ATOM     15  C   UNL     1      46.492   8.769  12.966  0.00  0.00    +0.000 C 
BRANCH  15  16
ATOM     16  C   UNL     1      47.733   9.593  12.578  0.00  0.00    +0.000 C 
BRANCH  16  18
ATOM     17  C   UNL     1      46.183  11.194  11.786  0.00  0.00    +0.000 C 
ATOM     18  O   UNL     1      47.398  10.500  11.519  0.00  0.00    +0.000 OA
ENDBRANCH  16  18
ENDBRANCH  15  16
ENDBRANCH   1  15
BRANCH   1  19
ATOM     19  C   UNL     1      47.245   6.348  12.677  0.00  0.00    +0.000 C 
BRANCH  19  20
ATOM     20  C   UNL     1      47.453   5.896  14.096  0.00  0.00    +0.000 A 
ATOM     21  C   UNL     1      46.925   4.664  14.512  0.00  0.00    +0.000 A 
ATOM     22  C   UNL     1      47.422   4.030  15.654  0.00  0.00    +0.000 A 
ATOM     23  C   UNL     1      48.427   4.634  16.421  0.00  0.00    +0.000 A 
ATOM     24  C   UNL     1      48.871   5.915  16.060  0.00  0.00    +0.000 A 
ATOM     25  C   UNL     1      48.385   6.544  14.912  0.00  0.00    +0.000 A 
BRANCH  23  26
ATOM     26  C   UNL     1      49.012   3.944  17.634  0.00  0.00    +0.000 C 
BRANCH  26  27
ATOM     27  N   UNL     1      50.388   3.438  17.499  0.00  0.00    +0.000 NA
ATOM     28  C   UNL     1      51.353   3.928  18.512  0.00  0.00    +0.000 C 
ATOM     29  C   UNL     1      52.746   3.286  18.296  0.00  0.00    +0.000 C 
ATOM     30  O   UNL     1      52.692   1.851  18.307  0.00  0.00    +0.000 OA
ATOM     31  C   UNL     1      51.752   1.383  17.332  0.00  0.00    +0.000 C 
ATOM     32  C   UNL     1      50.362   1.959  17.615  0.00  0.00    +0.000 C 
ENDBRANCH  26  27
ENDBRANCH  23  26
ENDBRANCH  19  20
ENDBRANCH   1  19
TORSDOF 8
ENDMDL
MODEL 3
REMARK VINA RESULT:    -6.112      2.622      7.867
REMARK INTER + INTRA:         -10.251
REMARK INTER:                  -9.628
REMARK INTRA:                  -0.623
REMARK UNBOUND:                -1.281
REMARK  Name = 
REMARK  9 active torsions:
REMARK  status: ('A' for Active; 'I' for Inactive)
REMARK    1  A    between atoms: C_1  and  O_2
REMARK    2  A    between atoms: O_2  and  C_3
REMARK    3  A    between atoms: C_3  and  C_4
REMARK    4  A    between atoms: C_4  and  N_5
REMARK    5  A    between atoms: N_5  and  C_6
REMARK    6  A    between atoms: C_6  and  C_7
REMARK    7  A    between atoms: C_10  and  C_11
REMARK    8  A    between atoms: C_11  and  N_12
REMARK    9  A    between atoms: C_20  and  C_22
REMARK                            x       y       z     vdW  Elec       q    Type
REMARK                         _______ _______ _______ _____ _____    ______ ____
ROOT
ATOM      1  N   UNL     1      48.486   7.269  14.901  0.00  0.00    +0.000 N 
ATOM      2  C   UNL     1      48.672   6.971  16.270  0.00  0.00    +0.000 C 
ATOM      3  O   UNL     1      48.924   7.860  17.080  0.00  0.00    +0.000 OA
ENDROOT
BRANCH   2   4
ATOM      4  C   UNL     1      48.597   5.571  16.749  0.00  0.00    +0.000 A 
ATOM      5  C   UNL     1      47.463   4.772  16.748  0.00  0.00    +0.000 A 
ATOM      6  S   UNL     1      47.729   3.187  17.324  0.00  0.00    +0.000 S 
ATOM      7  C   UNL     1      49.402   3.456  17.418  0.00  0.00    +0.000 A 
ATOM      8  N   UNL     1      50.255   2.440  17.712  0.00  0.00    +0.000 NA
ATOM      9  C   UNL     1      51.499   2.773  17.696  0.00  0.00    +0.000 A 
ATOM     10  N   UNL     1      51.970   4.033  17.434  0.00  0.00    +0.000 N 
ATOM     11  C   UNL     1      51.137   5.122  17.263  0.00  0.00    +0.000 A 
ATOM     12  O   UNL     1      51.578   6.262  17.289  0.00  0.00    +0.000 OA
ATOM     13  C   UNL     1      49.734   4.767  17.142  0.00  0.00    +0.000 A 
ATOM     14  H   UNL     1      52.953   4.244  17.510  0.00  0.00    +0.000 HD
ENDBRANCH   2   4
BRANCH   1  15
ATOM     15  C   UNL     1      48.645   8.676  14.487  0.00  0.00    +0.000 C 
BRANCH  15  16
ATOM     16  C   UNL     1      49.692   8.916  13.385  0.00  0.00    +0.000 C 
BRANCH  16  18
ATOM     17  C   UNL     1      48.127  10.422  12.448  0.00  0.00    +0.000 C 
ATOM     18  O   UNL     1      49.039   9.359  12.188  0.00  0.00    +0.000 OA
ENDBRANCH  16  18
ENDBRANCH  15  16
ENDBRANCH   1  15
BRANCH   1  19
ATOM     19  C   UNL     1      48.264   6.216  13.924  0.00  0.00    +0.000 C 
BRANCH  19  20
ATOM     20  C   UNL     1      46.952   5.994  13.222  0.00  0.00    +0.000 A 
ATOM     21  C   UNL     1      46.580   6.845  12.171  0.00  0.00    +0.000 A 
ATOM     22  C   UNL     1      45.607   6.448  11.249  0.00  0.00    +0.000 A 
ATOM     23  C   UNL     1      44.963   5.212  11.385  0.00  0.00    +0.000 A 
ATOM     24  C   UNL     1      45.263   4.414  12.499  0.00  0.00    +0.000 A 
ATOM     25  C   UNL     1      46.244   4.803  13.414  0.00  0.00    +0.000 A 
BRANCH  23  26
ATOM     26  C   UNL     1      43.942   4.742  10.372  0.00  0.00    +0.000 C 
BRANCH  26  27
ATOM     27  N   UNL     1      44.447   3.904   9.272  0.00  0.00    +0.000 NA
ATOM     28  C   UNL     1      45.600   4.457   8.523  0.00  0.00    +0.000 C 
ATOM     29  C   UNL     1      46.071   3.463   7.432  0.00  0.00    +0.000 C 
ATOM     30  O   UNL     1      46.395   2.174   7.972  0.00  0.00    +0.000 OA
ATOM     31  C   UNL     1      45.279   1.647   8.702  0.00  0.00    +0.000 C 
ATOM     32  C   UNL     1      44.885   2.602   9.832  0.00  0.00    +0.000 C 
ENDBRANCH  26  27
ENDBRANCH  23  26
ENDBRANCH  19  20
ENDBRANCH   1  19
TORSDOF 8
ENDMDL
MODEL 4
REMARK VINA RESULT:    -6.059      3.613      7.957
REMARK INTER + INTRA:         -10.173
REMARK INTER:                  -8.597
REMARK INTRA:                  -1.576
REMARK UNBOUND:                -1.281
REMARK  Name = 
REMARK  9 active torsions:
REMARK  status: ('A' for Active; 'I' for Inactive)
REMARK    1  A    between atoms: C_1  and  O_2
REMARK    2  A    between atoms: O_2  and  C_3
REMARK    3  A    between atoms: C_3  and  C_4
REMARK    4  A    between atoms: C_4  and  N_5
REMARK    5  A    between atoms: N_5  and  C_6
REMARK    6  A    between atoms: C_6  and  C_7
REMARK    7  A    between atoms: C_10  and  C_11
REMARK    8  A    between atoms: C_11  and  N_12
REMARK    9  A    between atoms: C_20  and  C_22
REMARK                            x       y       z     vdW  Elec       q    Type
REMARK                         _______ _______ _______ _____ _____    ______ ____
ROOT
ATOM      1  N   UNL     1      48.645   8.183  17.093  0.00  0.00    +0.000 N 
ATOM      2  C   UNL     1      49.048   7.287  18.110  0.00  0.00    +0.000 C 
ATOM      3  O   UNL     1      48.632   7.412  19.260  0.00  0.00    +0.000 OA
ENDROOT
BRANCH   2   4
ATOM      4  C   UNL     1      50.005   6.197  17.812  0.00  0.00    +0.000 A 
ATOM      5  C   UNL     1      51.379   6.248  18.004  0.00  0.00    +0.000 A 
ATOM      6  S   UNL     1      52.190   4.799  17.606  0.00  0.00    +0.000 S 
ATOM      7  C   UNL     1      50.717   3.996  17.341  0.00  0.00    +0.000 A 
ATOM      8  N   UNL     1      50.686   2.660  17.104  0.00  0.00    +0.000 NA
ATOM      9  C   UNL     1      49.500   2.173  16.976  0.00  0.00    +0.000 A 
ATOM     10  N   UNL     1      48.342   2.903  17.042  0.00  0.00    +0.000 N 
ATOM     11  C   UNL     1      48.332   4.280  17.148  0.00  0.00    +0.000 A 
ATOM     12  O   UNL     1      47.308   4.919  16.948  0.00  0.00    +0.000 OA
ATOM     13  C   UNL     1      49.637   4.852  17.427  0.00  0.00    +0.000 A 
ATOM     14  H   UNL     1      47.449   2.473  16.861  0.00  0.00    +0.000 HD
ENDBRANCH   2   4
BRANCH   1  15
ATOM     15  C   UNL     1      47.745   9.285  17.479  0.00  0.00    +0.000 C 
BRANCH  15  16
ATOM     16  C   UNL     1      48.418  10.664  17.601  0.00  0.00    +0.000 C 
BRANCH  16  18
ATOM     17  C   UNL     1      47.149  10.676  19.596  0.00  0.00    +0.000 C 
ATOM     18  O   UNL     1      47.703  11.467  18.550  0.00  0.00    +0.000 OA
ENDBRANCH  16  18
ENDBRANCH  15  16
ENDBRANCH   1  15
BRANCH   1  19
ATOM     19  C   UNL     1      49.191   8.090  15.748  0.00  0.00    +0.000 C 
BRANCH  19  20
ATOM     20  C   UNL     1      48.363   7.768  14.534  0.00  0.00    +0.000 A 
ATOM     21  C   UNL     1      48.247   6.435  14.113  0.00  0.00    +0.000 A 
ATOM     22  C   UNL     1      47.198   6.046  13.275  0.00  0.00    +0.000 A 
ATOM     23  C   UNL     1      46.272   6.990  12.812  0.00  0.00    +0.000 A 
ATOM     24  C   UNL     1      46.459   8.339  13.149  0.00  0.00    +0.000 A 
ATOM     25  C   UNL     1      47.498   8.727  13.997  0.00  0.00    +0.000 A 
BRANCH  23  26
ATOM     26  C   UNL     1      45.103   6.582  11.942  0.00  0.00    +0.000 C 
BRANCH  26  27
ATOM     27  N   UNL     1      44.834   5.138  11.840  0.00  0.00    +0.000 NA
ATOM     28  C   UNL     1      43.795   4.613  12.755  0.00  0.00    +0.000 C 
ATOM     29  C   UNL     1      43.567   3.100  12.515  0.00  0.00    +0.000 C 
ATOM     30  O   UNL     1      43.228   2.810  11.150  0.00  0.00    +0.000 OA
ATOM     31  C   UNL     1      44.232   3.327  10.269  0.00  0.00    +0.000 C 
ATOM     32  C   UNL     1      44.379   4.839  10.459  0.00  0.00    +0.000 C 
ENDBRANCH  26  27
ENDBRANCH  23  26
ENDBRANCH  19  20
ENDBRANCH   1  19
TORSDOF 8
ENDMDL
MODEL 5
REMARK VINA RESULT:    -6.031      3.366      8.011
REMARK INTER + INTRA:         -10.132
REMARK INTER:                  -8.936
REMARK INTRA:                  -1.197
REMARK UNBOUND:                -1.281
REMARK  Name = 
REMARK  9 active torsions:
REMARK  status: ('A' for Active; 'I' for Inactive)
REMARK    1  A    between atoms: C_1  and  O_2
REMARK    2  A    between atoms: O_2  and  C_3
REMARK    3  A    between atoms: C_3  and  C_4
REMARK    4  A    between atoms: C_4  and  N_5
REMARK    5  A    between atoms: N_5  and  C_6
REMARK    6  A    between atoms: C_6  and  C_7
REMARK    7  A    between atoms: C_10  and  C_11
REMARK    8  A    between atoms: C_11  and  N_12
REMARK    9  A    between atoms: C_20  and  C_22
REMARK                            x       y       z     vdW  Elec       q    Type
REMARK                         _______ _______ _______ _____ _____    ______ ____
ROOT
ATOM      1  N   UNL     1      49.255   8.078  14.085  0.00  0.00    +0.000 N 
ATOM      2  C   UNL     1      49.976   8.218  15.293  0.00  0.00    +0.000 C 
ATOM      3  O   UNL     1      51.205   8.217  15.297  0.00  0.00    +0.000 OA
ENDROOT
BRANCH   2   4
ATOM      4  C   UNL     1      49.260   8.337  16.584  0.00  0.00    +0.000 A 
ATOM      5  C   UNL     1      48.859   9.523  17.184  0.00  0.00    +0.000 A 
ATOM      6  S   UNL     1      48.009   9.307  18.649  0.00  0.00    +0.000 S 
ATOM      7  C   UNL     1      47.985   7.623  18.438  0.00  0.00    +0.000 A 
ATOM      8  N   UNL     1      47.276   6.825  19.278  0.00  0.00    +0.000 NA
ATOM      9  C   UNL     1      47.302   5.575  18.969  0.00  0.00    +0.000 A 
ATOM     10  N   UNL     1      47.988   5.045  17.907  0.00  0.00    +0.000 N 
ATOM     11  C   UNL     1      48.827   5.797  17.108  0.00  0.00    +0.000 A 
ATOM     12  O   UNL     1      49.615   5.260  16.343  0.00  0.00    +0.000 OA
ATOM     13  C   UNL     1      48.724   7.227  17.341  0.00  0.00    +0.000 A 
ATOM     14  H   UNL     1      48.027   4.048  17.763  0.00  0.00    +0.000 HD
ENDBRANCH   2   4
BRANCH   1  15
ATOM     15  C   UNL     1      50.036   7.895  12.848  0.00  0.00    +0.000 C 
BRANCH  15  16
ATOM     16  C   UNL     1      50.265   9.176  12.027  0.00  0.00    +0.000 C 
BRANCH  16  18
ATOM     17  C   UNL     1      48.508  10.697  11.585  0.00  0.00    +0.000 C 
ATOM     18  O   UNL     1      49.104   9.453  11.231  0.00  0.00    +0.000 OA
ENDBRANCH  16  18
ENDBRANCH  15  16
ENDBRANCH   1  15
BRANCH   1  19
ATOM     19  C   UNL     1      47.803   8.001  14.079  0.00  0.00    +0.000 C 
BRANCH  19  20
ATOM     20  C   UNL     1      47.015   7.211  13.070  0.00  0.00    +0.000 A 
ATOM     21  C   UNL     1      46.922   5.818  13.205  0.00  0.00    +0.000 A 
ATOM     22  C   UNL     1      45.903   5.110  12.562  0.00  0.00    +0.000 A 
ATOM     23  C   UNL     1      44.983   5.777  11.743  0.00  0.00    +0.000 A 
ATOM     24  C   UNL     1      45.148   7.153  11.526  0.00  0.00    +0.000 A 
ATOM     25  C   UNL     1      46.158   7.864  12.178  0.00  0.00    +0.000 A 
BRANCH  23  26
ATOM     26  C   UNL     1      43.844   5.038  11.076  0.00  0.00    +0.000 C 
BRANCH  26  27
ATOM     27  N   UNL     1      44.185   4.256   9.875  0.00  0.00    +0.000 NA
ATOM     28  C   UNL     1      45.391   4.704   9.141  0.00  0.00    +0.000 C 
ATOM     29  C   UNL     1      45.674   3.774   7.934  0.00  0.00    +0.000 C 
ATOM     30  O   UNL     1      45.805   2.399   8.325  0.00  0.00    +0.000 OA
ATOM     31  C   UNL     1      44.639   1.974   9.041  0.00  0.00    +0.000 C 
ATOM     32  C   UNL     1      44.428   2.849  10.279  0.00  0.00    +0.000 C 
ENDBRANCH  26  27
ENDBRANCH  23  26
ENDBRANCH  19  20
ENDBRANCH   1  19
TORSDOF 8
ENDMDL
MODEL 6
REMARK VINA RESULT:    -5.987      3.368      8.267
REMARK INTER + INTRA:         -10.069
REMARK INTER:                  -8.939
REMARK INTRA:                  -1.129
REMARK UNBOUND:                -1.281
REMARK  Name = 
REMARK  9 active torsions:
REMARK  status: ('A' for Active; 'I' for Inactive)
REMARK    1  A    between atoms: C_1  and  O_2
REMARK    2  A    between atoms: O_2  and  C_3
REMARK    3  A    between atoms: C_3  and  C_4
REMARK    4  A    between atoms: C_4  and  N_5
REMARK    5  A    between atoms: N_5  and  C_6
REMARK    6  A    between atoms: C_6  and  C_7
REMARK    7  A    between atoms: C_10  and  C_11
REMARK    8  A    between atoms: C_11  and  N_12
REMARK    9  A    between atoms: C_20  and  C_22
REMARK                            x       y       z     vdW  Elec       q    Type
REMARK                         _______ _______ _______ _____ _____    ______ ____
ROOT
ATOM      1  N   UNL     1      49.088   7.433  14.343  0.00  0.00    +0.000 N 
ATOM      2  C   UNL     1      49.651   6.795  15.472  0.00  0.00    +0.000 C 
ATOM      3  O   UNL     1      50.870   6.698  15.598  0.00  0.00    +0.000 OA
ENDROOT
BRANCH   2   4
ATOM      4  C   UNL     1      48.778   6.201  16.511  0.00  0.00    +0.000 A 
ATOM      5  C   UNL     1      48.307   4.896  16.527  0.00  0.00    +0.000 A 
ATOM      6  S   UNL     1      47.361   4.516  17.897  0.00  0.00    +0.000 S 
ATOM      7  C   UNL     1      47.701   6.022  18.603  0.00  0.00    +0.000 A 
ATOM      8  N   UNL     1      47.307   6.300  19.873  0.00  0.00    +0.000 NA
ATOM      9  C   UNL     1      47.679   7.456  20.301  0.00  0.00    +0.000 A 
ATOM     10  N   UNL     1      48.391   8.370  19.569  0.00  0.00    +0.000 N 
ATOM     11  C   UNL     1      48.696   8.185  18.235  0.00  0.00    +0.000 A 
ATOM     12  O   UNL     1      49.099   9.113  17.547  0.00  0.00    +0.000 OA
ATOM     13  C   UNL     1      48.412   6.845  17.754  0.00  0.00    +0.000 A 
ATOM     14  H   UNL     1      48.588   9.288  19.938  0.00  0.00    +0.000 HD
ENDBRANCH   2   4
BRANCH   1  15
ATOM     15  C   UNL     1      50.018   7.938  13.317  0.00  0.00    +0.000 C 
BRANCH  15  16
ATOM     16  C   UNL     1      49.746   9.377  12.843  0.00  0.00    +0.000 C 
BRANCH  16  18
ATOM     17  C   UNL     1      52.037   9.394  13.429  0.00  0.00    +0.000 C 
ATOM     18  O   UNL     1      50.912  10.185  13.057  0.00  0.00    +0.000 OA
ENDBRANCH  16  18
ENDBRANCH  15  16
ENDBRANCH   1  15
BRANCH   1  19
ATOM     19  C   UNL     1      47.648   7.484  14.147  0.00  0.00    +0.000 C 
BRANCH  19  20
ATOM     20  C   UNL     1      46.927   6.722  13.069  0.00  0.00    +0.000 A 
ATOM     21  C   UNL     1      46.663   5.355  13.250  0.00  0.00    +0.000 A 
ATOM     22  C   UNL     1      45.672   4.720  12.497  0.00  0.00    +0.000 A 
ATOM     23  C   UNL     1      44.955   5.429  11.524  0.00  0.00    +0.000 A 
ATOM     24  C   UNL     1      45.300   6.766  11.274  0.00  0.00    +0.000 A 
ATOM     25  C   UNL     1      46.281   7.406  12.035  0.00  0.00    +0.000 A 
BRANCH  23  26
ATOM     26  C   UNL     1      43.847   4.773  10.731  0.00  0.00    +0.000 C 
BRANCH  26  27
ATOM     27  N   UNL     1      44.259   3.980   9.561  0.00  0.00    +0.000 NA
ATOM     28  C   UNL     1      45.435   4.495   8.820  0.00  0.00    +0.000 C 
ATOM     29  C   UNL     1      45.801   3.549   7.649  0.00  0.00    +0.000 C 
ATOM     30  O   UNL     1      46.034   2.203   8.088  0.00  0.00    +0.000 OA
ATOM     31  C   UNL     1      44.898   1.713   8.811  0.00  0.00    +0.000 C 
ATOM     32  C   UNL     1      44.607   2.611  10.015  0.00  0.00    +0.000 C 
ENDBRANCH  26  27
ENDBRANCH  23  26
ENDBRANCH  19  20
ENDBRANCH   1  19
TORSDOF 8
ENDMDL
MODEL 7
REMARK VINA RESULT:    -5.872      2.976      8.001
REMARK INTER + INTRA:          -9.899
REMARK INTER:                  -8.663
REMARK INTRA:                  -1.236
REMARK UNBOUND:                -1.281
REMARK  Name = 
REMARK  9 active torsions:
REMARK  status: ('A' for Active; 'I' for Inactive)
REMARK    1  A    between atoms: C_1  and  O_2
REMARK    2  A    between atoms: O_2  and  C_3
REMARK    3  A    between atoms: C_3  and  C_4
REMARK    4  A    between atoms: C_4  and  N_5
REMARK    5  A    between atoms: N_5  and  C_6
REMARK    6  A    between atoms: C_6  and  C_7
REMARK    7  A    between atoms: C_10  and  C_11
REMARK    8  A    between atoms: C_11  and  N_12
REMARK    9  A    between atoms: C_20  and  C_22
REMARK                            x       y       z     vdW  Elec       q    Type
REMARK                         _______ _______ _______ _____ _____    ______ ____
ROOT
ATOM      1  N   UNL     1      48.662   7.530  16.325  0.00  0.00    +0.000 N 
ATOM      2  C   UNL     1      48.384   6.857  17.538  0.00  0.00    +0.000 C 
ATOM      3  O   UNL     1      48.176   7.485  18.573  0.00  0.00    +0.000 OA
ENDROOT
BRANCH   2   4
ATOM      4  C   UNL     1      48.369   5.377  17.587  0.00  0.00    +0.000 A 
ATOM      5  C   UNL     1      47.250   4.570  17.434  0.00  0.00    +0.000 A 
ATOM      6  S   UNL     1      47.586   2.897  17.495  0.00  0.00    +0.000 S 
ATOM      7  C   UNL     1      49.258   3.190  17.542  0.00  0.00    +0.000 A 
ATOM      8  N   UNL     1      50.147   2.167  17.459  0.00  0.00    +0.000 NA
ATOM      9  C   UNL     1      51.380   2.537  17.451  0.00  0.00    +0.000 A 
ATOM     10  N   UNL     1      51.809   3.836  17.539  0.00  0.00    +0.000 N 
ATOM     11  C   UNL     1      50.948   4.894  17.758  0.00  0.00    +0.000 A 
ATOM     12  O   UNL     1      51.373   5.993  18.086  0.00  0.00    +0.000 OA
ATOM     13  C   UNL     1      49.546   4.537  17.641  0.00  0.00    +0.000 A 
ATOM     14  H   UNL     1      52.792   4.053  17.601  0.00  0.00    +0.000 HD
ENDBRANCH   2   4
BRANCH   1  15
ATOM     15  C   UNL     1      48.728   9.002  16.369  0.00  0.00    +0.000 C 
BRANCH  15  16
ATOM     16  C   UNL     1      50.090   9.604  15.979  0.00  0.00    +0.000 C 
BRANCH  16  18
ATOM     17  C   UNL     1      51.006   9.680  18.158  0.00  0.00    +0.000 C 
ATOM     18  O   UNL     1      51.107   9.105  16.858  0.00  0.00    +0.000 OA
ENDBRANCH  16  18
ENDBRANCH  15  16
ENDBRANCH   1  15
BRANCH   1  19
ATOM     19  C   UNL     1      48.984   6.795  15.113  0.00  0.00    +0.000 C 
BRANCH  19  20
ATOM     20  C   UNL     1      47.970   6.442  14.060  0.00  0.00    +0.000 A 
ATOM     21  C   UNL     1      47.414   5.153  14.042  0.00  0.00    +0.000 A 
ATOM     22  C   UNL     1      46.213   4.910  13.372  0.00  0.00    +0.000 A 
ATOM     23  C   UNL     1      45.567   5.939  12.675  0.00  0.00    +0.000 A 
ATOM     24  C   UNL     1      46.185   7.197  12.606  0.00  0.00    +0.000 A 
ATOM     25  C   UNL     1      47.379   7.446  13.286  0.00  0.00    +0.000 A 
BRANCH  23  26
ATOM     26  C   UNL     1      44.241   5.709  11.982  0.00  0.00    +0.000 C 
BRANCH  26  27
ATOM     27  N   UNL     1      44.280   4.922  10.739  0.00  0.00    +0.000 NA
ATOM     28  C   UNL     1      45.421   5.205   9.837  0.00  0.00    +0.000 C 
ATOM     29  C   UNL     1      45.380   4.280   8.595  0.00  0.00    +0.000 C 
ATOM     30  O   UNL     1      45.355   2.890   8.952  0.00  0.00    +0.000 OA
ATOM     31  C   UNL     1      44.255   2.623   9.831  0.00  0.00    +0.000 C 
ATOM     32  C   UNL     1      44.362   3.483  11.092  0.00  0.00    +0.000 C 
ENDBRANCH  26  27
ENDBRANCH  23  26
ENDBRANCH  19  20
ENDBRANCH   1  19
TORSDOF 8
ENDMDL
MODEL 8
REMARK VINA RESULT:    -5.840      2.196      4.645
REMARK INTER + INTRA:          -9.852
REMARK INTER:                  -8.877
REMARK INTRA:                  -0.975
REMARK UNBOUND:                -1.281
REMARK  Name = 
REMARK  9 active torsions:
REMARK  status: ('A' for Active; 'I' for Inactive)
REMARK    1  A    between atoms: C_1  and  O_2
REMARK    2  A    between atoms: O_2  and  C_3
REMARK    3  A    between atoms: C_3  and  C_4
REMARK    4  A    between atoms: C_4  and  N_5
REMARK    5  A    between atoms: N_5  and  C_6
REMARK    6  A    between atoms: C_6  and  C_7
REMARK    7  A    between atoms: C_10  and  C_11
REMARK    8  A    between atoms: C_11  and  N_12
REMARK    9  A    between atoms: C_20  and  C_22
REMARK                            x       y       z     vdW  Elec       q    Type
REMARK                         _______ _______ _______ _____ _____    ______ ____
ROOT
ATOM      1  N   UNL     1      45.597   4.851  12.222  0.00  0.00    +0.000 N 
ATOM      2  C   UNL     1      45.752   5.874  11.258  0.00  0.00    +0.000 C 
ATOM      3  O   UNL     1      45.759   5.612  10.057  0.00  0.00    +0.000 OA
ENDROOT
BRANCH   2   4
ATOM      4  C   UNL     1      45.942   7.281  11.681  0.00  0.00    +0.000 A 
ATOM      5  C   UNL     1      47.148   7.863  12.047  0.00  0.00    +0.000 A 
ATOM      6  S   UNL     1      47.029   9.522  12.435  0.00  0.00    +0.000 S 
ATOM      7  C   UNL     1      45.403   9.563  11.949  0.00  0.00    +0.000 A 
ATOM      8  N   UNL     1      44.724  10.737  11.889  0.00  0.00    +0.000 NA
ATOM      9  C   UNL     1      43.517  10.630  11.453  0.00  0.00    +0.000 A 
ATOM     10  N   UNL     1      42.918   9.451  11.089  0.00  0.00    +0.000 N 
ATOM     11  C   UNL     1      43.523   8.221  11.260  0.00  0.00    +0.000 A 
ATOM     12  O   UNL     1      42.879   7.186  11.171  0.00  0.00    +0.000 OA
ATOM     13  C   UNL     1      44.926   8.309  11.623  0.00  0.00    +0.000 A 
ATOM     14  H   UNL     1      41.945   9.425  10.825  0.00  0.00    +0.000 HD
ENDBRANCH   2   4
BRANCH   1  15
ATOM     15  C   UNL     1      45.483   3.467  11.728  0.00  0.00    +0.000 C 
BRANCH  15  16
ATOM     16  C   UNL     1      44.042   2.969  11.515  0.00  0.00    +0.000 C 
BRANCH  16  18
ATOM     17  C   UNL     1      44.656   2.288   9.335  0.00  0.00    +0.000 C 
ATOM     18  O   UNL     1      43.716   3.017  10.119  0.00  0.00    +0.000 OA
ENDBRANCH  16  18
ENDBRANCH  15  16
ENDBRANCH   1  15
BRANCH   1  19
ATOM     19  C   UNL     1      45.666   5.142  13.645  0.00  0.00    +0.000 C 
BRANCH  19  20
ATOM     20  C   UNL     1      46.871   4.850  14.497  0.00  0.00    +0.000 A 
ATOM     21  C   UNL     1      47.743   5.895  14.838  0.00  0.00    +0.000 A 
ATOM     22  C   UNL     1      48.612   5.765  15.925  0.00  0.00    +0.000 A 
ATOM     23  C   UNL     1      48.651   4.576  16.665  0.00  0.00    +0.000 A 
ATOM     24  C   UNL     1      47.855   3.498  16.251  0.00  0.00    +0.000 A 
ATOM     25  C   UNL     1      46.976   3.630  15.173  0.00  0.00    +0.000 A 
BRANCH  23  26
ATOM     26  C   UNL     1      49.550   4.432  17.874  0.00  0.00    +0.000 C 
BRANCH  26  27
ATOM     27  N   UNL     1      50.800   3.679  17.674  0.00  0.00    +0.000 NA
ATOM     28  C   UNL     1      51.868   3.935  18.669  0.00  0.00    +0.000 C 
ATOM     29  C   UNL     1      53.106   3.048  18.384  0.00  0.00    +0.000 C 
ATOM     30  O   UNL     1      52.778   1.651  18.348  0.00  0.00    +0.000 OA
ATOM     31  C   UNL     1      51.739   1.409  17.391  0.00  0.00    +0.000 C 
ATOM     32  C   UNL     1      50.494   2.228  17.741  0.00  0.00    +0.000 C 
ENDBRANCH  26  27
ENDBRANCH  23  26
ENDBRANCH  19  20
ENDBRANCH   1  19
TORSDOF 8
ENDMDL
MODEL 9
REMARK VINA RESULT:    -5.682      2.764      3.783
REMARK INTER + INTRA:          -9.621
REMARK INTER:                  -8.317
REMARK INTRA:                  -1.304
REMARK UNBOUND:                -1.281
REMARK  Name = 
REMARK  9 active torsions:
REMARK  status: ('A' for Active; 'I' for Inactive)
REMARK    1  A    between atoms: C_1  and  O_2
REMARK    2  A    between atoms: O_2  and  C_3
REMARK    3  A    between atoms: C_3  and  C_4
REMARK    4  A    between atoms: C_4  and  N_5
REMARK    5  A    between atoms: N_5  and  C_6
REMARK    6  A    between atoms: C_6  and  C_7
REMARK    7  A    between atoms: C_10  and  C_11
REMARK    8  A    between atoms: C_11  and  N_12
REMARK    9  A    between atoms: C_20  and  C_22
REMARK                            x       y       z     vdW  Elec       q    Type
REMARK                         _______ _______ _______ _____ _____    ______ ____
ROOT
ATOM      1  N   UNL     1      46.331   7.553  12.180  0.00  0.00    +0.000 N 
ATOM      2  C   UNL     1      45.146   7.314  11.447  0.00  0.00    +0.000 C 
ATOM      3  O   UNL     1      44.248   8.153  11.409  0.00  0.00    +0.000 OA
ENDROOT
BRANCH   2   4
ATOM      4  C   UNL     1      44.951   6.030  10.734  0.00  0.00    +0.000 A 
ATOM      5  C   UNL     1      45.500   5.691   9.506  0.00  0.00    +0.000 A 
ATOM      6  S   UNL     1      45.118   4.110   8.986  0.00  0.00    +0.000 S 
ATOM      7  C   UNL     1      44.362   3.760  10.465  0.00  0.00    +0.000 A 
ATOM      8  N   UNL     1      43.930   2.504  10.746  0.00  0.00    +0.000 NA
ATOM      9  C   UNL     1      43.426   2.368  11.923  0.00  0.00    +0.000 A 
ATOM     10  N   UNL     1      43.295   3.378  12.841  0.00  0.00    +0.000 N 
ATOM     11  C   UNL     1      43.597   4.695  12.551  0.00  0.00    +0.000 A 
ATOM     12  O   UNL     1      43.233   5.600  13.288  0.00  0.00    +0.000 OA
ATOM     13  C   UNL     1      44.289   4.868  11.286  0.00  0.00    +0.000 A 
ATOM     14  H   UNL     1      42.824   3.222  13.719  0.00  0.00    +0.000 HD
ENDBRANCH   2   4
BRANCH   1  15
ATOM     15  C   UNL     1      46.424   8.825  12.919  0.00  0.00    +0.000 C 
BRANCH  15  16
ATOM     16  C   UNL     1      47.056   9.989  12.136  0.00  0.00    +0.000 C 
BRANCH  16  18
ATOM     17  C   UNL     1      49.341   9.842  11.545  0.00  0.00    +0.000 C 
ATOM     18  O   UNL     1      48.410  10.183  12.568  0.00  0.00    +0.000 OA
ENDBRANCH  16  18
ENDBRANCH  15  16
ENDBRANCH   1  15
BRANCH   1  19
ATOM     19  C   UNL     1      47.364   6.537  12.293  0.00  0.00    +0.000 C 
BRANCH  19  20
ATOM     20  C   UNL     1      48.085   6.222  13.575  0.00  0.00    +0.000 A 
ATOM     21  C   UNL     1      49.210   6.979  13.937  0.00  0.00    +0.000 A 
ATOM     22  C   UNL     1      49.651   7.002  15.263  0.00  0.00    +0.000 A 
ATOM     23  C   UNL     1      49.000   6.239  16.241  0.00  0.00    +0.000 A 
ATOM     24  C   UNL     1      47.945   5.401  15.850  0.00  0.00    +0.000 A 
ATOM     25  C   UNL     1      47.495   5.386  14.528  0.00  0.00    +0.000 A 
BRANCH  23  26
ATOM     26  C   UNL     1      49.432   6.286  17.691  0.00  0.00    +0.000 C 
BRANCH  26  27
ATOM     27  N   UNL     1      48.409   6.700  18.666  0.00  0.00    +0.000 NA
ATOM     28  C   UNL     1      48.564   6.145  20.031  0.00  0.00    +0.000 C 
ATOM     29  C   UNL     1      47.463   6.694  20.973  0.00  0.00    +0.000 C 
ATOM     30  O   UNL     1      47.447   8.129  21.012  0.00  0.00    +0.000 OA
ATOM     31  C   UNL     1      47.305   8.660  19.689  0.00  0.00    +0.000 C 
ATOM     32  C   UNL     1      48.451   8.177  18.797  0.00  0.00    +0.000 C 
ENDBRANCH  26  27
ENDBRANCH  23  26
ENDBRANCH  19  20
ENDBRANCH   1  19
TORSDOF 8
ENDMDL
