MODEL 1
REMARK VINA RESULT:    -6.976      0.000      0.000
REMARK INTER + INTRA:         -10.393
REMARK INTER:                  -9.830
REMARK INTRA:                  -0.562
REMARK UNBOUND:                -0.562
REMARK  Name = 
REMARK  9 active torsions:
REMARK  status: ('A' for Active; 'I' for Inactive)
REMARK    1  A    between atoms: C_1  and  C_2
REMARK    2  A    between atoms: C_2  and  C_3
REMARK    3  A    between atoms: C_3  and  N_4
REMARK    4  A    between atoms: C_5  and  C_7
REMARK    5  A    between atoms: N_11  and  C_12
REMARK    6  A    between atoms: C_12  and  C_13
REMARK    7  A    between atoms: C_13  and  C_14
REMARK    8  A    between atoms: C_13  and  C_15
REMARK    9  A    between atoms: C_19  and  C_20
REMARK                            x       y       z     vdW  Elec       q    Type
REMARK                         _______ _______ _______ _____ _____    ______ ____
ROOT
ATOM      1  C   UNL     1      49.524   4.319  17.901  0.00  0.00    +0.000 A 
ATOM      2  C   UNL     1      48.597   3.286  17.844  0.00  0.00    +0.000 A 
ATOM      3  C   UNL     1      47.575   3.348  16.897  0.00  0.00    +0.000 A 
ATOM      4  C   UNL     1      47.509   4.416  16.000  0.00  0.00    +0.000 A 
ATOM      5  N   UNL     1      46.524   4.355  15.008  0.00  0.00    +0.000 N 
ATOM      6  N   UNL     1      48.406   5.422  16.047  0.00  0.00    +0.000 NA
ATOM      7  C   UNL     1      49.373   5.367  17.005  0.00  0.00    +0.000 A 
ATOM      8  H   UNL     1      45.592   4.273  15.398  0.00  0.00    +0.000 HD
ENDROOT
BRANCH   1  10
ATOM      9  N   UNL     1      51.807   3.751  18.533  0.00  0.00    +0.000 N 
ATOM     10  C   UNL     1      50.623   4.362  18.889  0.00  0.00    +0.000 C 
ATOM     11  O   UNL     1      50.452   4.930  19.965  0.00  0.00    +0.000 OA
ATOM     12  H   UNL     1      51.931   3.385  17.599  0.00  0.00    +0.000 HD
BRANCH   9  13
ATOM     13  C   UNL     1      52.939   3.688  19.439  0.00  0.00    +0.000 C 
BRANCH  13  15
ATOM     14  C   UNL     1      53.557   1.818  17.839  0.00  0.00    +0.000 C 
ATOM     15  C   UNL     1      53.824   2.467  19.189  0.00  0.00    +0.000 C 
ENDBRANCH  13  15
ENDBRANCH   9  13
ENDBRANCH   1  10
BRANCH   5  16
ATOM     16  C   UNL     1      46.685   5.232  13.850  0.00  0.00    +0.000 C 
BRANCH  16  17
ATOM     17  C   UNL     1      45.320   5.724  13.300  0.00  0.00    +0.000 C 
ATOM     18  C   UNL     1      45.407   7.151  12.737  0.00  0.00    +0.000 C 
BRANCH  17  19
ATOM     19  C   UNL     1      44.782   4.766  12.242  0.00  0.00    +0.000 A 
ATOM     20  C   UNL     1      43.862   3.760  12.561  0.00  0.00    +0.000 A 
ATOM     21  C   UNL     1      43.387   2.928  11.556  0.00  0.00    +0.000 A 
ATOM     22  N   UNL     1      43.759   3.016  10.262  0.00  0.00    +0.000 NA
ATOM     23  C   UNL     1      44.658   3.996   9.965  0.00  0.00    +0.000 A 
ATOM     24  C   UNL     1      45.192   4.876  10.906  0.00  0.00    +0.000 A 
BRANCH  23  25
ATOM     25  C   UNL     1      45.077   4.109   8.533  0.00  0.00    +0.000 C 
ATOM     26  N   UNL     1      44.369   3.348   7.636  0.00  0.00    +0.000 N 
ATOM     27  O   UNL     1      45.996   4.828   8.164  0.00  0.00    +0.000 OA
ATOM     28  H   UNL     1      43.611   2.762   7.972  0.00  0.00    +0.000 HD
ATOM     29  H   UNL     1      44.602   3.385   6.659  0.00  0.00    +0.000 HD
ENDBRANCH  23  25
ENDBRANCH  17  19
ENDBRANCH  16  17
ENDBRANCH   5  16
TORSDOF 7
ENDMDL
MODEL 2
REMARK VINA RESULT:    -6.962      2.483      8.499
REMARK INTER + INTRA:         -10.373
REMARK INTER:                  -9.504
REMARK INTRA:                  -0.869
REMARK UNBOUND:                -0.562
REMARK  Name = 
REMARK  9 active torsions:
REMARK  status: ('A' for Active; 'I' for Inactive)
REMARK    1  A    between atoms: C_1  and  C_2
REMARK    2  A    between atoms: C_2  and  C_3
REMARK    3  A    between atoms: C_3  and  N_4
REMARK    4  A    between atoms: C_5  and  C_7
REMARK    5  A    between atoms: N_11  and  C_12
REMARK    6  A    between atoms: C_12  and  C_13
REMARK    7  A    between atoms: C_13  and  C_14
REMARK    8  A    between atoms: C_13  and  C_15
REMARK    9  A    between atoms: C_19  and  C_20
REMARK                            x       y       z     vdW  Elec       q    Type
REMARK                         _______ _______ _______ _____ _____    ______ ____
ROOT
ATOM      1  C   UNL     1      45.942   4.783  12.757  0.00  0.00    +0.000 A 
ATOM      2  C   UNL     1      45.871   6.129  12.421  0.00  0.00    +0.000 A 
ATOM      3  C   UNL     1      46.707   7.033  13.077  0.00  0.00    +0.000 A 
ATOM      4  C   UNL     1      47.622   6.584  14.029  0.00  0.00    +0.000 A 
ATOM      5  N   UNL     1      48.503   7.530  14.564  0.00  0.00    +0.000 N 
ATOM      6  N   UNL     1      47.699   5.279  14.361  0.00  0.00    +0.000 NA
ATOM      7  C   UNL     1      46.847   4.414  13.741  0.00  0.00    +0.000 A 
ATOM      8  H   UNL     1      48.014   8.302  15.003  0.00  0.00    +0.000 HD
ENDROOT
BRANCH   1  10
ATOM      9  N   UNL     1      45.029   3.717  10.766  0.00  0.00    +0.000 N 
ATOM     10  C   UNL     1      45.078   3.753  12.144  0.00  0.00    +0.000 C 
ATOM     11  O   UNL     1      44.451   2.979  12.864  0.00  0.00    +0.000 OA
ATOM     12  H   UNL     1      45.640   4.308  10.219  0.00  0.00    +0.000 HD
BRANCH   9  13
ATOM     13  C   UNL     1      44.179   2.781  10.055  0.00  0.00    +0.000 C 
BRANCH  13  15
ATOM     14  C   UNL     1      45.734   2.937   8.055  0.00  0.00    +0.000 C 
ATOM     15  C   UNL     1      44.931   2.017   8.964  0.00  0.00    +0.000 C 
ENDBRANCH  13  15
ENDBRANCH   9  13
ENDBRANCH   1  10
BRANCH   5  16
ATOM     16  C   UNL     1      49.696   7.028  15.242  0.00  0.00    +0.000 C 
BRANCH  16  17
ATOM     17  C   UNL     1      49.634   7.257  16.775  0.00  0.00    +0.000 C 
ATOM     18  C   UNL     1      48.573   8.301  17.158  0.00  0.00    +0.000 C 
BRANCH  17  19
ATOM     19  C   UNL     1      49.379   5.945  17.511  0.00  0.00    +0.000 A 
ATOM     20  C   UNL     1      48.649   5.903  18.705  0.00  0.00    +0.000 A 
ATOM     21  C   UNL     1      48.427   4.679  19.324  0.00  0.00    +0.000 A 
ATOM     22  N   UNL     1      48.878   3.499  18.850  0.00  0.00    +0.000 NA
ATOM     23  C   UNL     1      49.591   3.554  17.690  0.00  0.00    +0.000 A 
ATOM     24  C   UNL     1      49.866   4.734  17.000  0.00  0.00    +0.000 A 
BRANCH  23  25
ATOM     25  C   UNL     1      50.094   2.253  17.151  0.00  0.00    +0.000 C 
ATOM     26  N   UNL     1      51.006   1.588  17.933  0.00  0.00    +0.000 N 
ATOM     27  O   UNL     1      49.729   1.793  16.077  0.00  0.00    +0.000 OA
ATOM     28  H   UNL     1      51.288   1.994  18.819  0.00  0.00    +0.000 HD
ATOM     29  H   UNL     1      51.377   0.707  17.624  0.00  0.00    +0.000 HD
ENDBRANCH  23  25
ENDBRANCH  17  19
ENDBRANCH  16  17
ENDBRANCH   5  16
TORSDOF 7
ENDMDL
MODEL 3
REMARK VINA RESULT:    -6.732      2.726      8.629
REMARK INTER + INTRA:         -10.050
REMARK INTER:                  -9.216
REMARK INTRA:                  -0.834
REMARK UNBOUND:                -0.562
REMARK  Name = 
REMARK  9 active torsions:
REMARK  status: ('A' for Active; 'I' for Inactive)
REMARK    1  A    between atoms: C_1  and  C_2
REMARK    2  A    between atoms: C_2  and  C_3
REMARK    3  A    between atoms: C_3  and  N_4
REMARK    4  A    between atoms: C_5  and  C_7
REMARK    5  A    between atoms: N_11  and  C_12
REMARK    6  A    between atoms: C_12  and  C_13
REMARK    7  A    between atoms: C_13  and  C_14
REMARK    8  A    between atoms: C_13  and  C_15
REMARK    9  A    between atoms: C_19  and  C_20
REMARK                            x       y       z     vdW  Elec       q    Type
REMARK                         _______ _______ _______ _____ _____    ______ ____
ROOT
ATOM      1  C   UNL     1      45.330   6.128  11.575  0.00  0.00    +0.000 A 
ATOM      2  C   UNL     1      44.959   7.450  11.786  0.00  0.00    +0.000 A 
ATOM      3  C   UNL     1      45.672   8.210  12.714  0.00  0.00    +0.000 A 
ATOM      4  C   UNL     1      46.759   7.658  13.392  0.00  0.00    +0.000 A 
ATOM      5  N   UNL     1      47.493   8.511  14.223  0.00  0.00    +0.000 N 
ATOM      6  N   UNL     1      47.127   6.375  13.192  0.00  0.00    +0.000 NA
ATOM      7  C   UNL     1      46.395   5.634  12.313  0.00  0.00    +0.000 A 
ATOM      8  H   UNL     1      46.916   8.935  14.940  0.00  0.00    +0.000 HD
ENDROOT
BRANCH   1  10
ATOM      9  N   UNL     1      45.274   4.902   9.471  0.00  0.00    +0.000 N 
ATOM     10  C   UNL     1      44.619   5.232  10.638  0.00  0.00    +0.000 C 
ATOM     11  O   UNL     1      43.498   4.818  10.927  0.00  0.00    +0.000 OA
ATOM     12  H   UNL     1      46.233   5.187   9.327  0.00  0.00    +0.000 HD
BRANCH   9  13
ATOM     13  C   UNL     1      44.656   4.069   8.456  0.00  0.00    +0.000 C 
BRANCH  13  15
ATOM     14  C   UNL     1      45.977   1.904   8.353  0.00  0.00    +0.000 C 
ATOM     15  C   UNL     1      45.676   3.236   7.680  0.00  0.00    +0.000 C 
ENDBRANCH  13  15
ENDBRANCH   9  13
ENDBRANCH   1  10
BRANCH   5  16
ATOM     16  C   UNL     1      48.831   8.075  14.618  0.00  0.00    +0.000 C 
BRANCH  16  17
ATOM     17  C   UNL     1      49.101   8.320  16.126  0.00  0.00    +0.000 C 
ATOM     18  C   UNL     1      48.178   9.403  16.707  0.00  0.00    +0.000 C 
BRANCH  17  19
ATOM     19  C   UNL     1      48.966   7.025  16.920  0.00  0.00    +0.000 A 
ATOM     20  C   UNL     1      49.589   6.858  18.164  0.00  0.00    +0.000 A 
ATOM     21  C   UNL     1      49.418   5.666  18.856  0.00  0.00    +0.000 A 
ATOM     22  N   UNL     1      48.680   4.629  18.406  0.00  0.00    +0.000 NA
ATOM     23  C   UNL     1      48.083   4.802  17.194  0.00  0.00    +0.000 A 
ATOM     24  C   UNL     1      48.199   5.960  16.426  0.00  0.00    +0.000 A 
BRANCH  23  25
ATOM     25  C   UNL     1      47.258   3.663  16.685  0.00  0.00    +0.000 C 
ATOM     26  N   UNL     1      47.119   3.582  15.321  0.00  0.00    +0.000 N 
ATOM     27  O   UNL     1      46.727   2.844  17.424  0.00  0.00    +0.000 OA
ATOM     28  H   UNL     1      47.572   4.275  14.735  0.00  0.00    +0.000 HD
ATOM     29  H   UNL     1      46.579   2.836  14.920  0.00  0.00    +0.000 HD
ENDBRANCH  23  25
ENDBRANCH  17  19
ENDBRANCH  16  17
ENDBRANCH   5  16
TORSDOF 7
ENDMDL
MODEL 4
REMARK VINA RESULT:    -6.109      3.099      8.595
REMARK INTER + INTRA:          -9.171
REMARK INTER:                  -8.848
REMARK INTRA:                  -0.323
REMARK UNBOUND:                -0.562
REMARK  Name = 
REMARK  9 active torsions:
REMARK  status: ('A' for Active; 'I' for Inactive)
REMARK    1  A    between atoms: C_1  and  C_2
REMARK    2  A    between atoms: C_2  and  C_3
REMARK    3  A    between atoms: C_3  and  N_4
REMARK    4  A    between atoms: C_5  and  C_7
REMARK    5  A    between atoms: N_11  and  C_12
REMARK    6  A    between atoms: C_12  and  C_13
REMARK    7  A    between atoms: C_13  and  C_14
REMARK    8  A    between atoms: C_13  and  C_15
REMARK    9  A    between atoms: C_19  and  C_20
REMARK                            x       y       z     vdW  Elec       q    Type
REMARK                         _______ _______ _______ _____ _____    ______ ____
ROOT
ATOM      1  C   UNL     1      44.637   4.530  11.223  0.00  0.00    +0.000 A 
ATOM      2  C   UNL     1      43.821   4.939  12.270  0.00  0.00    +0.000 A 
ATOM      3  C   UNL     1      44.105   6.142  12.917  0.00  0.00    +0.000 A 
ATOM      4  C   UNL     1      45.172   6.936  12.493  0.00  0.00    +0.000 A 
ATOM      5  N   UNL     1      45.329   8.179  13.115  0.00  0.00    +0.000 N 
ATOM      6  N   UNL     1      45.968   6.547  11.475  0.00  0.00    +0.000 NA
ATOM      7  C   UNL     1      45.702   5.350  10.881  0.00  0.00    +0.000 A 
ATOM      8  H   UNL     1      45.440   8.093  14.119  0.00  0.00    +0.000 HD
ENDROOT
BRANCH   1  10
ATOM      9  N   UNL     1      45.360   2.947   9.519  0.00  0.00    +0.000 N 
ATOM     10  C   UNL     1      44.438   3.258  10.496  0.00  0.00    +0.000 C 
ATOM     11  O   UNL     1      43.486   2.537  10.783  0.00  0.00    +0.000 OA
ATOM     12  H   UNL     1      46.181   3.523   9.391  0.00  0.00    +0.000 HD
BRANCH   9  13
ATOM     13  C   UNL     1      45.241   1.749   8.709  0.00  0.00    +0.000 C 
BRANCH  13  15
ATOM     14  C   UNL     1      46.704  -0.023   7.630  0.00  0.00    +0.000 C 
ATOM     15  C   UNL     1      46.503   1.463   7.895  0.00  0.00    +0.000 C 
ENDBRANCH  13  15
ENDBRANCH   9  13
ENDBRANCH   1  10
BRANCH   5  16
ATOM     16  C   UNL     1      46.164   9.167  12.436  0.00  0.00    +0.000 C 
BRANCH  16  17
ATOM     17  C   UNL     1      47.668   8.787  12.483  0.00  0.00    +0.000 C 
ATOM     18  C   UNL     1      48.547   9.828  11.771  0.00  0.00    +0.000 C 
BRANCH  17  19
ATOM     19  C   UNL     1      48.135   8.591  13.922  0.00  0.00    +0.000 A 
ATOM     20  C   UNL     1      48.428   9.679  14.754  0.00  0.00    +0.000 A 
ATOM     21  C   UNL     1      48.829   9.445  16.063  0.00  0.00    +0.000 A 
ATOM     22  N   UNL     1      48.964   8.217  16.605  0.00  0.00    +0.000 NA
ATOM     23  C   UNL     1      48.679   7.167  15.785  0.00  0.00    +0.000 A 
ATOM     24  C   UNL     1      48.273   7.303  14.458  0.00  0.00    +0.000 A 
BRANCH  23  25
ATOM     25  C   UNL     1      48.820   5.800  16.374  0.00  0.00    +0.000 C 
ATOM     26  N   UNL     1      47.651   5.175  16.734  0.00  0.00    +0.000 N 
ATOM     27  O   UNL     1      49.903   5.254  16.537  0.00  0.00    +0.000 OA
ATOM     28  H   UNL     1      46.768   5.652  16.585  0.00  0.00    +0.000 HD
ATOM     29  H   UNL     1      47.682   4.253  17.132  0.00  0.00    +0.000 HD
ENDBRANCH  23  25
ENDBRANCH  17  19
ENDBRANCH  16  17
ENDBRANCH   5  16
TORSDOF 7
ENDMDL
MODEL 5
REMARK VINA RESULT:    -6.061      2.555      9.576
REMARK INTER + INTRA:          -9.104
REMARK INTER:                  -8.573
REMARK INTRA:                  -0.531
REMARK UNBOUND:                -0.562
REMARK  Name = 
REMARK  9 active torsions:
REMARK  status: ('A' for Active; 'I' for Inactive)
REMARK    1  A    between atoms: C_1  and  C_2
REMARK    2  A    between atoms: C_2  and  C_3
REMARK    3  A    between atoms: C_3  and  N_4
REMARK    4  A    between atoms: C_5  and  C_7
REMARK    5  A    between atoms: N_11  and  C_12
REMARK    6  A    between atoms: C_12  and  C_13
REMARK    7  A    between atoms: C_13  and  C_14
REMARK    8  A    between atoms: C_13  and  C_15
REMARK    9  A    between atoms: C_19  and  C_20
REMARK                            x       y       z     vdW  Elec       q    Type
REMARK                         _______ _______ _______ _____ _____    ______ ____
ROOT
ATOM      1  C   UNL     1      45.245   4.694  11.477  0.00  0.00    +0.000 A 
ATOM      2  C   UNL     1      45.754   5.927  11.864  0.00  0.00    +0.000 A 
ATOM      3  C   UNL     1      46.320   6.055  13.133  0.00  0.00    +0.000 A 
ATOM      4  C   UNL     1      46.402   4.951  13.982  0.00  0.00    +0.000 A 
ATOM      5  N   UNL     1      47.081   5.127  15.193  0.00  0.00    +0.000 N 
ATOM      6  N   UNL     1      45.913   3.750  13.613  0.00  0.00    +0.000 NA
ATOM      7  C   UNL     1      45.325   3.651  12.387  0.00  0.00    +0.000 A 
ATOM      8  H   UNL     1      46.677   5.869  15.754  0.00  0.00    +0.000 HD
ENDROOT
BRANCH   1  10
ATOM      9  N   UNL     1      45.373   3.899   9.178  0.00  0.00    +0.000 N 
ATOM     10  C   UNL     1      44.598   4.465  10.167  0.00  0.00    +0.000 C 
ATOM     11  O   UNL     1      43.419   4.774  10.011  0.00  0.00    +0.000 OA
ATOM     12  H   UNL     1      46.305   3.570   9.386  0.00  0.00    +0.000 HD
BRANCH   9  13
ATOM     13  C   UNL     1      44.859   3.671   7.840  0.00  0.00    +0.000 C 
BRANCH  13  15
ATOM     14  C   UNL     1      46.945   3.396   6.421  0.00  0.00    +0.000 C 
ATOM     15  C   UNL     1      45.731   2.710   7.032  0.00  0.00    +0.000 C 
ENDBRANCH  13  15
ENDBRANCH   9  13
ENDBRANCH   1  10
BRANCH   5  16
ATOM     16  C   UNL     1      47.518   3.924  15.898  0.00  0.00    +0.000 C 
BRANCH  16  17
ATOM     17  C   UNL     1      47.525   4.122  17.437  0.00  0.00    +0.000 C 
ATOM     18  C   UNL     1      47.997   2.861  18.178  0.00  0.00    +0.000 C 
BRANCH  17  19
ATOM     19  C   UNL     1      48.385   5.321  17.826  0.00  0.00    +0.000 A 
ATOM     20  C   UNL     1      49.735   5.406  17.462  0.00  0.00    +0.000 A 
ATOM     21  C   UNL     1      50.468   6.529  17.824  0.00  0.00    +0.000 A 
ATOM     22  N   UNL     1      49.964   7.569  18.521  0.00  0.00    +0.000 NA
ATOM     23  C   UNL     1      48.652   7.472  18.873  0.00  0.00    +0.000 A 
ATOM     24  C   UNL     1      47.838   6.384  18.558  0.00  0.00    +0.000 A 
BRANCH  23  25
ATOM     25  C   UNL     1      48.078   8.619  19.643  0.00  0.00    +0.000 C 
ATOM     26  N   UNL     1      48.696   8.915  20.833  0.00  0.00    +0.000 N 
ATOM     27  O   UNL     1      47.114   9.266  19.254  0.00  0.00    +0.000 OA
ATOM     28  H   UNL     1      49.494   8.363  21.129  0.00  0.00    +0.000 HD
ATOM     29  H   UNL     1      48.357   9.678  21.393  0.00  0.00    +0.000 HD
ENDBRANCH  23  25
ENDBRANCH  17  19
ENDBRANCH  16  17
ENDBRANCH   5  16
TORSDOF 7
ENDMDL
MODEL 6
REMARK VINA RESULT:    -5.914      2.449      3.382
REMARK INTER + INTRA:          -8.897
REMARK INTER:                  -8.078
REMARK INTRA:                  -0.819
REMARK UNBOUND:                -0.562
REMARK  Name = 
REMARK  9 active torsions:
REMARK  status: ('A' for Active; 'I' for Inactive)
REMARK    1  A    between atoms: C_1  and  C_2
REMARK    2  A    between atoms: C_2  and  C_3
REMARK    3  A    between atoms: C_3  and  N_4
REMARK    4  A    between atoms: C_5  and  C_7
REMARK    5  A    between atoms: N_11  and  C_12
REMARK    6  A    between atoms: C_12  and  C_13
REMARK    7  A    between atoms: C_13  and  C_14
REMARK    8  A    between atoms: C_13  and  C_15
REMARK    9  A    between atoms: C_19  and  C_20
REMARK                            x       y       z     vdW  Elec       q    Type
REMARK                         _______ _______ _______ _____ _____    ______ ____
ROOT
ATOM      1  C   UNL     1      50.902   5.667  17.087  0.00  0.00    +0.000 A 
ATOM      2  C   UNL     1      51.702   6.669  16.554  0.00  0.00    +0.000 A 
ATOM      3  C   UNL     1      51.180   7.486  15.550  0.00  0.00    +0.000 A 
ATOM      4  C   UNL     1      49.865   7.317  15.117  0.00  0.00    +0.000 A 
ATOM      5  N   UNL     1      49.375   8.242  14.188  0.00  0.00    +0.000 N 
ATOM      6  N   UNL     1      49.081   6.347  15.630  0.00  0.00    +0.000 NA
ATOM      7  C   UNL     1      49.618   5.531  16.580  0.00  0.00    +0.000 A 
ATOM      8  H   UNL     1      49.936   8.270  13.344  0.00  0.00    +0.000 HD
ENDROOT
BRANCH   1  10
ATOM      9  N   UNL     1      52.437   3.917  17.805  0.00  0.00    +0.000 N 
ATOM     10  C   UNL     1      51.372   4.730  18.130  0.00  0.00    +0.000 C 
ATOM     11  O   UNL     1      50.815   4.711  19.225  0.00  0.00    +0.000 OA
ATOM     12  H   UNL     1      52.924   4.041  16.928  0.00  0.00    +0.000 HD
BRANCH   9  13
ATOM     13  C   UNL     1      52.954   2.926  18.731  0.00  0.00    +0.000 C 
BRANCH  13  15
ATOM     14  C   UNL     1      51.738   1.128  17.415  0.00  0.00    +0.000 C 
ATOM     15  C   UNL     1      53.029   1.529  18.113  0.00  0.00    +0.000 C 
ENDBRANCH  13  15
ENDBRANCH   9  13
ENDBRANCH   1  10
BRANCH   5  16
ATOM     16  C   UNL     1      47.926   8.327  14.026  0.00  0.00    +0.000 C 
BRANCH  16  17
ATOM     17  C   UNL     1      47.503   8.268  12.534  0.00  0.00    +0.000 C 
ATOM     18  C   UNL     1      48.706   8.050  11.603  0.00  0.00    +0.000 C 
BRANCH  17  19
ATOM     19  C   UNL     1      46.453   7.185  12.309  0.00  0.00    +0.000 A 
ATOM     20  C   UNL     1      45.243   7.459  11.658  0.00  0.00    +0.000 A 
ATOM     21  C   UNL     1      44.330   6.432  11.459  0.00  0.00    +0.000 A 
ATOM     22  N   UNL     1      44.524   5.159  11.860  0.00  0.00    +0.000 NA
ATOM     23  C   UNL     1      45.702   4.905  12.496  0.00  0.00    +0.000 A 
ATOM     24  C   UNL     1      46.678   5.871  12.742  0.00  0.00    +0.000 A 
BRANCH  23  25
ATOM     25  C   UNL     1      45.934   3.497  12.942  0.00  0.00    +0.000 C 
ATOM     26  N   UNL     1      44.997   2.576  12.541  0.00  0.00    +0.000 N 
ATOM     27  O   UNL     1      46.892   3.165  13.628  0.00  0.00    +0.000 OA
ATOM     28  H   UNL     1      44.215   2.880  11.972  0.00  0.00    +0.000 HD
ATOM     29  H   UNL     1      45.102   1.613  12.807  0.00  0.00    +0.000 HD
ENDBRANCH  23  25
ENDBRANCH  17  19
ENDBRANCH  16  17
ENDBRANCH   5  16
TORSDOF 7
ENDMDL
MODEL 7
REMARK VINA RESULT:    -5.837      3.156      8.409
REMARK INTER + INTRA:          -8.788
REMARK INTER:                  -7.636
REMARK INTRA:                  -1.152
REMARK UNBOUND:                -0.562
REMARK  Name = 
REMARK  9 active torsions:
REMARK  status: ('A' for Active; 'I' for Inactive)
REMARK    1  A    between atoms: C_1  and  C_2
REMARK    2  A    between atoms: C_2  and  C_3
REMARK    3  A    between atoms: C_3  and  N_4
REMARK    4  A    between atoms: C_5  and  C_7
REMARK    5  A    between atoms: N_11  and  C_12
REMARK    6  A    between atoms: C_12  and  C_13
REMARK    7  A    between atoms: C_13  and  C_14
REMARK    8  A    between atoms: C_13  and  C_15
REMARK    9  A    between atoms: C_19  and  C_20
REMARK                            x       y       z     vdW  Elec       q    Type
REMARK                         _______ _______ _______ _____ _____    ______ ____
ROOT
ATOM      1  C   UNL     1      46.498   7.196  12.566  0.00  0.00    +0.000 A 
ATOM      2  C   UNL     1      47.557   6.859  11.732  0.00  0.00    +0.000 A 
ATOM      3  C   UNL     1      48.856   7.175  12.131  0.00  0.00    +0.000 A 
ATOM      4  C   UNL     1      49.086   7.788  13.364  0.00  0.00    +0.000 A 
ATOM      5  N   UNL     1      50.419   7.973  13.745  0.00  0.00    +0.000 N 
ATOM      6  N   UNL     1      48.063   8.116  14.180  0.00  0.00    +0.000 NA
ATOM      7  C   UNL     1      46.797   7.839  13.757  0.00  0.00    +0.000 A 
ATOM      8  H   UNL     1      50.937   8.524  13.070  0.00  0.00    +0.000 HD
ENDROOT
BRANCH   1  10
ATOM      9  N   UNL     1      44.449   5.924  12.910  0.00  0.00    +0.000 N 
ATOM     10  C   UNL     1      45.085   6.933  12.219  0.00  0.00    +0.000 C 
ATOM     11  O   UNL     1      44.537   7.610  11.351  0.00  0.00    +0.000 OA
ATOM     12  H   UNL     1      44.912   5.466  13.683  0.00  0.00    +0.000 HD
BRANCH   9  13
ATOM     13  C   UNL     1      43.077   5.546  12.623  0.00  0.00    +0.000 C 
BRANCH  13  15
ATOM     14  C   UNL     1      43.770   3.255  11.779  0.00  0.00    +0.000 C 
ATOM     15  C   UNL     1      42.976   4.521  11.492  0.00  0.00    +0.000 C 
ENDBRANCH  13  15
ENDBRANCH   9  13
ENDBRANCH   1  10
BRANCH   5  16
ATOM     16  C   UNL     1      50.681   8.235  15.159  0.00  0.00    +0.000 C 
BRANCH  16  17
ATOM     17  C   UNL     1      51.194   6.972  15.899  0.00  0.00    +0.000 C 
ATOM     18  C   UNL     1      52.490   7.247  16.678  0.00  0.00    +0.000 C 
BRANCH  17  19
ATOM     19  C   UNL     1      50.122   6.414  16.830  0.00  0.00    +0.000 A 
ATOM     20  C   UNL     1      50.089   6.742  18.191  0.00  0.00    +0.000 A 
ATOM     21  C   UNL     1      49.078   6.224  18.991  0.00  0.00    +0.000 A 
ATOM     22  N   UNL     1      48.105   5.404  18.543  0.00  0.00    +0.000 NA
ATOM     23  C   UNL     1      48.150   5.089  17.219  0.00  0.00    +0.000 A 
ATOM     24  C   UNL     1      49.126   5.558  16.340  0.00  0.00    +0.000 A 
BRANCH  23  25
ATOM     25  C   UNL     1      47.074   4.185  16.707  0.00  0.00    +0.000 C 
ATOM     26  N   UNL     1      46.687   4.386  15.405  0.00  0.00    +0.000 N 
ATOM     27  O   UNL     1      46.555   3.315  17.393  0.00  0.00    +0.000 OA
ATOM     28  H   UNL     1      47.136   5.115  14.861  0.00  0.00    +0.000 HD
ATOM     29  H   UNL     1      45.970   3.806  15.005  0.00  0.00    +0.000 HD
ENDBRANCH  23  25
ENDBRANCH  17  19
ENDBRANCH  16  17
ENDBRANCH   5  16
TORSDOF 7
ENDMDL
MODEL 8
REMARK VINA RESULT:    -5.831      2.366      3.068
REMARK INTER + INTRA:          -8.779
REMARK INTER:                  -8.156
REMARK INTRA:                  -0.623
REMARK UNBOUND:                -0.562
REMARK  Name = 
REMARK  9 active torsions:
REMARK  status: ('A' for Active; 'I' for Inactive)
REMARK    1  A    between atoms: C_1  and  C_2
REMARK    2  A    between atoms: C_2  and  C_3
REMARK    3  A    between atoms: C_3  and  N_4
REMARK    4  A    between atoms: C_5  and  C_7
REMARK    5  A    between atoms: N_11  and  C_12
REMARK    6  A    between atoms: C_12  and  C_13
REMARK    7  A    between atoms: C_13  and  C_14
REMARK    8  A    between atoms: C_13  and  C_15
REMARK    9  A    between atoms: C_19  and  C_20
REMARK                            x       y       z     vdW  Elec       q    Type
REMARK                         _______ _______ _______ _____ _____    ______ ____
ROOT
ATOM      1  C   UNL     1      49.091   7.389  16.668  0.00  0.00    +0.000 A 
ATOM      2  C   UNL     1      48.816   8.631  16.110  0.00  0.00    +0.000 A 
ATOM      3  C   UNL     1      48.315   8.690  14.809  0.00  0.00    +0.000 A 
ATOM      4  C   UNL     1      48.064   7.517  14.097  0.00  0.00    +0.000 A 
ATOM      5  N   UNL     1      47.459   7.650  12.842  0.00  0.00    +0.000 N 
ATOM      6  N   UNL     1      48.326   6.307  14.632  0.00  0.00    +0.000 NA
ATOM      7  C   UNL     1      48.854   6.268  15.887  0.00  0.00    +0.000 A 
ATOM      8  H   UNL     1      48.001   8.235  12.216  0.00  0.00    +0.000 HD
ENDROOT
BRANCH   1  10
ATOM      9  N   UNL     1      50.291   6.030  18.294  0.00  0.00    +0.000 N 
ATOM     10  C   UNL     1      49.654   7.222  18.025  0.00  0.00    +0.000 C 
ATOM     11  O   UNL     1      49.541   8.130  18.845  0.00  0.00    +0.000 OA
ATOM     12  H   UNL     1      50.445   5.356  17.557  0.00  0.00    +0.000 HD
BRANCH   9  13
ATOM     13  C   UNL     1      50.840   5.735  19.605  0.00  0.00    +0.000 C 
BRANCH  13  15
ATOM     14  C   UNL     1      48.767   4.283  19.798  0.00  0.00    +0.000 C 
ATOM     15  C   UNL     1      49.811   5.102  20.543  0.00  0.00    +0.000 C 
ENDBRANCH  13  15
ENDBRANCH   9  13
ENDBRANCH   1  10
BRANCH   5  16
ATOM     16  C   UNL     1      46.838   6.459  12.268  0.00  0.00    +0.000 C 
BRANCH  16  17
ATOM     17  C   UNL     1      45.289   6.515  12.347  0.00  0.00    +0.000 C 
ATOM     18  C   UNL     1      44.706   7.617  11.449  0.00  0.00    +0.000 C 
BRANCH  17  19
ATOM     19  C   UNL     1      44.677   5.162  11.996  0.00  0.00    +0.000 A 
ATOM     20  C   UNL     1      43.876   4.460  12.905  0.00  0.00    +0.000 A 
ATOM     21  C   UNL     1      43.326   3.242  12.527  0.00  0.00    +0.000 A 
ATOM     22  N   UNL     1      43.513   2.669  11.320  0.00  0.00    +0.000 NA
ATOM     23  C   UNL     1      44.297   3.360  10.446  0.00  0.00    +0.000 A 
ATOM     24  C   UNL     1      44.894   4.586  10.736  0.00  0.00    +0.000 A 
BRANCH  23  25
ATOM     25  C   UNL     1      44.510   2.739   9.102  0.00  0.00    +0.000 C 
ATOM     26  N   UNL     1      44.486   3.598   8.031  0.00  0.00    +0.000 N 
ATOM     27  O   UNL     1      44.693   1.539   8.945  0.00  0.00    +0.000 OA
ATOM     28  H   UNL     1      44.333   4.588   8.192  0.00  0.00    +0.000 HD
ATOM     29  H   UNL     1      44.626   3.239   7.103  0.00  0.00    +0.000 HD
ENDBRANCH  23  25
ENDBRANCH  17  19
ENDBRANCH  16  17
ENDBRANCH   5  16
TORSDOF 7
ENDMDL
MODEL 9
REMARK VINA RESULT:    -5.738      5.015      8.498
REMARK INTER + INTRA:          -8.649
REMARK INTER:                  -8.059
REMARK INTRA:                  -0.590
REMARK UNBOUND:                -0.562
REMARK  Name = 
REMARK  9 active torsions:
REMARK  status: ('A' for Active; 'I' for Inactive)
REMARK    1  A    between atoms: C_1  and  C_2
REMARK    2  A    between atoms: C_2  and  C_3
REMARK    3  A    between atoms: C_3  and  N_4
REMARK    4  A    between atoms: C_5  and  C_7
REMARK    5  A    between atoms: N_11  and  C_12
REMARK    6  A    between atoms: C_12  and  C_13
REMARK    7  A    between atoms: C_13  and  C_14
REMARK    8  A    between atoms: C_13  and  C_15
REMARK    9  A    between atoms: C_19  and  C_20
REMARK                            x       y       z     vdW  Elec       q    Type
REMARK                         _______ _______ _______ _____ _____    ______ ____
ROOT
ATOM      1  C   UNL     1      45.667   5.523  12.371  0.00  0.00    +0.000 A 
ATOM      2  C   UNL     1      44.823   6.626  12.376  0.00  0.00    +0.000 A 
ATOM      3  C   UNL     1      45.338   7.868  12.752  0.00  0.00    +0.000 A 
ATOM      4  C   UNL     1      46.687   8.001  13.084  0.00  0.00    +0.000 A 
ATOM      5  N   UNL     1      47.155   9.293  13.343  0.00  0.00    +0.000 N 
ATOM      6  N   UNL     1      47.513   6.935  13.079  0.00  0.00    +0.000 NA
ATOM      7  C   UNL     1      46.986   5.722  12.750  0.00  0.00    +0.000 A 
ATOM      8  H   UNL     1      46.647   9.740  14.097  0.00  0.00    +0.000 HD
ENDROOT
BRANCH   1  10
ATOM      9  N   UNL     1      44.684   3.986  10.758  0.00  0.00    +0.000 N 
ATOM     10  C   UNL     1      45.211   4.162  12.020  0.00  0.00    +0.000 C 
ATOM     11  O   UNL     1      45.319   3.254  12.841  0.00  0.00    +0.000 OA
ATOM     12  H   UNL     1      44.711   4.739  10.085  0.00  0.00    +0.000 HD
BRANCH   9  13
ATOM     13  C   UNL     1      44.162   2.705  10.319  0.00  0.00    +0.000 C 
BRANCH  13  15
ATOM     14  C   UNL     1      45.261   3.224   8.091  0.00  0.00    +0.000 C 
ATOM     15  C   UNL     1      44.913   2.147   9.109  0.00  0.00    +0.000 C 
ENDBRANCH  13  15
ENDBRANCH   9  13
ENDBRANCH   1  10
BRANCH   5  16
ATOM     16  C   UNL     1      48.601   9.503  13.299  0.00  0.00    +0.000 C 
BRANCH  16  17
ATOM     17  C   UNL     1      49.149   9.468  11.848  0.00  0.00    +0.000 C 
ATOM     18  C   UNL     1      49.026  10.833  11.152  0.00  0.00    +0.000 C 
BRANCH  17  19
ATOM     19  C   UNL     1      50.597   8.988  11.825  0.00  0.00    +0.000 A 
ATOM     20  C   UNL     1      51.533   9.432  12.768  0.00  0.00    +0.000 A 
ATOM     21  C   UNL     1      52.834   8.947  12.716  0.00  0.00    +0.000 A 
ATOM     22  N   UNL     1      53.274   8.061  11.799  0.00  0.00    +0.000 NA
ATOM     23  C   UNL     1      52.356   7.640  10.885  0.00  0.00    +0.000 A 
ATOM     24  C   UNL     1      51.031   8.072  10.857  0.00  0.00    +0.000 A 
BRANCH  23  25
ATOM     25  C   UNL     1      52.830   6.654   9.865  0.00  0.00    +0.000 C 
ATOM     26  N   UNL     1      53.370   5.491  10.356  0.00  0.00    +0.000 N 
ATOM     27  O   UNL     1      52.752   6.855   8.660  0.00  0.00    +0.000 OA
ATOM     28  H   UNL     1      53.419   5.352  11.360  0.00  0.00    +0.000 HD
ATOM     29  H   UNL     1      53.702   4.789   9.719  0.00  0.00    +0.000 HD
ENDBRANCH  23  25
ENDBRANCH  17  19
ENDBRANCH  16  17
ENDBRANCH   5  16
TORSDOF 7
ENDMDL
