MODEL 1
REMARK VINA RESULT:    -8.324      0.000      0.000
REMARK INTER + INTRA:         -11.358
REMARK INTER:                 -10.757
REMARK INTRA:                  -0.601
REMARK UNBOUND:                -0.601
REMARK  Name = 
REMARK  5 active torsions:
REMARK  status: ('A' for Active; 'I' for Inactive)
REMARK    1  A    between atoms: C_2  and  C_4
REMARK    2  A    between atoms: C_7  and  N_8
REMARK    3  A    between atoms: N_8  and  C_9
REMARK    4  A    between atoms: C_9  and  C_10
REMARK    5  A    between atoms: C_14  and  C_15
REMARK                            x       y       z     vdW  Elec       q    Type
REMARK                         _______ _______ _______ _____ _____    ______ ____
ROOT
ATOM      1  N   UNL     1      43.774   4.869   9.812  0.00  0.00    +0.000 N 
ATOM      2  H   UNL     1      43.889   5.846   9.568  0.00  0.00    +0.000 HD
ENDROOT
BRANCH   1   6
ATOM      3  C   UNL     1      46.356   2.354   7.829  0.00  0.00    +0.000 A 
ATOM      4  C   UNL     1      46.362   3.718   7.574  0.00  0.00    +0.000 A 
ATOM      5  N   UNL     1      45.508   4.587   8.185  0.00  0.00    +0.000 NA
ATOM      6  C   UNL     1      44.635   4.056   9.068  0.00  0.00    +0.000 A 
ATOM      7  C   UNL     1      44.646   2.672   9.306  0.00  0.00    +0.000 A 
ATOM      8  N   UNL     1      45.484   1.788   8.701  0.00  0.00    +0.000 NA
BRANCH   3  10
ATOM      9  N   UNL     1      48.328   2.053   6.425  0.00  0.00    +0.000 N 
ATOM     10  C   UNL     1      47.323   1.461   7.142  0.00  0.00    +0.000 C 
ATOM     11  O   UNL     1      47.243   0.236   7.225  0.00  0.00    +0.000 OA
ATOM     12  H   UNL     1      49.043   1.456   6.032  0.00  0.00    +0.000 HD
ATOM     13  H   UNL     1      48.502   3.048   6.515  0.00  0.00    +0.000 HD
ENDBRANCH   3  10
ENDBRANCH   1   6
BRANCH   1  14
ATOM     14  C   UNL     1      43.766   4.663  11.256  0.00  0.00    +0.000 C 
BRANCH  14  15
ATOM     15  C   UNL     1      44.953   5.391  11.859  0.00  0.00    +0.000 A 
ATOM     16  C   UNL     1      45.332   6.652  11.382  0.00  0.00    +0.000 A 
ATOM     17  C   UNL     1      46.416   7.322  11.949  0.00  0.00    +0.000 A 
ATOM     18  C   UNL     1      47.101   6.756  13.009  0.00  0.00    +0.000 A 
ATOM     19  C   UNL     1      46.732   5.508  13.549  0.00  0.00    +0.000 A 
ATOM     20  C   UNL     1      45.682   4.816  12.922  0.00  0.00    +0.000 A 
BRANCH  19  21
ATOM     21  C   UNL     1      47.386   5.024  14.770  0.00  0.00    +0.000 A 
ATOM     22  C   UNL     1      48.309   5.802  15.460  0.00  0.00    +0.000 A 
ATOM     23  N   UNL     1      48.971   5.425  16.573  0.00  0.00    +0.000 NA
ATOM     24  C   UNL     1      48.671   4.202  17.022  0.00  0.00    +0.000 A 
ATOM     25  N   UNL     1      47.785   3.356  16.477  0.00  0.00    +0.000 NA
ATOM     26  C   UNL     1      47.161   3.793  15.359  0.00  0.00    +0.000 A 
ENDBRANCH  19  21
ENDBRANCH  14  15
ENDBRANCH   1  14
TORSDOF 5
ENDMDL
MODEL 2
REMARK VINA RESULT:    -8.305      2.502      3.485
REMARK INTER + INTRA:         -11.334
REMARK INTER:                 -10.731
REMARK INTRA:                  -0.604
REMARK UNBOUND:                -0.601
REMARK  Name = 
REMARK  5 active torsions:
REMARK  status: ('A' for Active; 'I' for Inactive)
REMARK    1  A    between atoms: C_2  and  C_4
REMARK    2  A    between atoms: C_7  and  N_8
REMARK    3  A    between atoms: N_8  and  C_9
REMARK    4  A    between atoms: C_9  and  C_10
REMARK    5  A    between atoms: C_14  and  C_15
REMARK                            x       y       z     vdW  Elec       q    Type
REMARK                         _______ _______ _______ _____ _____    ______ ____
ROOT
ATOM      1  N   UNL     1      43.888   4.968   9.653  0.00  0.00    +0.000 N 
ATOM      2  H   UNL     1      44.247   5.904   9.507  0.00  0.00    +0.000 HD
ENDROOT
BRANCH   1   6
ATOM      3  C   UNL     1      46.230   2.055   7.934  0.00  0.00    +0.000 A 
ATOM      4  C   UNL     1      46.376   3.386   7.570  0.00  0.00    +0.000 A 
ATOM      5  N   UNL     1      45.605   4.382   8.091  0.00  0.00    +0.000 NA
ATOM      6  C   UNL     1      44.672   4.015   8.995  0.00  0.00    +0.000 A 
ATOM      7  C   UNL     1      44.541   2.661   9.344  0.00  0.00    +0.000 A 
ATOM      8  N   UNL     1      45.294   1.651   8.830  0.00  0.00    +0.000 NA
BRANCH   3  10
ATOM      9  N   UNL     1      46.845  -0.289   7.658  0.00  0.00    +0.000 N 
ATOM     10  C   UNL     1      47.111   1.016   7.341  0.00  0.00    +0.000 C 
ATOM     11  O   UNL     1      48.032   1.308   6.580  0.00  0.00    +0.000 OA
ATOM     12  H   UNL     1      47.381  -1.007   7.188  0.00  0.00    +0.000 HD
ATOM     13  H   UNL     1      45.980  -0.536   8.126  0.00  0.00    +0.000 HD
ENDBRANCH   3  10
ENDBRANCH   1   6
BRANCH   1  14
ATOM     14  C   UNL     1      43.589   4.711  11.057  0.00  0.00    +0.000 C 
BRANCH  14  15
ATOM     15  C   UNL     1      44.804   5.074  11.889  0.00  0.00    +0.000 A 
ATOM     16  C   UNL     1      45.331   4.165  12.816  0.00  0.00    +0.000 A 
ATOM     17  C   UNL     1      46.456   4.502  13.569  0.00  0.00    +0.000 A 
ATOM     18  C   UNL     1      47.077   5.723  13.378  0.00  0.00    +0.000 A 
ATOM     19  C   UNL     1      46.607   6.653  12.430  0.00  0.00    +0.000 A 
ATOM     20  C   UNL     1      45.434   6.329  11.730  0.00  0.00    +0.000 A 
BRANCH  19  21
ATOM     21  C   UNL     1      47.388   7.864  12.153  0.00  0.00    +0.000 A 
ATOM     22  C   UNL     1      46.868   9.134  12.375  0.00  0.00    +0.000 A 
ATOM     23  N   UNL     1      47.507  10.295  12.127  0.00  0.00    +0.000 NA
ATOM     24  C   UNL     1      48.747  10.165  11.644  0.00  0.00    +0.000 A 
ATOM     25  N   UNL     1      49.385   9.010  11.407  0.00  0.00    +0.000 NA
ATOM     26  C   UNL     1      48.684   7.883  11.671  0.00  0.00    +0.000 A 
ENDBRANCH  19  21
ENDBRANCH  14  15
ENDBRANCH   1  14
TORSDOF 5
ENDMDL
MODEL 3
REMARK VINA RESULT:    -7.487      1.317      1.925
REMARK INTER + INTRA:         -10.277
REMARK INTER:                  -9.723
REMARK INTRA:                  -0.554
REMARK UNBOUND:                -0.601
REMARK  Name = 
REMARK  5 active torsions:
REMARK  status: ('A' for Active; 'I' for Inactive)
REMARK    1  A    between atoms: C_2  and  C_4
REMARK    2  A    between atoms: C_7  and  N_8
REMARK    3  A    between atoms: N_8  and  C_9
REMARK    4  A    between atoms: C_9  and  C_10
REMARK    5  A    between atoms: C_14  and  C_15
REMARK                            x       y       z     vdW  Elec       q    Type
REMARK                         _______ _______ _______ _____ _____    ______ ____
ROOT
ATOM      1  N   UNL     1      43.612   3.835  10.284  0.00  0.00    +0.000 N 
ATOM      2  H   UNL     1      43.161   4.677   9.946  0.00  0.00    +0.000 HD
ENDROOT
BRANCH   1   6
ATOM      3  C   UNL     1      46.461   2.717   7.535  0.00  0.00    +0.000 A 
ATOM      4  C   UNL     1      45.924   1.788   8.415  0.00  0.00    +0.000 A 
ATOM      5  N   UNL     1      44.999   2.116   9.361  0.00  0.00    +0.000 NA
ATOM      6  C   UNL     1      44.617   3.410   9.410  0.00  0.00    +0.000 A 
ATOM      7  C   UNL     1      45.177   4.332   8.511  0.00  0.00    +0.000 A 
ATOM      8  N   UNL     1      46.106   4.027   7.566  0.00  0.00    +0.000 NA
BRANCH   3  10
ATOM      9  N   UNL     1      47.481   2.991   5.336  0.00  0.00    +0.000 N 
ATOM     10  C   UNL     1      47.455   2.295   6.515  0.00  0.00    +0.000 C 
ATOM     11  O   UNL     1      48.239   1.371   6.722  0.00  0.00    +0.000 OA
ATOM     12  H   UNL     1      48.214   2.771   4.675  0.00  0.00    +0.000 HD
ATOM     13  H   UNL     1      46.970   3.862   5.246  0.00  0.00    +0.000 HD
ENDBRANCH   3  10
ENDBRANCH   1   6
BRANCH   1  14
ATOM     14  C   UNL     1      43.973   3.937  11.694  0.00  0.00    +0.000 C 
BRANCH  14  15
ATOM     15  C   UNL     1      44.669   5.265  11.924  0.00  0.00    +0.000 A 
ATOM     16  C   UNL     1      44.131   6.450  11.405  0.00  0.00    +0.000 A 
ATOM     17  C   UNL     1      44.770   7.669  11.631  0.00  0.00    +0.000 A 
ATOM     18  C   UNL     1      45.920   7.717  12.398  0.00  0.00    +0.000 A 
ATOM     19  C   UNL     1      46.476   6.557  12.973  0.00  0.00    +0.000 A 
ATOM     20  C   UNL     1      45.860   5.329  12.680  0.00  0.00    +0.000 A 
BRANCH  19  21
ATOM     21  C   UNL     1      47.602   6.678  13.906  0.00  0.00    +0.000 A 
ATOM     22  C   UNL     1      48.442   7.786  13.895  0.00  0.00    +0.000 A 
ATOM     23  N   UNL     1      49.510   7.965  14.699  0.00  0.00    +0.000 NA
ATOM     24  C   UNL     1      49.730   6.979  15.574  0.00  0.00    +0.000 A 
ATOM     25  N   UNL     1      48.989   5.870  15.716  0.00  0.00    +0.000 NA
ATOM     26  C   UNL     1      47.938   5.749  14.874  0.00  0.00    +0.000 A 
ENDBRANCH  19  21
ENDBRANCH  14  15
ENDBRANCH   1  14
TORSDOF 5
ENDMDL
MODEL 4
REMARK VINA RESULT:    -7.094      3.146      7.064
REMARK INTER + INTRA:          -9.769
REMARK INTER:                  -9.082
REMARK INTRA:                  -0.687
REMARK UNBOUND:                -0.601
REMARK  Name = 
REMARK  5 active torsions:
REMARK  status: ('A' for Active; 'I' for Inactive)
REMARK    1  A    between atoms: C_2  and  C_4
REMARK    2  A    between atoms: C_7  and  N_8
REMARK    3  A    between atoms: N_8  and  C_9
REMARK    4  A    between atoms: C_9  and  C_10
REMARK    5  A    between atoms: C_14  and  C_15
REMARK                            x       y       z     vdW  Elec       q    Type
REMARK                         _______ _______ _______ _____ _____    ______ ____
ROOT
ATOM      1  N   UNL     1      44.199   6.559  12.530  0.00  0.00    +0.000 N 
ATOM      2  H   UNL     1      43.834   5.861  13.168  0.00  0.00    +0.000 HD
ENDROOT
BRANCH   1   6
ATOM      3  C   UNL     1      48.248   7.205  12.872  0.00  0.00    +0.000 A 
ATOM      4  C   UNL     1      47.654   6.104  13.473  0.00  0.00    +0.000 A 
ATOM      5  N   UNL     1      46.314   5.863  13.411  0.00  0.00    +0.000 NA
ATOM      6  C   UNL     1      45.569   6.758  12.727  0.00  0.00    +0.000 A 
ATOM      7  C   UNL     1      46.193   7.866  12.131  0.00  0.00    +0.000 A 
ATOM      8  N   UNL     1      47.526   8.129  12.188  0.00  0.00    +0.000 NA
BRANCH   3  10
ATOM      9  N   UNL     1      50.428   7.382  11.793  0.00  0.00    +0.000 N 
ATOM     10  C   UNL     1      49.716   7.405  12.963  0.00  0.00    +0.000 C 
ATOM     11  O   UNL     1      50.276   7.605  14.040  0.00  0.00    +0.000 OA
ATOM     12  H   UNL     1      51.412   7.608  11.835  0.00  0.00    +0.000 HD
ATOM     13  H   UNL     1      49.946   7.408  10.901  0.00  0.00    +0.000 HD
ENDBRANCH   3  10
ENDBRANCH   1   6
BRANCH   1  14
ATOM     14  C   UNL     1      43.763   6.327  11.158  0.00  0.00    +0.000 C 
BRANCH  14  15
ATOM     15  C   UNL     1      43.970   4.862  10.821  0.00  0.00    +0.000 A 
ATOM     16  C   UNL     1      43.252   3.868  11.497  0.00  0.00    +0.000 A 
ATOM     17  C   UNL     1      43.438   2.524  11.174  0.00  0.00    +0.000 A 
ATOM     18  C   UNL     1      44.310   2.170  10.160  0.00  0.00    +0.000 A 
ATOM     19  C   UNL     1      45.025   3.137   9.426  0.00  0.00    +0.000 A 
ATOM     20  C   UNL     1      44.878   4.481   9.809  0.00  0.00    +0.000 A 
BRANCH  19  21
ATOM     21  C   UNL     1      45.815   2.725   8.259  0.00  0.00    +0.000 A 
ATOM     22  C   UNL     1      46.102   3.609   7.225  0.00  0.00    +0.000 A 
ATOM     23  N   UNL     1      46.799   3.307   6.111  0.00  0.00    +0.000 NA
ATOM     24  C   UNL     1      47.244   2.048   6.047  0.00  0.00    +0.000 A 
ATOM     25  N   UNL     1      47.067   1.100   6.978  0.00  0.00    +0.000 NA
ATOM     26  C   UNL     1      46.354   1.467   8.067  0.00  0.00    +0.000 A 
ENDBRANCH  19  21
ENDBRANCH  14  15
ENDBRANCH   1  14
TORSDOF 5
ENDMDL
MODEL 5
REMARK VINA RESULT:    -6.891      2.887      7.478
REMARK INTER + INTRA:          -9.506
REMARK INTER:                  -9.123
REMARK INTRA:                  -0.384
REMARK UNBOUND:                -0.601
REMARK  Name = 
REMARK  5 active torsions:
REMARK  status: ('A' for Active; 'I' for Inactive)
REMARK    1  A    between atoms: C_2  and  C_4
REMARK    2  A    between atoms: C_7  and  N_8
REMARK    3  A    between atoms: N_8  and  C_9
REMARK    4  A    between atoms: C_9  and  C_10
REMARK    5  A    between atoms: C_14  and  C_15
REMARK                            x       y       z     vdW  Elec       q    Type
REMARK                         _______ _______ _______ _____ _____    ______ ____
ROOT
ATOM      1  N   UNL     1      47.256   6.486  12.984  0.00  0.00    +0.000 N 
ATOM      2  H   UNL     1      47.971   7.178  12.789  0.00  0.00    +0.000 HD
ENDROOT
BRANCH   1   6
ATOM      3  C   UNL     1      47.871   4.335  16.437  0.00  0.00    +0.000 A 
ATOM      4  C   UNL     1      48.527   5.541  16.228  0.00  0.00    +0.000 A 
ATOM      5  N   UNL     1      48.377   6.275  15.089  0.00  0.00    +0.000 NA
ATOM      6  C   UNL     1      47.547   5.772  14.150  0.00  0.00    +0.000 A 
ATOM      7  C   UNL     1      46.898   4.549  14.383  0.00  0.00    +0.000 A 
ATOM      8  N   UNL     1      47.040   3.797  15.508  0.00  0.00    +0.000 NA
BRANCH   3  10
ATOM      9  N   UNL     1      47.069   2.729  18.088  0.00  0.00    +0.000 N 
ATOM     10  C   UNL     1      48.064   3.589  17.706  0.00  0.00    +0.000 C 
ATOM     11  O   UNL     1      49.084   3.717  18.382  0.00  0.00    +0.000 OA
ATOM     12  H   UNL     1      47.232   2.150  18.900  0.00  0.00    +0.000 HD
ATOM     13  H   UNL     1      46.328   2.486  17.440  0.00  0.00    +0.000 HD
ENDBRANCH   3  10
ENDBRANCH   1   6
BRANCH   1  14
ATOM     14  C   UNL     1      45.913   7.043  12.876  0.00  0.00    +0.000 C 
BRANCH  14  15
ATOM     15  C   UNL     1      45.067   6.115  12.025  0.00  0.00    +0.000 A 
ATOM     16  C   UNL     1      43.677   6.068  12.188  0.00  0.00    +0.000 A 
ATOM     17  C   UNL     1      42.904   5.221  11.394  0.00  0.00    +0.000 A 
ATOM     18  C   UNL     1      43.505   4.449  10.416  0.00  0.00    +0.000 A 
ATOM     19  C   UNL     1      44.895   4.492  10.188  0.00  0.00    +0.000 A 
ATOM     20  C   UNL     1      45.667   5.298  11.042  0.00  0.00    +0.000 A 
BRANCH  19  21
ATOM     21  C   UNL     1      45.464   3.777   9.040  0.00  0.00    +0.000 A 
ATOM     22  C   UNL     1      45.972   4.456   7.938  0.00  0.00    +0.000 A 
ATOM     23  N   UNL     1      46.490   3.878   6.835  0.00  0.00    +0.000 NA
ATOM     24  C   UNL     1      46.512   2.542   6.855  0.00  0.00    +0.000 A 
ATOM     25  N   UNL     1      46.084   1.760   7.857  0.00  0.00    +0.000 NA
ATOM     26  C   UNL     1      45.570   2.403   8.930  0.00  0.00    +0.000 A 
ENDBRANCH  19  21
ENDBRANCH  14  15
ENDBRANCH   1  14
TORSDOF 5
ENDMDL
MODEL 6
REMARK VINA RESULT:    -6.841      3.215      8.349
REMARK INTER + INTRA:          -9.442
REMARK INTER:                  -9.052
REMARK INTRA:                  -0.390
REMARK UNBOUND:                -0.601
REMARK  Name = 
REMARK  5 active torsions:
REMARK  status: ('A' for Active; 'I' for Inactive)
REMARK    1  A    between atoms: C_2  and  C_4
REMARK    2  A    between atoms: C_7  and  N_8
REMARK    3  A    between atoms: N_8  and  C_9
REMARK    4  A    between atoms: C_9  and  C_10
REMARK    5  A    between atoms: C_14  and  C_15
REMARK                            x       y       z     vdW  Elec       q    Type
REMARK                         _______ _______ _______ _____ _____    ______ ____
ROOT
ATOM      1  N   UNL     1      46.613   4.209  14.404  0.00  0.00    +0.000 N 
ATOM      2  H   UNL     1      47.253   3.794  13.737  0.00  0.00    +0.000 HD
ENDROOT
BRANCH   1   6
ATOM      3  C   UNL     1      48.486   4.431  18.060  0.00  0.00    +0.000 A 
ATOM      4  C   UNL     1      47.606   3.396  17.778  0.00  0.00    +0.000 A 
ATOM      5  N   UNL     1      46.941   3.295  16.592  0.00  0.00    +0.000 NA
ATOM      6  C   UNL     1      47.177   4.264  15.682  0.00  0.00    +0.000 A 
ATOM      7  C   UNL     1      48.069   5.303  15.993  0.00  0.00    +0.000 A 
ATOM      8  N   UNL     1      48.736   5.427  17.172  0.00  0.00    +0.000 NA
BRANCH   3  10
ATOM      9  N   UNL     1      48.631   3.793  20.410  0.00  0.00    +0.000 N 
ATOM     10  C   UNL     1      49.193   4.477  19.366  0.00  0.00    +0.000 C 
ATOM     11  O   UNL     1      50.251   5.088  19.506  0.00  0.00    +0.000 OA
ATOM     12  H   UNL     1      49.151   3.743  21.276  0.00  0.00    +0.000 HD
ATOM     13  H   UNL     1      47.871   3.143  20.245  0.00  0.00    +0.000 HD
ENDBRANCH   3  10
ENDBRANCH   1   6
BRANCH   1  14
ATOM     14  C   UNL     1      46.019   5.442  13.898  0.00  0.00    +0.000 C 
BRANCH  14  15
ATOM     15  C   UNL     1      45.119   5.104  12.725  0.00  0.00    +0.000 A 
ATOM     16  C   UNL     1      43.777   5.504  12.718  0.00  0.00    +0.000 A 
ATOM     17  C   UNL     1      42.958   5.201  11.630  0.00  0.00    +0.000 A 
ATOM     18  C   UNL     1      43.479   4.532  10.537  0.00  0.00    +0.000 A 
ATOM     19  C   UNL     1      44.832   4.144  10.481  0.00  0.00    +0.000 A 
ATOM     20  C   UNL     1      45.626   4.396  11.613  0.00  0.00    +0.000 A 
BRANCH  19  21
ATOM     21  C   UNL     1      45.375   3.579   9.240  0.00  0.00    +0.000 A 
ATOM     22  C   UNL     1      45.588   2.213   9.093  0.00  0.00    +0.000 A 
ATOM     23  N   UNL     1      46.103   1.617   7.998  0.00  0.00    +0.000 NA
ATOM     24  C   UNL     1      46.402   2.444   6.992  0.00  0.00    +0.000 A 
ATOM     25  N   UNL     1      46.224   3.773   6.983  0.00  0.00    +0.000 NA
ATOM     26  C   UNL     1      45.711   4.308   8.114  0.00  0.00    +0.000 A 
ENDBRANCH  19  21
ENDBRANCH  14  15
ENDBRANCH   1  14
TORSDOF 5
ENDMDL
MODEL 7
REMARK VINA RESULT:    -6.785      2.929      7.451
REMARK INTER + INTRA:          -9.369
REMARK INTER:                  -9.122
REMARK INTRA:                  -0.246
REMARK UNBOUND:                -0.601
REMARK  Name = 
REMARK  5 active torsions:
REMARK  status: ('A' for Active; 'I' for Inactive)
REMARK    1  A    between atoms: C_2  and  C_4
REMARK    2  A    between atoms: C_7  and  N_8
REMARK    3  A    between atoms: N_8  and  C_9
REMARK    4  A    between atoms: C_9  and  C_10
REMARK    5  A    between atoms: C_14  and  C_15
REMARK                            x       y       z     vdW  Elec       q    Type
REMARK                         _______ _______ _______ _____ _____    ______ ____
ROOT
ATOM      1  N   UNL     1      45.023   7.001  10.970  0.00  0.00    +0.000 N 
ATOM      2  H   UNL     1      44.887   7.945  10.628  0.00  0.00    +0.000 HD
ENDROOT
BRANCH   1   6
ATOM      3  C   UNL     1      47.734   7.121  14.063  0.00  0.00    +0.000 A 
ATOM      4  C   UNL     1      47.359   5.910  13.497  0.00  0.00    +0.000 A 
ATOM      5  N   UNL     1      46.445   5.818  12.490  0.00  0.00    +0.000 NA
ATOM      6  C   UNL     1      45.905   6.976  12.055  0.00  0.00    +0.000 A 
ATOM      7  C   UNL     1      46.297   8.188  12.646  0.00  0.00    +0.000 A 
ATOM      8  N   UNL     1      47.201   8.302  13.656  0.00  0.00    +0.000 NA
BRANCH   3  10
ATOM      9  N   UNL     1      48.408   7.810  16.303  0.00  0.00    +0.000 N 
ATOM     10  C   UNL     1      48.747   7.158  15.147  0.00  0.00    +0.000 C 
ATOM     11  O   UNL     1      49.842   6.611  15.028  0.00  0.00    +0.000 OA
ATOM     12  H   UNL     1      49.055   7.762  17.079  0.00  0.00    +0.000 HD
ATOM     13  H   UNL     1      47.448   8.091  16.468  0.00  0.00    +0.000 HD
ENDBRANCH   3  10
ENDBRANCH   1   6
BRANCH   1  14
ATOM     14  C   UNL     1      43.759   6.293  11.140  0.00  0.00    +0.000 C 
BRANCH  14  15
ATOM     15  C   UNL     1      43.967   4.832  10.791  0.00  0.00    +0.000 A 
ATOM     16  C   UNL     1      43.257   3.830  11.465  0.00  0.00    +0.000 A 
ATOM     17  C   UNL     1      43.444   2.489  11.130  0.00  0.00    +0.000 A 
ATOM     18  C   UNL     1      44.307   2.145  10.105  0.00  0.00    +0.000 A 
ATOM     19  C   UNL     1      45.014   3.120   9.373  0.00  0.00    +0.000 A 
ATOM     20  C   UNL     1      44.867   4.460   9.768  0.00  0.00    +0.000 A 
BRANCH  19  21
ATOM     21  C   UNL     1      45.794   2.719   8.196  0.00  0.00    +0.000 A 
ATOM     22  C   UNL     1      46.339   1.445   8.082  0.00  0.00    +0.000 A 
ATOM     23  N   UNL     1      47.086   1.004   7.049  0.00  0.00    +0.000 NA
ATOM     24  C   UNL     1      47.277   1.894   6.071  0.00  0.00    +0.000 A 
ATOM     25  N   UNL     1      46.791   3.143   6.033  0.00  0.00    +0.000 NA
ATOM     26  C   UNL     1      46.056   3.524   7.103  0.00  0.00    +0.000 A 
ENDBRANCH  19  21
ENDBRANCH  14  15
ENDBRANCH   1  14
TORSDOF 5
ENDMDL
MODEL 8
REMARK VINA RESULT:    -6.635      3.575      7.754
REMARK INTER + INTRA:          -9.175
REMARK INTER:                  -8.602
REMARK INTRA:                  -0.573
REMARK UNBOUND:                -0.601
REMARK  Name = 
REMARK  5 active torsions:
REMARK  status: ('A' for Active; 'I' for Inactive)
REMARK    1  A    between atoms: C_2  and  C_4
REMARK    2  A    between atoms: C_7  and  N_8
REMARK    3  A    between atoms: N_8  and  C_9
REMARK    4  A    between atoms: C_9  and  C_10
REMARK    5  A    between atoms: C_14  and  C_15
REMARK                            x       y       z     vdW  Elec       q    Type
REMARK                         _______ _______ _______ _____ _____    ______ ____
ROOT
ATOM      1  N   UNL     1      48.191   5.450  16.415  0.00  0.00    +0.000 N 
ATOM      2  H   UNL     1      47.372   5.080  15.945  0.00  0.00    +0.000 HD
ENDROOT
BRANCH   1   6
ATOM      3  C   UNL     1      50.969   2.574  17.384  0.00  0.00    +0.000 A 
ATOM      4  C   UNL     1      49.742   2.218  16.843  0.00  0.00    +0.000 A 
ATOM      5  N   UNL     1      48.780   3.132  16.531  0.00  0.00    +0.000 NA
ATOM      6  C   UNL     1      49.073   4.427  16.777  0.00  0.00    +0.000 A 
ATOM      7  C   UNL     1      50.320   4.762  17.329  0.00  0.00    +0.000 A 
ATOM      8  N   UNL     1      51.290   3.865  17.654  0.00  0.00    +0.000 NA
BRANCH   3  10
ATOM      9  N   UNL     1      51.525   0.308  18.096  0.00  0.00    +0.000 N 
ATOM     10  C   UNL     1      51.983   1.533  17.689  0.00  0.00    +0.000 C 
ATOM     11  O   UNL     1      53.187   1.748  17.562  0.00  0.00    +0.000 OA
ATOM     12  H   UNL     1      52.202  -0.433  18.217  0.00  0.00    +0.000 HD
ATOM     13  H   UNL     1      50.541   0.078  18.016  0.00  0.00    +0.000 HD
ENDBRANCH   3  10
ENDBRANCH   1   6
BRANCH   1  14
ATOM     14  C   UNL     1      48.764   6.585  15.702  0.00  0.00    +0.000 C 
BRANCH  14  15
ATOM     15  C   UNL     1      48.179   6.629  14.303  0.00  0.00    +0.000 A 
ATOM     16  C   UNL     1      48.789   7.392  13.299  0.00  0.00    +0.000 A 
ATOM     17  C   UNL     1      48.252   7.418  12.012  0.00  0.00    +0.000 A 
ATOM     18  C   UNL     1      47.134   6.661  11.713  0.00  0.00    +0.000 A 
ATOM     19  C   UNL     1      46.509   5.847  12.679  0.00  0.00    +0.000 A 
ATOM     20  C   UNL     1      47.020   5.886  13.987  0.00  0.00    +0.000 A 
BRANCH  19  21
ATOM     21  C   UNL     1      45.425   4.944  12.275  0.00  0.00    +0.000 A 
ATOM     22  C   UNL     1      44.618   4.310  13.213  0.00  0.00    +0.000 A 
ATOM     23  N   UNL     1      43.619   3.450  12.930  0.00  0.00    +0.000 NA
ATOM     24  C   UNL     1      43.412   3.233  11.627  0.00  0.00    +0.000 A 
ATOM     25  N   UNL     1      44.091   3.795  10.616  0.00  0.00    +0.000 NA
ATOM     26  C   UNL     1      45.085   4.642  10.970  0.00  0.00    +0.000 A 
ENDBRANCH  19  21
ENDBRANCH  14  15
ENDBRANCH   1  14
TORSDOF 5
ENDMDL
MODEL 9
REMARK VINA RESULT:    -6.155      2.701      4.125
REMARK INTER + INTRA:          -8.555
REMARK INTER:                  -7.994
REMARK INTRA:                  -0.561
REMARK UNBOUND:                -0.601
REMARK  Name = 
REMARK  5 active torsions:
REMARK  status: ('A' for Active; 'I' for Inactive)
REMARK    1  A    between atoms: C_2  and  C_4
REMARK    2  A    between atoms: C_7  and  N_8
REMARK    3  A    between atoms: N_8  and  C_9
REMARK    4  A    between atoms: C_9  and  C_10
REMARK    5  A    between atoms: C_14  and  C_15
REMARK                            x       y       z     vdW  Elec       q    Type
REMARK                         _______ _______ _______ _____ _____    ______ ____
ROOT
ATOM      1  N   UNL     1      46.465   7.860  12.297  0.00  0.00    +0.000 N 
ATOM      2  H   UNL     1      46.095   8.675  11.821  0.00  0.00    +0.000 HD
ENDROOT
BRANCH   1   6
ATOM      3  C   UNL     1      44.643   4.316  11.275  0.00  0.00    +0.000 A 
ATOM      4  C   UNL     1      45.332   5.057  10.325  0.00  0.00    +0.000 A 
ATOM      5  N   UNL     1      45.928   6.249  10.609  0.00  0.00    +0.000 NA
ATOM      6  C   UNL     1      45.819   6.692  11.880  0.00  0.00    +0.000 A 
ATOM      7  C   UNL     1      45.113   5.926  12.822  0.00  0.00    +0.000 A 
ATOM      8  N   UNL     1      44.505   4.739  12.557  0.00  0.00    +0.000 NA
BRANCH   3  10
ATOM      9  N   UNL     1      44.679   2.252   9.975  0.00  0.00    +0.000 N 
ATOM     10  C   UNL     1      44.028   3.015  10.907  0.00  0.00    +0.000 C 
ATOM     11  O   UNL     1      42.985   2.624  11.429  0.00  0.00    +0.000 OA
ATOM     12  H   UNL     1      44.317   1.327   9.787  0.00  0.00    +0.000 HD
ATOM     13  H   UNL     1      45.623   2.487   9.692  0.00  0.00    +0.000 HD
ENDBRANCH   3  10
ENDBRANCH   1   6
BRANCH   1  14
ATOM     14  C   UNL     1      47.923   7.838  12.289  0.00  0.00    +0.000 C 
BRANCH  14  15
ATOM     15  C   UNL     1      48.416   7.673  13.714  0.00  0.00    +0.000 A 
ATOM     16  C   UNL     1      49.008   8.746  14.392  0.00  0.00    +0.000 A 
ATOM     17  C   UNL     1      49.448   8.591  15.707  0.00  0.00    +0.000 A 
ATOM     18  C   UNL     1      49.269   7.384  16.359  0.00  0.00    +0.000 A 
ATOM     19  C   UNL     1      48.644   6.288  15.731  0.00  0.00    +0.000 A 
ATOM     20  C   UNL     1      48.270   6.439  14.386  0.00  0.00    +0.000 A 
BRANCH  19  21
ATOM     21  C   UNL     1      48.337   5.084  16.512  0.00  0.00    +0.000 A 
ATOM     22  C   UNL     1      47.161   4.369  16.315  0.00  0.00    +0.000 A 
ATOM     23  N   UNL     1      46.791   3.269  17.002  0.00  0.00    +0.000 NA
ATOM     24  C   UNL     1      47.666   2.860  17.926  0.00  0.00    +0.000 A 
ATOM     25  N   UNL     1      48.846   3.432  18.204  0.00  0.00    +0.000 NA
ATOM     26  C   UNL     1      49.153   4.535  17.484  0.00  0.00    +0.000 A 
ENDBRANCH  19  21
ENDBRANCH  14  15
ENDBRANCH   1  14
TORSDOF 5
ENDMDL
