MODEL 1
REMARK VINA RESULT:    -7.450      0.000      0.000
REMARK INTER + INTRA:         -10.955
REMARK INTER:                 -10.063
REMARK INTRA:                  -0.892
REMARK UNBOUND:                -0.892
REMARK  Name = 
REMARK  7 active torsions:
REMARK  status: ('A' for Active; 'I' for Inactive)
REMARK    1  A    between atoms: C_1  and  C_2
REMARK    2  A    between atoms: C_2  and  C_3
REMARK    3  A    between atoms: C_7  and  C_8
REMARK    4  A    between atoms: C_8  and  C_9
REMARK    5  A    between atoms: C_9  and  C_10
REMARK    6  A    between atoms: C_10  and  C_11
REMARK    7  A    between atoms: C_15  and  C_16
REMARK                            x       y       z     vdW  Elec       q    Type
REMARK                         _______ _______ _______ _____ _____    ______ ____
ROOT
ATOM      1  C   UNL     1      45.394   3.706  12.235  0.00  0.00    +0.000 C 
ENDROOT
BRANCH   1   6
ATOM      2  C   UNL     1      47.128   6.965  13.281  0.00  0.00    +0.000 A 
ATOM      3  C   UNL     1      46.240   7.909  12.744  0.00  0.00    +0.000 A 
ATOM      4  C   UNL     1      45.090   7.505  12.065  0.00  0.00    +0.000 A 
ATOM      5  C   UNL     1      44.800   6.149  11.905  0.00  0.00    +0.000 A 
ATOM      6  C   UNL     1      45.656   5.181  12.438  0.00  0.00    +0.000 A 
ATOM      7  C   UNL     1      46.802   5.602  13.130  0.00  0.00    +0.000 A 
BRANCH   2   9
ATOM      8  C   UNL     1      49.553   7.476  12.922  0.00  0.00    +0.000 C 
ATOM      9  C   UNL     1      48.436   7.379  13.979  0.00  0.00    +0.000 C 
ATOM     10  C   UNL     1      48.195   8.724  14.708  0.00  0.00    +0.000 C 
ATOM     11  C   UNL     1      49.345   9.115  15.625  0.00  0.00    +0.000 C 
ATOM     12  C   UNL     1      49.674   7.970  16.569  0.00  0.00    +0.000 C 
ATOM     13  C   UNL     1      49.884   6.674  15.802  0.00  0.00    +0.000 C 
ATOM     14  O   UNL     1      48.780   6.372  14.953  0.00  0.00    +0.000 OA
ENDBRANCH   2   9
ENDBRANCH   1   6
BRANCH   1  15
ATOM     15  C   UNL     1      43.930   3.408  11.901  0.00  0.00    +0.000 C 
BRANCH  15  16
ATOM     16  C   UNL     1      43.797   2.389  10.768  0.00  0.00    +0.000 C 
BRANCH  16  17
ATOM     17  C   UNL     1      44.689   2.756   9.607  0.00  0.00    +0.000 A 
ATOM     18  C   UNL     1      44.654   4.030   9.069  0.00  0.00    +0.000 A 
ATOM     19  C   UNL     1      45.473   4.264   7.986  0.00  0.00    +0.000 A 
ATOM     20  N   UNL     1      46.277   3.334   7.444  0.00  0.00    +0.000 NA
ATOM     21  C   UNL     1      46.234   2.118   8.039  0.00  0.00    +0.000 A 
ATOM     22  N   UNL     1      45.472   1.782   9.100  0.00  0.00    +0.000 NA
BRANCH  21  23
ATOM     23  C   UNL     1      47.124   1.050   7.439  0.00  0.00    +0.000 C 
ATOM     24  N   UNL     1      46.755  -0.248   7.710  0.00  0.00    +0.000 N 
ATOM     25  O   UNL     1      48.114   1.284   6.754  0.00  0.00    +0.000 OA
ATOM     26  H   UNL     1      45.942  -0.436   8.284  0.00  0.00    +0.000 HD
ATOM     27  H   UNL     1      47.314  -1.005   7.342  0.00  0.00    +0.000 HD
ENDBRANCH  21  23
ENDBRANCH  16  17
ENDBRANCH  15  16
ENDBRANCH   1  15
TORSDOF 6
ENDMDL
MODEL 2
REMARK VINA RESULT:    -7.219      3.475      7.730
REMARK INTER + INTRA:         -10.643
REMARK INTER:                  -9.524
REMARK INTRA:                  -1.119
REMARK UNBOUND:                -0.892
REMARK  Name = 
REMARK  7 active torsions:
REMARK  status: ('A' for Active; 'I' for Inactive)
REMARK    1  A    between atoms: C_1  and  C_2
REMARK    2  A    between atoms: C_2  and  C_3
REMARK    3  A    between atoms: C_7  and  C_8
REMARK    4  A    between atoms: C_8  and  C_9
REMARK    5  A    between atoms: C_9  and  C_10
REMARK    6  A    between atoms: C_10  and  C_11
REMARK    7  A    between atoms: C_15  and  C_16
REMARK                            x       y       z     vdW  Elec       q    Type
REMARK                         _______ _______ _______ _____ _____    ______ ____
ROOT
ATOM      1  C   UNL     1      47.110   7.788  11.936  0.00  0.00    +0.000 C 
ENDROOT
BRANCH   1   6
ATOM      2  C   UNL     1      45.259   4.737  10.527  0.00  0.00    +0.000 A 
ATOM      3  C   UNL     1      44.501   4.361  11.646  0.00  0.00    +0.000 A 
ATOM      4  C   UNL     1      44.572   5.085  12.835  0.00  0.00    +0.000 A 
ATOM      5  C   UNL     1      45.403   6.202  12.938  0.00  0.00    +0.000 A 
ATOM      6  C   UNL     1      46.164   6.613  11.839  0.00  0.00    +0.000 A 
ATOM      7  C   UNL     1      46.072   5.882  10.644  0.00  0.00    +0.000 A 
BRANCH   2   9
ATOM      8  C   UNL     1      43.831   3.956   8.624  0.00  0.00    +0.000 C 
ATOM      9  C   UNL     1      45.250   3.920   9.222  0.00  0.00    +0.000 C 
ATOM     10  C   UNL     1      46.310   4.520   8.265  0.00  0.00    +0.000 C 
ATOM     11  C   UNL     1      46.556   3.655   7.037  0.00  0.00    +0.000 C 
ATOM     12  C   UNL     1      46.866   2.228   7.457  0.00  0.00    +0.000 C 
ATOM     13  C   UNL     1      45.804   1.697   8.407  0.00  0.00    +0.000 C 
ATOM     14  O   UNL     1      45.611   2.557   9.527  0.00  0.00    +0.000 OA
ENDBRANCH   2   9
ENDBRANCH   1   6
BRANCH   1  15
ATOM     15  C   UNL     1      47.420   8.176  13.384  0.00  0.00    +0.000 C 
BRANCH  15  16
ATOM     16  C   UNL     1      48.763   7.612  13.854  0.00  0.00    +0.000 C 
BRANCH  16  17
ATOM     17  C   UNL     1      48.610   6.884  15.167  0.00  0.00    +0.000 A 
ATOM     18  C   UNL     1      48.930   7.509  16.359  0.00  0.00    +0.000 A 
ATOM     19  C   UNL     1      48.798   6.755  17.506  0.00  0.00    +0.000 A 
ATOM     20  N   UNL     1      48.387   5.476  17.513  0.00  0.00    +0.000 NA
ATOM     21  C   UNL     1      48.104   4.954  16.296  0.00  0.00    +0.000 A 
ATOM     22  N   UNL     1      48.199   5.601  15.116  0.00  0.00    +0.000 NA
BRANCH  21  23
ATOM     23  C   UNL     1      47.649   3.510  16.278  0.00  0.00    +0.000 C 
ATOM     24  N   UNL     1      46.956   3.094  17.392  0.00  0.00    +0.000 N 
ATOM     25  O   UNL     1      47.863   2.733  15.354  0.00  0.00    +0.000 OA
ATOM     26  H   UNL     1      46.789   3.737  18.156  0.00  0.00    +0.000 HD
ATOM     27  H   UNL     1      46.631   2.139  17.440  0.00  0.00    +0.000 HD
ENDBRANCH  21  23
ENDBRANCH  16  17
ENDBRANCH  15  16
ENDBRANCH   1  15
TORSDOF 6
ENDMDL
MODEL 3
REMARK VINA RESULT:    -7.093      4.088      7.841
REMARK INTER + INTRA:         -10.473
REMARK INTER:                  -9.589
REMARK INTRA:                  -0.884
REMARK UNBOUND:                -0.892
REMARK  Name = 
REMARK  7 active torsions:
REMARK  status: ('A' for Active; 'I' for Inactive)
REMARK    1  A    between atoms: C_1  and  C_2
REMARK    2  A    between atoms: C_2  and  C_3
REMARK    3  A    between atoms: C_7  and  C_8
REMARK    4  A    between atoms: C_8  and  C_9
REMARK    5  A    between atoms: C_9  and  C_10
REMARK    6  A    between atoms: C_10  and  C_11
REMARK    7  A    between atoms: C_15  and  C_16
REMARK                            x       y       z     vdW  Elec       q    Type
REMARK                         _______ _______ _______ _____ _____    ______ ____
ROOT
ATOM      1  C   UNL     1      48.403   6.668  14.170  0.00  0.00    +0.000 C 
ENDROOT
BRANCH   1   6
ATOM      2  C   UNL     1      45.421   6.376  11.774  0.00  0.00    +0.000 A 
ATOM      3  C   UNL     1      44.966   7.703  11.772  0.00  0.00    +0.000 A 
ATOM      4  C   UNL     1      45.617   8.684  12.520  0.00  0.00    +0.000 A 
ATOM      5  C   UNL     1      46.736   8.364  13.290  0.00  0.00    +0.000 A 
ATOM      6  C   UNL     1      47.225   7.054  13.306  0.00  0.00    +0.000 A 
ATOM      7  C   UNL     1      46.568   6.080  12.538  0.00  0.00    +0.000 A 
BRANCH   2   9
ATOM      8  C   UNL     1      43.180   5.586  10.982  0.00  0.00    +0.000 C 
ATOM      9  C   UNL     1      44.686   5.259  11.011  0.00  0.00    +0.000 C 
ATOM     10  C   UNL     1      45.295   5.159   9.591  0.00  0.00    +0.000 C 
ATOM     11  C   UNL     1      44.810   3.937   8.823  0.00  0.00    +0.000 C 
ATOM     12  C   UNL     1      45.015   2.682   9.656  0.00  0.00    +0.000 C 
ATOM     13  C   UNL     1      44.413   2.843  11.043  0.00  0.00    +0.000 C 
ATOM     14  O   UNL     1      44.896   4.011  11.701  0.00  0.00    +0.000 OA
ENDBRANCH   2   9
ENDBRANCH   1   6
BRANCH   1  15
ATOM     15  C   UNL     1      48.635   7.648  15.323  0.00  0.00    +0.000 C 
BRANCH  15  16
ATOM     16  C   UNL     1      49.718   7.155  16.285  0.00  0.00    +0.000 C 
BRANCH  16  17
ATOM     17  C   UNL     1      49.244   5.947  17.056  0.00  0.00    +0.000 A 
ATOM     18  C   UNL     1      48.374   6.090  18.122  0.00  0.00    +0.000 A 
ATOM     19  C   UNL     1      48.025   4.938  18.793  0.00  0.00    +0.000 A 
ATOM     20  N   UNL     1      48.484   3.718  18.467  0.00  0.00    +0.000 NA
ATOM     21  C   UNL     1      49.334   3.685  17.413  0.00  0.00    +0.000 A 
ATOM     22  N   UNL     1      49.741   4.748  16.689  0.00  0.00    +0.000 NA
BRANCH  21  23
ATOM     23  C   UNL     1      49.874   2.322  17.034  0.00  0.00    +0.000 C 
ATOM     24  N   UNL     1      50.838   1.812  17.873  0.00  0.00    +0.000 N 
ATOM     25  O   UNL     1      49.504   1.684  16.054  0.00  0.00    +0.000 OA
ATOM     26  H   UNL     1      51.146   2.346  18.677  0.00  0.00    +0.000 HD
ATOM     27  H   UNL     1      51.240   0.908  17.669  0.00  0.00    +0.000 HD
ENDBRANCH  21  23
ENDBRANCH  16  17
ENDBRANCH  15  16
ENDBRANCH   1  15
TORSDOF 6
ENDMDL
MODEL 4
REMARK VINA RESULT:    -7.088      4.035      7.488
REMARK INTER + INTRA:         -10.466
REMARK INTER:                  -9.206
REMARK INTRA:                  -1.260
REMARK UNBOUND:                -0.892
REMARK  Name = 
REMARK  7 active torsions:
REMARK  status: ('A' for Active; 'I' for Inactive)
REMARK    1  A    between atoms: C_1  and  C_2
REMARK    2  A    between atoms: C_2  and  C_3
REMARK    3  A    between atoms: C_7  and  C_8
REMARK    4  A    between atoms: C_8  and  C_9
REMARK    5  A    between atoms: C_9  and  C_10
REMARK    6  A    between atoms: C_10  and  C_11
REMARK    7  A    between atoms: C_15  and  C_16
REMARK                            x       y       z     vdW  Elec       q    Type
REMARK                         _______ _______ _______ _____ _____    ______ ____
ROOT
ATOM      1  C   UNL     1      49.115   8.411  12.837  0.00  0.00    +0.000 C 
ENDROOT
BRANCH   1   6
ATOM      2  C   UNL     1      45.753   6.979  11.667  0.00  0.00    +0.000 A 
ATOM      3  C   UNL     1      44.962   8.137  11.691  0.00  0.00    +0.000 A 
ATOM      4  C   UNL     1      45.503   9.366  12.066  0.00  0.00    +0.000 A 
ATOM      5  C   UNL     1      46.847   9.470  12.427  0.00  0.00    +0.000 A 
ATOM      6  C   UNL     1      47.669   8.339  12.403  0.00  0.00    +0.000 A 
ATOM      7  C   UNL     1      47.114   7.111  12.010  0.00  0.00    +0.000 A 
BRANCH   2   9
ATOM      8  C   UNL     1      45.538   5.255   9.863  0.00  0.00    +0.000 C 
ATOM      9  C   UNL     1      45.170   5.597  11.320  0.00  0.00    +0.000 C 
ATOM     10  C   UNL     1      45.730   4.565  12.328  0.00  0.00    +0.000 C 
ATOM     11  C   UNL     1      45.044   3.209  12.231  0.00  0.00    +0.000 C 
ATOM     12  C   UNL     1      43.536   3.379  12.319  0.00  0.00    +0.000 C 
ATOM     13  C   UNL     1      43.045   4.414  11.320  0.00  0.00    +0.000 C 
ATOM     14  O   UNL     1      43.735   5.654  11.454  0.00  0.00    +0.000 OA
ENDBRANCH   2   9
ENDBRANCH   1   6
BRANCH   1  15
ATOM     15  C   UNL     1      49.503   7.272  13.784  0.00  0.00    +0.000 C 
BRANCH  15  16
ATOM     16  C   UNL     1      49.821   7.780  15.191  0.00  0.00    +0.000 C 
BRANCH  16  17
ATOM     17  C   UNL     1      49.110   6.953  16.235  0.00  0.00    +0.000 A 
ATOM     18  C   UNL     1      48.996   7.409  17.536  0.00  0.00    +0.000 A 
ATOM     19  C   UNL     1      48.366   6.571  18.430  0.00  0.00    +0.000 A 
ATOM     20  N   UNL     1      47.877   5.364  18.102  0.00  0.00    +0.000 NA
ATOM     21  C   UNL     1      48.044   5.006  16.807  0.00  0.00    +0.000 A 
ATOM     22  N   UNL     1      48.644   5.747  15.852  0.00  0.00    +0.000 NA
BRANCH  21  23
ATOM     23  C   UNL     1      47.511   3.644  16.416  0.00  0.00    +0.000 C 
ATOM     24  N   UNL     1      46.943   2.915  17.436  0.00  0.00    +0.000 N 
ATOM     25  O   UNL     1      47.562   3.186  15.279  0.00  0.00    +0.000 OA
ATOM     26  H   UNL     1      46.911   3.295  18.374  0.00  0.00    +0.000 HD
ATOM     27  H   UNL     1      46.575   1.996  17.237  0.00  0.00    +0.000 HD
ENDBRANCH  21  23
ENDBRANCH  16  17
ENDBRANCH  15  16
ENDBRANCH   1  15
TORSDOF 6
ENDMDL
MODEL 5
REMARK VINA RESULT:    -6.991      2.355      4.417
REMARK INTER + INTRA:         -10.334
REMARK INTER:                  -9.276
REMARK INTRA:                  -1.058
REMARK UNBOUND:                -0.892
REMARK  Name = 
REMARK  7 active torsions:
REMARK  status: ('A' for Active; 'I' for Inactive)
REMARK    1  A    between atoms: C_1  and  C_2
REMARK    2  A    between atoms: C_2  and  C_3
REMARK    3  A    between atoms: C_7  and  C_8
REMARK    4  A    between atoms: C_8  and  C_9
REMARK    5  A    between atoms: C_9  and  C_10
REMARK    6  A    between atoms: C_10  and  C_11
REMARK    7  A    between atoms: C_15  and  C_16
REMARK                            x       y       z     vdW  Elec       q    Type
REMARK                         _______ _______ _______ _____ _____    ______ ____
ROOT
ATOM      1  C   UNL     1      47.759   7.903  12.146  0.00  0.00    +0.000 C 
ENDROOT
BRANCH   1   6
ATOM      2  C   UNL     1      49.199   6.597  15.454  0.00  0.00    +0.000 A 
ATOM      3  C   UNL     1      50.440   7.252  15.466  0.00  0.00    +0.000 A 
ATOM      4  C   UNL     1      50.805   8.113  14.432  0.00  0.00    +0.000 A 
ATOM      5  C   UNL     1      49.942   8.340  13.360  0.00  0.00    +0.000 A 
ATOM      6  C   UNL     1      48.693   7.715  13.320  0.00  0.00    +0.000 A 
ATOM      7  C   UNL     1      48.333   6.861  14.374  0.00  0.00    +0.000 A 
BRANCH   2   9
ATOM      8  C   UNL     1      48.432   6.370  17.827  0.00  0.00    +0.000 C 
ATOM      9  C   UNL     1      48.794   5.592  16.548  0.00  0.00    +0.000 C 
ATOM     10  C   UNL     1      47.611   4.745  16.017  0.00  0.00    +0.000 C 
ATOM     11  C   UNL     1      47.278   3.564  16.917  0.00  0.00    +0.000 C 
ATOM     12  C   UNL     1      48.528   2.745  17.189  0.00  0.00    +0.000 C 
ATOM     13  C   UNL     1      49.660   3.628  17.691  0.00  0.00    +0.000 C 
ATOM     14  O   UNL     1      49.913   4.721  16.812  0.00  0.00    +0.000 OA
ENDBRANCH   2   9
ENDBRANCH   1   6
BRANCH   1  15
ATOM     15  C   UNL     1      47.000   6.622  11.786  0.00  0.00    +0.000 C 
BRANCH  15  16
ATOM     16  C   UNL     1      45.485   6.804  11.897  0.00  0.00    +0.000 C 
BRANCH  16  17
ATOM     17  C   UNL     1      44.773   5.481  11.755  0.00  0.00    +0.000 A 
ATOM     18  C   UNL     1      44.042   4.959  12.807  0.00  0.00    +0.000 A 
ATOM     19  C   UNL     1      43.459   3.727  12.602  0.00  0.00    +0.000 A 
ATOM     20  N   UNL     1      43.571   3.031  11.458  0.00  0.00    +0.000 NA
ATOM     21  C   UNL     1      44.311   3.625  10.492  0.00  0.00    +0.000 A 
ATOM     22  N   UNL     1      44.923   4.823  10.587  0.00  0.00    +0.000 NA
BRANCH  21  23
ATOM     23  C   UNL     1      44.460   2.854   9.197  0.00  0.00    +0.000 C 
ATOM     24  N   UNL     1      44.412   3.611   8.049  0.00  0.00    +0.000 N 
ATOM     25  O   UNL     1      44.615   1.639   9.134  0.00  0.00    +0.000 OA
ATOM     26  H   UNL     1      44.275   4.613   8.106  0.00  0.00    +0.000 HD
ATOM     27  H   UNL     1      44.500   3.152   7.153  0.00  0.00    +0.000 HD
ENDBRANCH  21  23
ENDBRANCH  16  17
ENDBRANCH  15  16
ENDBRANCH   1  15
TORSDOF 6
ENDMDL
MODEL 6
REMARK VINA RESULT:    -6.888      2.909      5.344
REMARK INTER + INTRA:         -10.196
REMARK INTER:                  -8.839
REMARK INTRA:                  -1.357
REMARK UNBOUND:                -0.892
REMARK  Name = 
REMARK  7 active torsions:
REMARK  status: ('A' for Active; 'I' for Inactive)
REMARK    1  A    between atoms: C_1  and  C_2
REMARK    2  A    between atoms: C_2  and  C_3
REMARK    3  A    between atoms: C_7  and  C_8
REMARK    4  A    between atoms: C_8  and  C_9
REMARK    5  A    between atoms: C_9  and  C_10
REMARK    6  A    between atoms: C_10  and  C_11
REMARK    7  A    between atoms: C_15  and  C_16
REMARK                            x       y       z     vdW  Elec       q    Type
REMARK                         _______ _______ _______ _____ _____    ______ ____
ROOT
ATOM      1  C   UNL     1      49.430   8.165  13.337  0.00  0.00    +0.000 C 
ENDROOT
BRANCH   1   6
ATOM      2  C   UNL     1      48.787   6.699  16.824  0.00  0.00    +0.000 A 
ATOM      3  C   UNL     1      48.455   7.864  17.532  0.00  0.00    +0.000 A 
ATOM      4  C   UNL     1      48.424   9.104  16.895  0.00  0.00    +0.000 A 
ATOM      5  C   UNL     1      48.725   9.213  15.537  0.00  0.00    +0.000 A 
ATOM      6  C   UNL     1      49.049   8.071  14.797  0.00  0.00    +0.000 A 
ATOM      7  C   UNL     1      49.063   6.828  15.448  0.00  0.00    +0.000 A 
BRANCH   2   9
ATOM      8  C   UNL     1      48.960   5.540  19.038  0.00  0.00    +0.000 C 
ATOM      9  C   UNL     1      48.892   5.326  17.513  0.00  0.00    +0.000 C 
ATOM     10  C   UNL     1      47.671   4.474  17.090  0.00  0.00    +0.000 C 
ATOM     11  C   UNL     1      47.785   3.019  17.520  0.00  0.00    +0.000 C 
ATOM     12  C   UNL     1      49.112   2.440  17.056  0.00  0.00    +0.000 C 
ATOM     13  C   UNL     1      50.272   3.324  17.484  0.00  0.00    +0.000 C 
ATOM     14  O   UNL     1      50.098   4.674  17.063  0.00  0.00    +0.000 OA
ENDBRANCH   2   9
ENDBRANCH   1   6
BRANCH   1  15
ATOM     15  C   UNL     1      48.845   7.024  12.501  0.00  0.00    +0.000 C 
BRANCH  15  16
ATOM     16  C   UNL     1      47.330   7.158  12.328  0.00  0.00    +0.000 C 
BRANCH  16  17
ATOM     17  C   UNL     1      46.650   5.821  12.493  0.00  0.00    +0.000 A 
ATOM     18  C   UNL     1      47.115   4.905  13.419  0.00  0.00    +0.000 A 
ATOM     19  C   UNL     1      46.458   3.695  13.473  0.00  0.00    +0.000 A 
ATOM     20  N   UNL     1      45.417   3.376  12.686  0.00  0.00    +0.000 NA
ATOM     21  C   UNL     1      45.041   4.338  11.810  0.00  0.00    +0.000 A 
ATOM     22  N   UNL     1      45.613   5.552  11.674  0.00  0.00    +0.000 NA
BRANCH  21  23
ATOM     23  C   UNL     1      43.877   3.998  10.904  0.00  0.00    +0.000 C 
ATOM     24  N   UNL     1      43.853   4.659   9.697  0.00  0.00    +0.000 N 
ATOM     25  O   UNL     1      42.995   3.195  11.189  0.00  0.00    +0.000 OA
ATOM     26  H   UNL     1      44.579   5.327   9.469  0.00  0.00    +0.000 HD
ATOM     27  H   UNL     1      43.097   4.478   9.052  0.00  0.00    +0.000 HD
ENDBRANCH  21  23
ENDBRANCH  16  17
ENDBRANCH  15  16
ENDBRANCH   1  15
TORSDOF 6
ENDMDL
MODEL 7
REMARK VINA RESULT:    -6.704      1.986      3.201
REMARK INTER + INTRA:          -9.947
REMARK INTER:                  -8.958
REMARK INTRA:                  -0.989
REMARK UNBOUND:                -0.892
REMARK  Name = 
REMARK  7 active torsions:
REMARK  status: ('A' for Active; 'I' for Inactive)
REMARK    1  A    between atoms: C_1  and  C_2
REMARK    2  A    between atoms: C_2  and  C_3
REMARK    3  A    between atoms: C_7  and  C_8
REMARK    4  A    between atoms: C_8  and  C_9
REMARK    5  A    between atoms: C_9  and  C_10
REMARK    6  A    between atoms: C_10  and  C_11
REMARK    7  A    between atoms: C_15  and  C_16
REMARK                            x       y       z     vdW  Elec       q    Type
REMARK                         _______ _______ _______ _____ _____    ______ ____
ROOT
ATOM      1  C   UNL     1      44.447   6.662  11.589  0.00  0.00    +0.000 C 
ENDROOT
BRANCH   1   6
ATOM      2  C   UNL     1      47.347   9.123  12.090  0.00  0.00    +0.000 A 
ATOM      3  C   UNL     1      46.669  10.344  11.963  0.00  0.00    +0.000 A 
ATOM      4  C   UNL     1      45.294  10.379  11.733  0.00  0.00    +0.000 A 
ATOM      5  C   UNL     1      44.563   9.195  11.622  0.00  0.00    +0.000 A 
ATOM      6  C   UNL     1      45.204   7.960  11.755  0.00  0.00    +0.000 A 
ATOM      7  C   UNL     1      46.585   7.941  12.000  0.00  0.00    +0.000 A 
BRANCH   2   9
ATOM      8  C   UNL     1      49.181   8.925  13.785  0.00  0.00    +0.000 C 
ATOM      9  C   UNL     1      48.874   9.052  12.280  0.00  0.00    +0.000 C 
ATOM     10  C   UNL     1      49.410   7.849  11.465  0.00  0.00    +0.000 C 
ATOM     11  C   UNL     1      50.930   7.818  11.387  0.00  0.00    +0.000 C 
ATOM     12  C   UNL     1      51.456   9.157  10.899  0.00  0.00    +0.000 C 
ATOM     13  C   UNL     1      50.885  10.300  11.723  0.00  0.00    +0.000 C 
ATOM     14  O   UNL     1      49.461  10.265  11.768  0.00  0.00    +0.000 OA
ENDBRANCH   2   9
ENDBRANCH   1   6
BRANCH   1  15
ATOM     15  C   UNL     1      45.320   5.540  11.021  0.00  0.00    +0.000 C 
BRANCH  15  16
ATOM     16  C   UNL     1      45.262   5.486   9.493  0.00  0.00    +0.000 C 
BRANCH  16  17
ATOM     17  C   UNL     1      45.424   4.070   8.998  0.00  0.00    +0.000 A 
ATOM     18  C   UNL     1      44.738   3.031   9.601  0.00  0.00    +0.000 A 
ATOM     19  C   UNL     1      44.978   1.766   9.110  0.00  0.00    +0.000 A 
ATOM     20  N   UNL     1      45.828   1.506   8.102  0.00  0.00    +0.000 NA
ATOM     21  C   UNL     1      46.454   2.589   7.583  0.00  0.00    +0.000 A 
ATOM     22  N   UNL     1      46.293   3.866   7.987  0.00  0.00    +0.000 NA
BRANCH  21  23
ATOM     23  C   UNL     1      47.425   2.321   6.453  0.00  0.00    +0.000 C 
ATOM     24  N   UNL     1      47.317   3.160   5.367  0.00  0.00    +0.000 N 
ATOM     25  O   UNL     1      48.264   1.427   6.465  0.00  0.00    +0.000 OA
ATOM     26  H   UNL     1      46.616   3.892   5.359  0.00  0.00    +0.000 HD
ATOM     27  H   UNL     1      47.935   3.027   4.579  0.00  0.00    +0.000 HD
ENDBRANCH  21  23
ENDBRANCH  16  17
ENDBRANCH  15  16
ENDBRANCH   1  15
TORSDOF 6
ENDMDL
MODEL 8
REMARK VINA RESULT:    -6.658      3.525      7.940
REMARK INTER + INTRA:          -9.886
REMARK INTER:                  -8.836
REMARK INTRA:                  -1.050
REMARK UNBOUND:                -0.892
REMARK  Name = 
REMARK  7 active torsions:
REMARK  status: ('A' for Active; 'I' for Inactive)
REMARK    1  A    between atoms: C_1  and  C_2
REMARK    2  A    between atoms: C_2  and  C_3
REMARK    3  A    between atoms: C_7  and  C_8
REMARK    4  A    between atoms: C_8  and  C_9
REMARK    5  A    between atoms: C_9  and  C_10
REMARK    6  A    between atoms: C_10  and  C_11
REMARK    7  A    between atoms: C_15  and  C_16
REMARK                            x       y       z     vdW  Elec       q    Type
REMARK                         _______ _______ _______ _____ _____    ______ ____
ROOT
ATOM      1  C   UNL     1      45.577   7.413  11.750  0.00  0.00    +0.000 C 
ENDROOT
BRANCH   1   6
ATOM      2  C   UNL     1      44.872   4.073   9.999  0.00  0.00    +0.000 A 
ATOM      3  C   UNL     1      44.102   3.430  10.979  0.00  0.00    +0.000 A 
ATOM      4  C   UNL     1      43.800   4.065  12.183  0.00  0.00    +0.000 A 
ATOM      5  C   UNL     1      44.261   5.357  12.439  0.00  0.00    +0.000 A 
ATOM      6  C   UNL     1      45.022   6.033  11.480  0.00  0.00    +0.000 A 
ATOM      7  C   UNL     1      45.306   5.387  10.267  0.00  0.00    +0.000 A 
BRANCH   2   9
ATOM      8  C   UNL     1      44.018   3.197   7.813  0.00  0.00    +0.000 C 
ATOM      9  C   UNL     1      45.275   3.374   8.687  0.00  0.00    +0.000 C 
ATOM     10  C   UNL     1      46.361   4.231   7.993  0.00  0.00    +0.000 C 
ATOM     11  C   UNL     1      47.005   3.526   6.807  0.00  0.00    +0.000 C 
ATOM     12  C   UNL     1      47.500   2.150   7.223  0.00  0.00    +0.000 C 
ATOM     13  C   UNL     1      46.399   1.361   7.913  0.00  0.00    +0.000 C 
ATOM     14  O   UNL     1      45.829   2.081   9.004  0.00  0.00    +0.000 OA
ENDBRANCH   2   9
ENDBRANCH   1   6
BRANCH   1  15
ATOM     15  C   UNL     1      46.683   7.405  12.809  0.00  0.00    +0.000 C 
BRANCH  15  16
ATOM     16  C   UNL     1      47.493   6.107  12.783  0.00  0.00    +0.000 C 
BRANCH  16  17
ATOM     17  C   UNL     1      47.684   5.565  14.179  0.00  0.00    +0.000 A 
ATOM     18  C   UNL     1      46.971   4.460  14.609  0.00  0.00    +0.000 A 
ATOM     19  C   UNL     1      47.180   4.060  15.911  0.00  0.00    +0.000 A 
ATOM     20  N   UNL     1      48.020   4.681  16.756  0.00  0.00    +0.000 NA
ATOM     21  C   UNL     1      48.666   5.754  16.242  0.00  0.00    +0.000 A 
ATOM     22  N   UNL     1      48.535   6.230  14.986  0.00  0.00    +0.000 NA
BRANCH  21  23
ATOM     23  C   UNL     1      49.610   6.477  17.179  0.00  0.00    +0.000 C 
ATOM     24  N   UNL     1      50.894   6.644  16.714  0.00  0.00    +0.000 N 
ATOM     25  O   UNL     1      49.290   6.901  18.284  0.00  0.00    +0.000 OA
ATOM     26  H   UNL     1      51.155   6.285  15.803  0.00  0.00    +0.000 HD
ATOM     27  H   UNL     1      51.571   7.115  17.297  0.00  0.00    +0.000 HD
ENDBRANCH  21  23
ENDBRANCH  16  17
ENDBRANCH  15  16
ENDBRANCH   1  15
TORSDOF 6
ENDMDL
MODEL 9
REMARK VINA RESULT:    -6.165      2.850      4.685
REMARK INTER + INTRA:          -9.220
REMARK INTER:                  -8.348
REMARK INTRA:                  -0.872
REMARK UNBOUND:                -0.892
REMARK  Name = 
REMARK  7 active torsions:
REMARK  status: ('A' for Active; 'I' for Inactive)
REMARK    1  A    between atoms: C_1  and  C_2
REMARK    2  A    between atoms: C_2  and  C_3
REMARK    3  A    between atoms: C_7  and  C_8
REMARK    4  A    between atoms: C_8  and  C_9
REMARK    5  A    between atoms: C_9  and  C_10
REMARK    6  A    between atoms: C_10  and  C_11
REMARK    7  A    between atoms: C_15  and  C_16
REMARK                            x       y       z     vdW  Elec       q    Type
REMARK                         _______ _______ _______ _____ _____    ______ ____
ROOT
ATOM      1  C   UNL     1      46.942   4.357  14.193  0.00  0.00    +0.000 C 
ENDROOT
BRANCH   1   6
ATOM      2  C   UNL     1      48.251   5.552  17.595  0.00  0.00    +0.000 A 
ATOM      3  C   UNL     1      48.349   4.328  18.274  0.00  0.00    +0.000 A 
ATOM      4  C   UNL     1      48.012   3.131  17.643  0.00  0.00    +0.000 A 
ATOM      5  C   UNL     1      47.567   3.126  16.321  0.00  0.00    +0.000 A 
ATOM      6  C   UNL     1      47.469   4.326  15.609  0.00  0.00    +0.000 A 
ATOM      7  C   UNL     1      47.825   5.522  16.252  0.00  0.00    +0.000 A 
BRANCH   2   9
ATOM      8  C   UNL     1      49.754   6.706  19.234  0.00  0.00    +0.000 C 
ATOM      9  C   UNL     1      48.555   6.895  18.284  0.00  0.00    +0.000 C 
ATOM     10  C   UNL     1      48.831   7.953  17.188  0.00  0.00    +0.000 C 
ATOM     11  C   UNL     1      48.913   9.370  17.739  0.00  0.00    +0.000 C 
ATOM     12  C   UNL     1      47.682   9.677  18.574  0.00  0.00    +0.000 C 
ATOM     13  C   UNL     1      47.450   8.599  19.621  0.00  0.00    +0.000 C 
ATOM     14  O   UNL     1      47.397   7.297  19.044  0.00  0.00    +0.000 OA
ENDBRANCH   2   9
ENDBRANCH   1   6
BRANCH   1  15
ATOM     15  C   UNL     1      47.442   5.570  13.404  0.00  0.00    +0.000 C 
BRANCH  15  16
ATOM     16  C   UNL     1      46.293   6.477  12.958  0.00  0.00    +0.000 C 
BRANCH  16  17
ATOM     17  C   UNL     1      45.151   5.662  12.401  0.00  0.00    +0.000 A 
ATOM     18  C   UNL     1      43.949   5.580  13.082  0.00  0.00    +0.000 A 
ATOM     19  C   UNL     1      42.976   4.782  12.520  0.00  0.00    +0.000 A 
ATOM     20  N   UNL     1      43.142   4.099  11.375  0.00  0.00    +0.000 NA
ATOM     21  C   UNL     1      44.355   4.241  10.789  0.00  0.00    +0.000 A 
ATOM     22  N   UNL     1      45.374   4.993  11.252  0.00  0.00    +0.000 NA
BRANCH  21  23
ATOM     23  C   UNL     1      44.569   3.471   9.503  0.00  0.00    +0.000 C 
ATOM     24  N   UNL     1      44.239   4.144   8.349  0.00  0.00    +0.000 N 
ATOM     25  O   UNL     1      45.005   2.326   9.452  0.00  0.00    +0.000 OA
ATOM     26  H   UNL     1      43.871   5.086   8.397  0.00  0.00    +0.000 HD
ATOM     27  H   UNL     1      44.355   3.680   7.459  0.00  0.00    +0.000 HD
ENDBRANCH  21  23
ENDBRANCH  16  17
ENDBRANCH  15  16
ENDBRANCH   1  15
TORSDOF 6
ENDMDL
