MODEL 1
REMARK VINA RESULT:    -7.895      0.000      0.000
REMARK INTER + INTRA:         -13.774
REMARK INTER:                 -12.511
REMARK INTRA:                  -1.264
REMARK UNBOUND:                -1.264
REMARK  Name = 
REMARK  11 active torsions:
REMARK  status: ('A' for Active; 'I' for Inactive)
REMARK    1  A    between atoms: C_1  and  C_2
REMARK    2  A    between atoms: C_2  and  N_3
REMARK    3  A    between atoms: N_3  and  C_4
REMARK    4  A    between atoms: N_3  and  C_28
REMARK    5  A    between atoms: C_4  and  C_5
REMARK    6  A    between atoms: C_5  and  N_6
REMARK    7  A    between atoms: N_6  and  C_7
REMARK    8  A    between atoms: C_7  and  C_8
REMARK    9  A    between atoms: C_11  and  C_12
REMARK   10  A    between atoms: C_12  and  N_13
REMARK   11  A    between atoms: C_14  and  C_16
REMARK                            x       y       z     vdW  Elec       q    Type
REMARK                         _______ _______ _______ _____ _____    ______ ____
ROOT
ATOM      1  C   UNL     1      47.194   5.348  14.019  0.00  0.00    +0.000 A 
ATOM      2  C   UNL     1      47.960   6.516  14.045  0.00  0.00    +0.000 A 
ATOM      3  C   UNL     1      48.709   6.816  15.177  0.00  0.00    +0.000 A 
ATOM      4  C   UNL     1      48.669   5.939  16.257  0.00  0.00    +0.000 A 
ATOM      5  N   UNL     1      48.003   4.757  16.220  0.00  0.00    +0.000 NA
ATOM      6  C   UNL     1      47.282   4.491  15.109  0.00  0.00    +0.000 A 
ENDROOT
BRANCH   1   7
ATOM      7  C   UNL     1      46.169   5.102  12.946  0.00  0.00    +0.000 C 
BRANCH   7   8
ATOM      8  N   UNL     1      45.165   4.109  13.369  0.00  0.00    +0.000 NA
ATOM      9  H   UNL     1      45.437   3.748  14.283  0.00  0.00    +0.000 HD
BRANCH   8  10
ATOM     10  C   UNL     1      45.092   2.980  12.415  0.00  0.00    +0.000 C 
BRANCH  10  11
ATOM     11  C   UNL     1      43.745   2.902  11.663  0.00  0.00    +0.000 C 
BRANCH  11  12
ATOM     12  N   UNL     1      43.733   3.726  10.429  0.00  0.00    +0.000 N 
BRANCH  12  13
ATOM     13  C   UNL     1      44.680   3.353   9.452  0.00  0.00    +0.000 A 
ATOM     14  C   UNL     1      45.025   2.014   9.189  0.00  0.00    +0.000 A 
ATOM     15  C   UNL     1      45.965   1.674   8.211  0.00  0.00    +0.000 A 
ATOM     16  C   UNL     1      46.591   2.668   7.471  0.00  0.00    +0.000 A 
ATOM     17  C   UNL     1      46.276   3.999   7.710  0.00  0.00    +0.000 A 
ATOM     18  C   UNL     1      45.334   4.334   8.688  0.00  0.00    +0.000 A 
ENDBRANCH  12  13
BRANCH  12  20
ATOM     19  C   UNL     1      42.466   5.540  11.639  0.00  0.00    +0.000 C 
ATOM     20  C   UNL     1      43.418   5.163  10.517  0.00  0.00    +0.000 C 
ENDBRANCH  12  20
ENDBRANCH  11  12
ENDBRANCH  10  11
ENDBRANCH   8  10
ENDBRANCH   7   8
ENDBRANCH   1   7
BRANCH   4  21
ATOM     21  C   UNL     1      49.367   6.284  17.546  0.00  0.00    +0.000 C 
BRANCH  21  22
ATOM     22  N   UNL     1      50.350   5.295  17.904  0.00  0.00    +0.000 N 
ATOM     23  C   UNL     1      51.617   5.315  17.392  0.00  0.00    +0.000 C 
ATOM     24  O   UNL     1      51.995   6.193  16.620  0.00  0.00    +0.000 OA
ATOM     25  H   UNL     1      49.982   4.442  18.321  0.00  0.00    +0.000 HD
BRANCH  23  26
ATOM     26  C   UNL     1      52.531   4.275  17.872  0.00  0.00    +0.000 A 
ATOM     27  C   UNL     1      53.734   4.644  18.460  0.00  0.00    +0.000 A 
ATOM     28  S   UNL     1      54.657   3.324  19.016  0.00  0.00    +0.000 S 
ATOM     29  C   UNL     1      53.502   2.210  18.451  0.00  0.00    +0.000 A 
ATOM     30  N   UNL     1      53.697   0.870  18.594  0.00  0.00    +0.000 NA
ATOM     31  C   UNL     1      52.756   0.139  18.096  0.00  0.00    +0.000 A 
ATOM     32  N   UNL     1      51.637   0.623  17.472  0.00  0.00    +0.000 N 
ATOM     33  C   UNL     1      51.379   1.967  17.343  0.00  0.00    +0.000 A 
ATOM     34  O   UNL     1      50.332   2.367  16.845  0.00  0.00    +0.000 OA
ATOM     35  C   UNL     1      52.414   2.834  17.861  0.00  0.00    +0.000 A 
ATOM     36  H   UNL     1      50.930  -0.000  17.115  0.00  0.00    +0.000 HD
ENDBRANCH  23  26
ENDBRANCH  21  22
ENDBRANCH   4  21
TORSDOF 10
ENDMDL
MODEL 2
REMARK VINA RESULT:    -6.946      3.583     10.045
REMARK INTER + INTRA:         -12.271
REMARK INTER:                 -10.359
REMARK INTRA:                  -1.912
REMARK UNBOUND:                -1.264
REMARK  Name = 
REMARK  11 active torsions:
REMARK  status: ('A' for Active; 'I' for Inactive)
REMARK    1  A    between atoms: C_1  and  C_2
REMARK    2  A    between atoms: C_2  and  N_3
REMARK    3  A    between atoms: N_3  and  C_4
REMARK    4  A    between atoms: N_3  and  C_28
REMARK    5  A    between atoms: C_4  and  C_5
REMARK    6  A    between atoms: C_5  and  N_6
REMARK    7  A    between atoms: N_6  and  C_7
REMARK    8  A    between atoms: C_7  and  C_8
REMARK    9  A    between atoms: C_11  and  C_12
REMARK   10  A    between atoms: C_12  and  N_13
REMARK   11  A    between atoms: C_14  and  C_16
REMARK                            x       y       z     vdW  Elec       q    Type
REMARK                         _______ _______ _______ _____ _____    ______ ____
ROOT
ATOM      1  C   UNL     1      51.349   3.298  17.520  0.00  0.00    +0.000 A 
ATOM      2  C   UNL     1      50.645   2.111  17.303  0.00  0.00    +0.000 A 
ATOM      3  C   UNL     1      49.279   2.164  17.049  0.00  0.00    +0.000 A 
ATOM      4  C   UNL     1      48.652   3.407  17.021  0.00  0.00    +0.000 A 
ATOM      5  N   UNL     1      49.331   4.576  17.140  0.00  0.00    +0.000 NA
ATOM      6  C   UNL     1      50.657   4.496  17.389  0.00  0.00    +0.000 A 
ENDROOT
BRANCH   1   7
ATOM      7  C   UNL     1      52.755   3.294  18.055  0.00  0.00    +0.000 C 
BRANCH   7   8
ATOM      8  N   UNL     1      52.777   3.303  19.529  0.00  0.00    +0.000 NA
ATOM      9  H   UNL     1      51.817   3.226  19.864  0.00  0.00    +0.000 HD
BRANCH   8  10
ATOM     10  C   UNL     1      53.364   4.557  20.049  0.00  0.00    +0.000 C 
BRANCH  10  11
ATOM     11  C   UNL     1      52.486   5.246  21.117  0.00  0.00    +0.000 C 
BRANCH  11  12
ATOM     12  N   UNL     1      51.785   6.444  20.593  0.00  0.00    +0.000 N 
BRANCH  12  13
ATOM     13  C   UNL     1      50.395   6.289  20.403  0.00  0.00    +0.000 A 
ATOM     14  C   UNL     1      49.593   7.262  19.779  0.00  0.00    +0.000 A 
ATOM     15  C   UNL     1      48.218   7.080  19.601  0.00  0.00    +0.000 A 
ATOM     16  C   UNL     1      47.606   5.916  20.049  0.00  0.00    +0.000 A 
ATOM     17  C   UNL     1      48.370   4.940  20.673  0.00  0.00    +0.000 A 
ATOM     18  C   UNL     1      49.745   5.126  20.847  0.00  0.00    +0.000 A 
ENDBRANCH  12  13
BRANCH  12  20
ATOM     19  C   UNL     1      53.496   8.269  20.272  0.00  0.00    +0.000 C 
ATOM     20  C   UNL     1      52.477   7.334  19.643  0.00  0.00    +0.000 C 
ENDBRANCH  12  20
ENDBRANCH  11  12
ENDBRANCH  10  11
ENDBRANCH   8  10
ENDBRANCH   7   8
ENDBRANCH   1   7
BRANCH   4  21
ATOM     21  C   UNL     1      47.157   3.503  16.870  0.00  0.00    +0.000 C 
BRANCH  21  22
ATOM     22  N   UNL     1      46.782   4.453  15.854  0.00  0.00    +0.000 N 
ATOM     23  C   UNL     1      46.840   4.149  14.522  0.00  0.00    +0.000 C 
ATOM     24  O   UNL     1      47.188   3.041  14.120  0.00  0.00    +0.000 OA
ATOM     25  H   UNL     1      46.746   5.424  16.153  0.00  0.00    +0.000 HD
BRANCH  23  26
ATOM     26  C   UNL     1      46.389   5.191  13.596  0.00  0.00    +0.000 A 
ATOM     27  C   UNL     1      47.253   6.228  13.265  0.00  0.00    +0.000 A 
ATOM     28  S   UNL     1      46.603   7.326  12.136  0.00  0.00    +0.000 S 
ATOM     29  C   UNL     1      45.128   6.480  12.083  0.00  0.00    +0.000 A 
ATOM     30  N   UNL     1      44.101   6.918  11.304  0.00  0.00    +0.000 NA
ATOM     31  C   UNL     1      43.031   6.198  11.380  0.00  0.00    +0.000 A 
ATOM     32  N   UNL     1      42.894   5.081  12.160  0.00  0.00    +0.000 N 
ATOM     33  C   UNL     1      43.917   4.579  12.929  0.00  0.00    +0.000 A 
ATOM     34  O   UNL     1      43.785   3.534  13.557  0.00  0.00    +0.000 OA
ATOM     35  C   UNL     1      45.133   5.362  12.901  0.00  0.00    +0.000 A 
ATOM     36  H   UNL     1      42.035   4.553  12.165  0.00  0.00    +0.000 HD
ENDBRANCH  23  26
ENDBRANCH  21  22
ENDBRANCH   4  21
TORSDOF 10
ENDMDL
MODEL 3
REMARK VINA RESULT:    -6.935      4.111      9.248
REMARK INTER + INTRA:         -12.253
REMARK INTER:                 -10.305
REMARK INTRA:                  -1.948
REMARK UNBOUND:                -1.264
REMARK  Name = 
REMARK  11 active torsions:
REMARK  status: ('A' for Active; 'I' for Inactive)
REMARK    1  A    between atoms: C_1  and  C_2
REMARK    2  A    between atoms: C_2  and  N_3
REMARK    3  A    between atoms: N_3  and  C_4
REMARK    4  A    between atoms: N_3  and  C_28
REMARK    5  A    between atoms: C_4  and  C_5
REMARK    6  A    between atoms: C_5  and  N_6
REMARK    7  A    between atoms: N_6  and  C_7
REMARK    8  A    between atoms: C_7  and  C_8
REMARK    9  A    between atoms: C_11  and  C_12
REMARK   10  A    between atoms: C_12  and  N_13
REMARK   11  A    between atoms: C_14  and  C_16
REMARK                            x       y       z     vdW  Elec       q    Type
REMARK                         _______ _______ _______ _____ _____    ______ ____
ROOT
ATOM      1  C   UNL     1      48.858   8.389  15.994  0.00  0.00    +0.000 A 
ATOM      2  C   UNL     1      49.232   7.199  15.365  0.00  0.00    +0.000 A 
ATOM      3  C   UNL     1      48.928   7.013  14.020  0.00  0.00    +0.000 A 
ATOM      4  C   UNL     1      48.255   8.024  13.341  0.00  0.00    +0.000 A 
ATOM      5  N   UNL     1      47.961   9.221  13.908  0.00  0.00    +0.000 NA
ATOM      6  C   UNL     1      48.265   9.375  15.216  0.00  0.00    +0.000 A 
ENDROOT
BRANCH   1   7
ATOM      7  C   UNL     1      48.920   8.542  17.489  0.00  0.00    +0.000 C 
BRANCH   7   8
ATOM      8  N   UNL     1      47.622   8.244  18.121  0.00  0.00    +0.000 NA
ATOM      9  H   UNL     1      47.051   9.088  18.094  0.00  0.00    +0.000 HD
BRANCH   8  10
ATOM     10  C   UNL     1      47.794   7.831  19.531  0.00  0.00    +0.000 C 
BRANCH  10  11
ATOM     11  C   UNL     1      47.662   6.307  19.743  0.00  0.00    +0.000 C 
BRANCH  11  12
ATOM     12  N   UNL     1      48.874   5.565  19.317  0.00  0.00    +0.000 N 
BRANCH  12  13
ATOM     13  C   UNL     1      48.663   4.604  18.305  0.00  0.00    +0.000 A 
ATOM     14  C   UNL     1      47.551   4.630  17.443  0.00  0.00    +0.000 A 
ATOM     15  C   UNL     1      47.369   3.667  16.446  0.00  0.00    +0.000 A 
ATOM     16  C   UNL     1      48.295   2.644  16.288  0.00  0.00    +0.000 A 
ATOM     17  C   UNL     1      49.400   2.588  17.127  0.00  0.00    +0.000 A 
ATOM     18  C   UNL     1      49.579   3.556  18.121  0.00  0.00    +0.000 A 
ENDBRANCH  12  13
BRANCH  12  20
ATOM     19  C   UNL     1      50.929   6.359  20.544  0.00  0.00    +0.000 C 
ATOM     20  C   UNL     1      49.919   5.249  20.307  0.00  0.00    +0.000 C 
ENDBRANCH  12  20
ENDBRANCH  11  12
ENDBRANCH  10  11
ENDBRANCH   8  10
ENDBRANCH   7   8
ENDBRANCH   1   7
BRANCH   4  21
ATOM     21  C   UNL     1      47.799   7.816  11.921  0.00  0.00    +0.000 C 
BRANCH  21  22
ATOM     22  N   UNL     1      47.046   6.597  11.774  0.00  0.00    +0.000 N 
ATOM     23  C   UNL     1      45.680   6.578  11.836  0.00  0.00    +0.000 C 
ATOM     24  O   UNL     1      45.020   7.602  11.993  0.00  0.00    +0.000 OA
ATOM     25  H   UNL     1      47.574   5.737  11.904  0.00  0.00    +0.000 HD
BRANCH  23  26
ATOM     26  C   UNL     1      45.037   5.278  11.627  0.00  0.00    +0.000 A 
ATOM     27  C   UNL     1      44.330   4.693  12.671  0.00  0.00    +0.000 A 
ATOM     28  S   UNL     1      43.596   3.213  12.254  0.00  0.00    +0.000 S 
ATOM     29  C   UNL     1      44.232   3.280  10.678  0.00  0.00    +0.000 A 
ATOM     30  N   UNL     1      43.992   2.279   9.786  0.00  0.00    +0.000 NA
ATOM     31  C   UNL     1      44.558   2.444   8.637  0.00  0.00    +0.000 A 
ATOM     32  N   UNL     1      45.337   3.517   8.296  0.00  0.00    +0.000 N 
ATOM     33  C   UNL     1      45.571   4.570   9.149  0.00  0.00    +0.000 A 
ATOM     34  O   UNL     1      46.212   5.550   8.786  0.00  0.00    +0.000 OA
ATOM     35  C   UNL     1      44.981   4.425  10.461  0.00  0.00    +0.000 A 
ATOM     36  H   UNL     1      45.741   3.595   7.375  0.00  0.00    +0.000 HD
ENDBRANCH  23  26
ENDBRANCH  21  22
ENDBRANCH   4  21
TORSDOF 10
ENDMDL
MODEL 4
REMARK VINA RESULT:    -6.613      3.827      9.381
REMARK INTER + INTRA:         -11.743
REMARK INTER:                  -9.099
REMARK INTRA:                  -2.645
REMARK UNBOUND:                -1.264
REMARK  Name = 
REMARK  11 active torsions:
REMARK  status: ('A' for Active; 'I' for Inactive)
REMARK    1  A    between atoms: C_1  and  C_2
REMARK    2  A    between atoms: C_2  and  N_3
REMARK    3  A    between atoms: N_3  and  C_4
REMARK    4  A    between atoms: N_3  and  C_28
REMARK    5  A    between atoms: C_4  and  C_5
REMARK    6  A    between atoms: C_5  and  N_6
REMARK    7  A    between atoms: N_6  and  C_7
REMARK    8  A    between atoms: C_7  and  C_8
REMARK    9  A    between atoms: C_11  and  C_12
REMARK   10  A    between atoms: C_12  and  N_13
REMARK   11  A    between atoms: C_14  and  C_16
REMARK                            x       y       z     vdW  Elec       q    Type
REMARK                         _______ _______ _______ _____ _____    ______ ____
ROOT
ATOM      1  C   UNL     1      50.664   4.584  19.018  0.00  0.00    +0.000 A 
ATOM      2  C   UNL     1      50.755   3.688  17.950  0.00  0.00    +0.000 A 
ATOM      3  C   UNL     1      49.614   3.379  17.218  0.00  0.00    +0.000 A 
ATOM      4  C   UNL     1      48.408   3.975  17.578  0.00  0.00    +0.000 A 
ATOM      5  N   UNL     1      48.314   4.914  18.553  0.00  0.00    +0.000 NA
ATOM      6  C   UNL     1      49.438   5.193  19.250  0.00  0.00    +0.000 A 
ENDROOT
BRANCH   1   7
ATOM      7  C   UNL     1      51.790   4.754  20.001  0.00  0.00    +0.000 C 
BRANCH   7   8
ATOM      8  N   UNL     1      52.163   6.171  20.162  0.00  0.00    +0.000 NA
ATOM      9  H   UNL     1      51.426   6.745  19.752  0.00  0.00    +0.000 HD
BRANCH   8  10
ATOM     10  C   UNL     1      53.438   6.472  19.474  0.00  0.00    +0.000 C 
BRANCH  10  11
ATOM     11  C   UNL     1      53.354   7.698  18.539  0.00  0.00    +0.000 C 
BRANCH  11  12
ATOM     12  N   UNL     1      52.885   7.344  17.176  0.00  0.00    +0.000 N 
BRANCH  12  13
ATOM     13  C   UNL     1      51.502   7.521  16.955  0.00  0.00    +0.000 A 
ATOM     14  C   UNL     1      50.787   6.817  15.968  0.00  0.00    +0.000 A 
ATOM     15  C   UNL     1      49.416   7.009  15.774  0.00  0.00    +0.000 A 
ATOM     16  C   UNL     1      48.721   7.918  16.561  0.00  0.00    +0.000 A 
ATOM     17  C   UNL     1      49.400   8.631  17.540  0.00  0.00    +0.000 A 
ATOM     18  C   UNL     1      50.771   8.434  17.732  0.00  0.00    +0.000 A 
ENDBRANCH  12  13
BRANCH  12  20
ATOM     19  C   UNL     1      54.428   6.648  15.307  0.00  0.00    +0.000 C 
ATOM     20  C   UNL     1      53.523   6.229  16.453  0.00  0.00    +0.000 C 
ENDBRANCH  12  20
ENDBRANCH  11  12
ENDBRANCH  10  11
ENDBRANCH   8  10
ENDBRANCH   7   8
ENDBRANCH   1   7
BRANCH   4  21
ATOM     21  C   UNL     1      47.127   3.579  16.892  0.00  0.00    +0.000 C 
BRANCH  21  22
ATOM     22  N   UNL     1      46.763   4.512  15.858  0.00  0.00    +0.000 N 
ATOM     23  C   UNL     1      46.919   4.220  14.531  0.00  0.00    +0.000 C 
ATOM     24  O   UNL     1      47.353   3.136  14.149  0.00  0.00    +0.000 OA
ATOM     25  H   UNL     1      46.655   5.478  16.158  0.00  0.00    +0.000 HD
BRANCH  23  26
ATOM     26  C   UNL     1      46.469   5.242  13.582  0.00  0.00    +0.000 A 
ATOM     27  C   UNL     1      47.340   6.259  13.212  0.00  0.00    +0.000 A 
ATOM     28  S   UNL     1      46.687   7.333  12.062  0.00  0.00    +0.000 S 
ATOM     29  C   UNL     1      45.203   6.503  12.050  0.00  0.00    +0.000 A 
ATOM     30  N   UNL     1      44.171   6.931  11.272  0.00  0.00    +0.000 NA
ATOM     31  C   UNL     1      43.094   6.226  11.380  0.00  0.00    +0.000 A 
ATOM     32  N   UNL     1      42.955   5.132  12.192  0.00  0.00    +0.000 N 
ATOM     33  C   UNL     1      43.982   4.640  12.963  0.00  0.00    +0.000 A 
ATOM     34  O   UNL     1      43.846   3.615  13.621  0.00  0.00    +0.000 OA
ATOM     35  C   UNL     1      45.206   5.407  12.898  0.00  0.00    +0.000 A 
ATOM     36  H   UNL     1      42.090   4.614  12.223  0.00  0.00    +0.000 HD
ENDBRANCH  23  26
ENDBRANCH  21  22
ENDBRANCH   4  21
TORSDOF 10
ENDMDL
MODEL 5
REMARK VINA RESULT:    -6.583      4.058      9.398
REMARK INTER + INTRA:         -11.696
REMARK INTER:                  -9.226
REMARK INTRA:                  -2.470
REMARK UNBOUND:                -1.264
REMARK  Name = 
REMARK  11 active torsions:
REMARK  status: ('A' for Active; 'I' for Inactive)
REMARK    1  A    between atoms: C_1  and  C_2
REMARK    2  A    between atoms: C_2  and  N_3
REMARK    3  A    between atoms: N_3  and  C_4
REMARK    4  A    between atoms: N_3  and  C_28
REMARK    5  A    between atoms: C_4  and  C_5
REMARK    6  A    between atoms: C_5  and  N_6
REMARK    7  A    between atoms: N_6  and  C_7
REMARK    8  A    between atoms: C_7  and  C_8
REMARK    9  A    between atoms: C_11  and  C_12
REMARK   10  A    between atoms: C_12  and  N_13
REMARK   11  A    between atoms: C_14  and  C_16
REMARK                            x       y       z     vdW  Elec       q    Type
REMARK                         _______ _______ _______ _____ _____    ______ ____
ROOT
ATOM      1  C   UNL     1      49.769   5.158  19.543  0.00  0.00    +0.000 A 
ATOM      2  C   UNL     1      50.404   4.368  18.583  0.00  0.00    +0.000 A 
ATOM      3  C   UNL     1      49.658   3.827  17.541  0.00  0.00    +0.000 A 
ATOM      4  C   UNL     1      48.292   4.090  17.491  0.00  0.00    +0.000 A 
ATOM      5  N   UNL     1      47.672   4.926  18.362  0.00  0.00    +0.000 NA
ATOM      6  C   UNL     1      48.419   5.436  19.365  0.00  0.00    +0.000 A 
ENDROOT
BRANCH   1   7
ATOM      7  C   UNL     1      50.456   5.549  20.822  0.00  0.00    +0.000 C 
BRANCH   7   8
ATOM      8  N   UNL     1      50.281   6.982  21.120  0.00  0.00    +0.000 NA
ATOM      9  H   UNL     1      49.588   7.361  20.475  0.00  0.00    +0.000 HD
BRANCH   8  10
ATOM     10  C   UNL     1      51.549   7.726  20.945  0.00  0.00    +0.000 C 
BRANCH  10  11
ATOM     11  C   UNL     1      51.525   8.701  19.749  0.00  0.00    +0.000 C 
BRANCH  11  12
ATOM     12  N   UNL     1      50.189   8.784  19.107  0.00  0.00    +0.000 N 
BRANCH  12  13
ATOM     13  C   UNL     1      50.103   8.197  17.827  0.00  0.00    +0.000 A 
ATOM     14  C   UNL     1      51.196   7.577  17.193  0.00  0.00    +0.000 A 
ATOM     15  C   UNL     1      51.082   6.999  15.925  0.00  0.00    +0.000 A 
ATOM     16  C   UNL     1      49.867   7.031  15.252  0.00  0.00    +0.000 A 
ATOM     17  C   UNL     1      48.771   7.640  15.849  0.00  0.00    +0.000 A 
ATOM     18  C   UNL     1      48.891   8.215  17.119  0.00  0.00    +0.000 A 
ENDBRANCH  12  13
BRANCH  12  20
ATOM     19  C   UNL     1      49.931  10.996  20.291  0.00  0.00    +0.000 C 
ATOM     20  C   UNL     1      49.343   9.969  19.339  0.00  0.00    +0.000 C 
ENDBRANCH  12  20
ENDBRANCH  11  12
ENDBRANCH  10  11
ENDBRANCH   8  10
ENDBRANCH   7   8
ENDBRANCH   1   7
BRANCH   4  21
ATOM     21  C   UNL     1      47.426   3.427  16.452  0.00  0.00    +0.000 C 
BRANCH  21  22
ATOM     22  N   UNL     1      46.813   4.389  15.574  0.00  0.00    +0.000 N 
ATOM     23  C   UNL     1      46.859   4.259  14.213  0.00  0.00    +0.000 C 
ATOM     24  O   UNL     1      47.401   3.301  13.667  0.00  0.00    +0.000 OA
ATOM     25  H   UNL     1      46.599   5.291  15.992  0.00  0.00    +0.000 HD
BRANCH  23  26
ATOM     26  C   UNL     1      46.158   5.286  13.437  0.00  0.00    +0.000 A 
ATOM     27  C   UNL     1      46.755   6.526  13.253  0.00  0.00    +0.000 A 
ATOM     28  S   UNL     1      45.841   7.588  12.284  0.00  0.00    +0.000 S 
ATOM     29  C   UNL     1      44.595   6.444  12.112  0.00  0.00    +0.000 A 
ATOM     30  N   UNL     1      43.474   6.737  11.397  0.00  0.00    +0.000 NA
ATOM     31  C   UNL     1      42.597   5.788  11.371  0.00  0.00    +0.000 A 
ATOM     32  N   UNL     1      42.738   4.575  11.991  0.00  0.00    +0.000 N 
ATOM     33  C   UNL     1      43.870   4.221  12.686  0.00  0.00    +0.000 A 
ATOM     34  O   UNL     1      43.996   3.100  13.165  0.00  0.00    +0.000 OA
ATOM     35  C   UNL     1      44.876   5.257  12.769  0.00  0.00    +0.000 A 
ATOM     36  H   UNL     1      42.021   3.869  11.922  0.00  0.00    +0.000 HD
ENDBRANCH  23  26
ENDBRANCH  21  22
ENDBRANCH   4  21
TORSDOF 10
ENDMDL
MODEL 6
REMARK VINA RESULT:    -6.382      3.849      9.517
REMARK INTER + INTRA:         -11.377
REMARK INTER:                  -9.827
REMARK INTRA:                  -1.551
REMARK UNBOUND:                -1.264
REMARK  Name = 
REMARK  11 active torsions:
REMARK  status: ('A' for Active; 'I' for Inactive)
REMARK    1  A    between atoms: C_1  and  C_2
REMARK    2  A    between atoms: C_2  and  N_3
REMARK    3  A    between atoms: N_3  and  C_4
REMARK    4  A    between atoms: N_3  and  C_28
REMARK    5  A    between atoms: C_4  and  C_5
REMARK    6  A    between atoms: C_5  and  N_6
REMARK    7  A    between atoms: N_6  and  C_7
REMARK    8  A    between atoms: C_7  and  C_8
REMARK    9  A    between atoms: C_11  and  C_12
REMARK   10  A    between atoms: C_12  and  N_13
REMARK   11  A    between atoms: C_14  and  C_16
REMARK                            x       y       z     vdW  Elec       q    Type
REMARK                         _______ _______ _______ _____ _____    ______ ____
ROOT
ATOM      1  C   UNL     1      50.273   7.784  14.583  0.00  0.00    +0.000 A 
ATOM      2  C   UNL     1      50.407   8.572  13.438  0.00  0.00    +0.000 A 
ATOM      3  C   UNL     1      49.328   8.704  12.570  0.00  0.00    +0.000 A 
ATOM      4  C   UNL     1      48.142   8.040  12.872  0.00  0.00    +0.000 A 
ATOM      5  N   UNL     1      47.962   7.343  14.022  0.00  0.00    +0.000 NA
ATOM      6  C   UNL     1      49.027   7.229  14.846  0.00  0.00    +0.000 A 
ENDROOT
BRANCH   1   7
ATOM      7  C   UNL     1      51.464   7.390  15.412  0.00  0.00    +0.000 C 
BRANCH   7   8
ATOM      8  N   UNL     1      51.182   7.495  16.855  0.00  0.00    +0.000 NA
ATOM      9  H   UNL     1      51.231   8.478  17.121  0.00  0.00    +0.000 HD
BRANCH   8  10
ATOM     10  C   UNL     1      52.173   6.738  17.652  0.00  0.00    +0.000 C 
BRANCH  10  11
ATOM     11  C   UNL     1      51.534   5.687  18.584  0.00  0.00    +0.000 C 
BRANCH  11  12
ATOM     12  N   UNL     1      51.275   4.397  17.896  0.00  0.00    +0.000 N 
BRANCH  12  13
ATOM     13  C   UNL     1      49.913   4.102  17.672  0.00  0.00    +0.000 A 
ATOM     14  C   UNL     1      48.871   4.982  18.016  0.00  0.00    +0.000 A 
ATOM     15  C   UNL     1      47.530   4.666  17.779  0.00  0.00    +0.000 A 
ATOM     16  C   UNL     1      47.194   3.452  17.192  0.00  0.00    +0.000 A 
ATOM     17  C   UNL     1      48.200   2.560  16.846  0.00  0.00    +0.000 A 
ATOM     18  C   UNL     1      49.540   2.883  17.084  0.00  0.00    +0.000 A 
ENDBRANCH  12  13
BRANCH  12  20
ATOM     19  C   UNL     1      53.204   3.472  19.231  0.00  0.00    +0.000 C 
ATOM     20  C   UNL     1      52.157   3.245  18.154  0.00  0.00    +0.000 C 
ENDBRANCH  12  20
ENDBRANCH  11  12
ENDBRANCH  10  11
ENDBRANCH   8  10
ENDBRANCH   7   8
ENDBRANCH   1   7
BRANCH   4  21
ATOM     21  C   UNL     1      46.991   8.057  11.901  0.00  0.00    +0.000 C 
BRANCH  21  22
ATOM     22  N   UNL     1      46.431   6.744  11.713  0.00  0.00    +0.000 N 
ATOM     23  C   UNL     1      45.080   6.530  11.683  0.00  0.00    +0.000 C 
ATOM     24  O   UNL     1      44.272   7.450  11.787  0.00  0.00    +0.000 OA
ATOM     25  H   UNL     1      47.065   5.968  11.885  0.00  0.00    +0.000 HD
BRANCH  23  26
ATOM     26  C   UNL     1      44.644   5.152  11.442  0.00  0.00    +0.000 A 
ATOM     27  C   UNL     1      43.910   4.490  12.418  0.00  0.00    +0.000 A 
ATOM     28  S   UNL     1      43.431   2.919  11.966  0.00  0.00    +0.000 S 
ATOM     29  C   UNL     1      44.225   3.051  10.467  0.00  0.00    +0.000 A 
ATOM     30  N   UNL     1      44.222   2.016   9.583  0.00  0.00    +0.000 NA
ATOM     31  C   UNL     1      44.886   2.241   8.498  0.00  0.00    +0.000 A 
ATOM     32  N   UNL     1      45.548   3.405   8.214  0.00  0.00    +0.000 N 
ATOM     33  C   UNL     1      45.542   4.491   9.057  0.00  0.00    +0.000 A 
ATOM     34  O   UNL     1      46.083   5.545   8.740  0.00  0.00    +0.000 OA
ATOM     35  C   UNL     1      44.834   4.285  10.301  0.00  0.00    +0.000 A 
ATOM     36  H   UNL     1      46.038   3.525   7.341  0.00  0.00    +0.000 HD
ENDBRANCH  23  26
ENDBRANCH  21  22
ENDBRANCH   4  21
TORSDOF 10
ENDMDL
MODEL 7
REMARK VINA RESULT:    -6.178      3.644      9.331
REMARK INTER + INTRA:         -11.053
REMARK INTER:                  -9.029
REMARK INTRA:                  -2.024
REMARK UNBOUND:                -1.264
REMARK  Name = 
REMARK  11 active torsions:
REMARK  status: ('A' for Active; 'I' for Inactive)
REMARK    1  A    between atoms: C_1  and  C_2
REMARK    2  A    between atoms: C_2  and  N_3
REMARK    3  A    between atoms: N_3  and  C_4
REMARK    4  A    between atoms: N_3  and  C_28
REMARK    5  A    between atoms: C_4  and  C_5
REMARK    6  A    between atoms: C_5  and  N_6
REMARK    7  A    between atoms: N_6  and  C_7
REMARK    8  A    between atoms: C_7  and  C_8
REMARK    9  A    between atoms: C_11  and  C_12
REMARK   10  A    between atoms: C_12  and  N_13
REMARK   11  A    between atoms: C_14  and  C_16
REMARK                            x       y       z     vdW  Elec       q    Type
REMARK                         _______ _______ _______ _____ _____    ______ ____
ROOT
ATOM      1  C   UNL     1      51.245   3.107  17.826  0.00  0.00    +0.000 A 
ATOM      2  C   UNL     1      50.476   4.109  18.422  0.00  0.00    +0.000 A 
ATOM      3  C   UNL     1      49.117   4.186  18.141  0.00  0.00    +0.000 A 
ATOM      4  C   UNL     1      48.562   3.255  17.267  0.00  0.00    +0.000 A 
ATOM      5  N   UNL     1      49.270   2.221  16.748  0.00  0.00    +0.000 NA
ATOM      6  C   UNL     1      50.589   2.172  17.035  0.00  0.00    +0.000 A 
ENDROOT
BRANCH   1   7
ATOM      7  C   UNL     1      52.748   3.130  17.879  0.00  0.00    +0.000 C 
BRANCH   7   8
ATOM      8  N   UNL     1      53.291   4.400  17.366  0.00  0.00    +0.000 NA
ATOM      9  H   UNL     1      53.978   4.187  16.643  0.00  0.00    +0.000 HD
BRANCH   8  10
ATOM     10  C   UNL     1      53.957   5.172  18.440  0.00  0.00    +0.000 C 
BRANCH  10  11
ATOM     11  C   UNL     1      53.834   6.700  18.260  0.00  0.00    +0.000 C 
BRANCH  11  12
ATOM     12  N   UNL     1      52.426   7.168  18.307  0.00  0.00    +0.000 N 
BRANCH  12  13
ATOM     13  C   UNL     1      51.955   7.768  17.119  0.00  0.00    +0.000 A 
ATOM     14  C   UNL     1      52.190   9.118  16.798  0.00  0.00    +0.000 A 
ATOM     15  C   UNL     1      51.715   9.686  15.612  0.00  0.00    +0.000 A 
ATOM     16  C   UNL     1      50.985   8.917  14.715  0.00  0.00    +0.000 A 
ATOM     17  C   UNL     1      50.733   7.583  15.006  0.00  0.00    +0.000 A 
ATOM     18  C   UNL     1      51.212   7.019  16.193  0.00  0.00    +0.000 A 
ENDBRANCH  12  13
BRANCH  12  20
ATOM     19  C   UNL     1      50.371   7.568  19.713  0.00  0.00    +0.000 C 
ATOM     20  C   UNL     1      51.877   7.700  19.568  0.00  0.00    +0.000 C 
ENDBRANCH  12  20
ENDBRANCH  11  12
ENDBRANCH  10  11
ENDBRANCH   8  10
ENDBRANCH   7   8
ENDBRANCH   1   7
BRANCH   4  21
ATOM     21  C   UNL     1      47.122   3.373  16.841  0.00  0.00    +0.000 C 
BRANCH  21  22
ATOM     22  N   UNL     1      46.938   4.414  15.863  0.00  0.00    +0.000 N 
ATOM     23  C   UNL     1      47.010   4.167  14.520  0.00  0.00    +0.000 C 
ATOM     24  O   UNL     1      47.208   3.039  14.074  0.00  0.00    +0.000 OA
ATOM     25  H   UNL     1      47.033   5.365  16.211  0.00  0.00    +0.000 HD
BRANCH  23  26
ATOM     26  C   UNL     1      46.761   5.306  13.633  0.00  0.00    +0.000 A 
ATOM     27  C   UNL     1      47.793   6.195  13.360  0.00  0.00    +0.000 A 
ATOM     28  S   UNL     1      47.360   7.431  12.270  0.00  0.00    +0.000 S 
ATOM     29  C   UNL     1      45.766   6.849  12.160  0.00  0.00    +0.000 A 
ATOM     30  N   UNL     1      44.844   7.485  11.385  0.00  0.00    +0.000 NA
ATOM     31  C   UNL     1      43.667   6.953  11.414  0.00  0.00    +0.000 A 
ATOM     32  N   UNL     1      43.328   5.844  12.143  0.00  0.00    +0.000 N 
ATOM     33  C   UNL     1      44.236   5.147  12.904  0.00  0.00    +0.000 A 
ATOM     34  O   UNL     1      43.917   4.115  13.485  0.00  0.00    +0.000 OA
ATOM     35  C   UNL     1      45.566   5.714  12.928  0.00  0.00    +0.000 A 
ATOM     36  H   UNL     1      42.393   5.469  12.113  0.00  0.00    +0.000 HD
ENDBRANCH  23  26
ENDBRANCH  21  22
ENDBRANCH   4  21
TORSDOF 10
ENDMDL
MODEL 8
REMARK VINA RESULT:    -6.123      3.494     10.097
REMARK INTER + INTRA:         -10.967
REMARK INTER:                  -9.058
REMARK INTRA:                  -1.909
REMARK UNBOUND:                -1.264
REMARK  Name = 
REMARK  11 active torsions:
REMARK  status: ('A' for Active; 'I' for Inactive)
REMARK    1  A    between atoms: C_1  and  C_2
REMARK    2  A    between atoms: C_2  and  N_3
REMARK    3  A    between atoms: N_3  and  C_4
REMARK    4  A    between atoms: N_3  and  C_28
REMARK    5  A    between atoms: C_4  and  C_5
REMARK    6  A    between atoms: C_5  and  N_6
REMARK    7  A    between atoms: N_6  and  C_7
REMARK    8  A    between atoms: C_7  and  C_8
REMARK    9  A    between atoms: C_11  and  C_12
REMARK   10  A    between atoms: C_12  and  N_13
REMARK   11  A    between atoms: C_14  and  C_16
REMARK                            x       y       z     vdW  Elec       q    Type
REMARK                         _______ _______ _______ _____ _____    ______ ____
ROOT
ATOM      1  C   UNL     1      49.558   2.872  17.359  0.00  0.00    +0.000 A 
ATOM      2  C   UNL     1      50.227   4.075  17.590  0.00  0.00    +0.000 A 
ATOM      3  C   UNL     1      49.809   5.227  16.933  0.00  0.00    +0.000 A 
ATOM      4  C   UNL     1      48.731   5.142  16.057  0.00  0.00    +0.000 A 
ATOM      5  N   UNL     1      48.011   4.005  15.885  0.00  0.00    +0.000 NA
ATOM      6  C   UNL     1      48.440   2.900  16.533  0.00  0.00    +0.000 A 
ENDROOT
BRANCH   1   7
ATOM      7  C   UNL     1      50.117   1.556  17.826  0.00  0.00    +0.000 C 
BRANCH   7   8
ATOM      8  N   UNL     1      51.245   1.114  16.987  0.00  0.00    +0.000 NA
ATOM      9  H   UNL     1      50.949   0.293  16.459  0.00  0.00    +0.000 HD
BRANCH   8  10
ATOM     10  C   UNL     1      52.418   0.752  17.813  0.00  0.00    +0.000 C 
BRANCH  10  11
ATOM     11  C   UNL     1      53.534   1.818  17.790  0.00  0.00    +0.000 C 
BRANCH  11  12
ATOM     12  N   UNL     1      53.735   2.461  19.113  0.00  0.00    +0.000 N 
BRANCH  12  13
ATOM     13  C   UNL     1      53.397   3.830  19.170  0.00  0.00    +0.000 A 
ATOM     14  C   UNL     1      53.718   4.742  18.148  0.00  0.00    +0.000 A 
ATOM     15  C   UNL     1      53.368   6.093  18.229  0.00  0.00    +0.000 A 
ATOM     16  C   UNL     1      52.689   6.571  19.343  0.00  0.00    +0.000 A 
ATOM     17  C   UNL     1      52.363   5.697  20.371  0.00  0.00    +0.000 A 
ATOM     18  C   UNL     1      52.714   4.345  20.283  0.00  0.00    +0.000 A 
ENDBRANCH  12  13
BRANCH  12  20
ATOM     19  C   UNL     1      55.756   0.972  19.355  0.00  0.00    +0.000 C 
ATOM     20  C   UNL     1      54.855   2.030  19.969  0.00  0.00    +0.000 C 
ENDBRANCH  12  20
ENDBRANCH  11  12
ENDBRANCH  10  11
ENDBRANCH   8  10
ENDBRANCH   7   8
ENDBRANCH   1   7
BRANCH   4  21
ATOM     21  C   UNL     1      48.322   6.336  15.234  0.00  0.00    +0.000 C 
BRANCH  21  22
ATOM     22  N   UNL     1      47.107   6.089  14.501  0.00  0.00    +0.000 N 
ATOM     23  C   UNL     1      46.963   6.458  13.192  0.00  0.00    +0.000 C 
ATOM     24  O   UNL     1      47.871   6.997  12.563  0.00  0.00    +0.000 OA
ATOM     25  H   UNL     1      46.286   5.890  15.067  0.00  0.00    +0.000 HD
BRANCH  23  26
ATOM     26  C   UNL     1      45.692   6.109  12.553  0.00  0.00    +0.000 A 
ATOM     27  C   UNL     1      44.902   7.117  12.013  0.00  0.00    +0.000 A 
ATOM     28  S   UNL     1      43.486   6.545  11.257  0.00  0.00    +0.000 S 
ATOM     29  C   UNL     1      43.856   4.935  11.664  0.00  0.00    +0.000 A 
ATOM     30  N   UNL     1      43.017   3.919  11.321  0.00  0.00    +0.000 NA
ATOM     31  C   UNL     1      43.405   2.752  11.715  0.00  0.00    +0.000 A 
ATOM     32  N   UNL     1      44.555   2.507  12.417  0.00  0.00    +0.000 N 
ATOM     33  C   UNL     1      45.452   3.495  12.747  0.00  0.00    +0.000 A 
ATOM     34  O   UNL     1      46.509   3.231  13.310  0.00  0.00    +0.000 OA
ATOM     35  C   UNL     1      45.054   4.828  12.351  0.00  0.00    +0.000 A 
ATOM     36  H   UNL     1      44.811   1.569  12.685  0.00  0.00    +0.000 HD
ENDBRANCH  23  26
ENDBRANCH  21  22
ENDBRANCH   4  21
TORSDOF 10
ENDMDL
MODEL 9
REMARK VINA RESULT:    -6.015      4.196      9.643
REMARK INTER + INTRA:         -10.794
REMARK INTER:                  -9.506
REMARK INTRA:                  -1.289
REMARK UNBOUND:                -1.264
REMARK  Name = 
REMARK  11 active torsions:
REMARK  status: ('A' for Active; 'I' for Inactive)
REMARK    1  A    between atoms: C_1  and  C_2
REMARK    2  A    between atoms: C_2  and  N_3
REMARK    3  A    between atoms: N_3  and  C_4
REMARK    4  A    between atoms: N_3  and  C_28
REMARK    5  A    between atoms: C_4  and  C_5
REMARK    6  A    between atoms: C_5  and  N_6
REMARK    7  A    between atoms: N_6  and  C_7
REMARK    8  A    between atoms: C_7  and  C_8
REMARK    9  A    between atoms: C_11  and  C_12
REMARK   10  A    between atoms: C_12  and  N_13
REMARK   11  A    between atoms: C_14  and  C_16
REMARK                            x       y       z     vdW  Elec       q    Type
REMARK                         _______ _______ _______ _____ _____    ______ ____
ROOT
ATOM      1  C   UNL     1      48.391   7.795  13.891  0.00  0.00    +0.000 A 
ATOM      2  C   UNL     1      47.396   8.749  13.666  0.00  0.00    +0.000 A 
ATOM      3  C   UNL     1      46.284   8.410  12.902  0.00  0.00    +0.000 A 
ATOM      4  C   UNL     1      46.200   7.122  12.381  0.00  0.00    +0.000 A 
ATOM      5  N   UNL     1      47.110   6.155  12.660  0.00  0.00    +0.000 NA
ATOM      6  C   UNL     1      48.181   6.512  13.402  0.00  0.00    +0.000 A 
ENDROOT
BRANCH   1   7
ATOM      7  C   UNL     1      49.724   8.171  14.476  0.00  0.00    +0.000 C 
BRANCH   7   8
ATOM      8  N   UNL     1      50.157   7.210  15.507  0.00  0.00    +0.000 NA
ATOM      9  H   UNL     1      49.742   6.303  15.295  0.00  0.00    +0.000 HD
BRANCH   8  10
ATOM     10  C   UNL     1      49.712   7.632  16.854  0.00  0.00    +0.000 C 
BRANCH  10  11
ATOM     11  C   UNL     1      48.656   6.691  17.472  0.00  0.00    +0.000 C 
BRANCH  11  12
ATOM     12  N   UNL     1      49.234   5.774  18.486  0.00  0.00    +0.000 N 
BRANCH  12  13
ATOM     13  C   UNL     1      49.679   4.532  17.986  0.00  0.00    +0.000 A 
ATOM     14  C   UNL     1      51.034   4.155  17.963  0.00  0.00    +0.000 A 
ATOM     15  C   UNL     1      51.447   2.916  17.465  0.00  0.00    +0.000 A 
ATOM     16  C   UNL     1      50.510   2.018  16.968  0.00  0.00    +0.000 A 
ATOM     17  C   UNL     1      49.165   2.363  16.972  0.00  0.00    +0.000 A 
ATOM     18  C   UNL     1      48.758   3.603  17.474  0.00  0.00    +0.000 A 
ENDBRANCH  12  13
BRANCH  12  20
ATOM     19  C   UNL     1      47.189   5.997  19.945  0.00  0.00    +0.000 C 
ATOM     20  C   UNL     1      48.687   5.767  19.856  0.00  0.00    +0.000 C 
ENDBRANCH  12  20
ENDBRANCH  11  12
ENDBRANCH  10  11
ENDBRANCH   8  10
ENDBRANCH   7   8
ENDBRANCH   1   7
BRANCH   4  21
ATOM     21  C   UNL     1      45.077   6.749  11.449  0.00  0.00    +0.000 C 
BRANCH  21  22
ATOM     22  N   UNL     1      45.362   5.537  10.726  0.00  0.00    +0.000 N 
ATOM     23  C   UNL     1      44.369   4.712  10.275  0.00  0.00    +0.000 C 
ATOM     24  O   UNL     1      43.180   4.973  10.440  0.00  0.00    +0.000 OA
ATOM     25  H   UNL     1      46.314   5.189  10.812  0.00  0.00    +0.000 HD
BRANCH  23  26
ATOM     26  C   UNL     1      44.796   3.534   9.516  0.00  0.00    +0.000 A 
ATOM     27  C   UNL     1      44.183   2.310   9.757  0.00  0.00    +0.000 A 
ATOM     28  S   UNL     1      44.751   1.053   8.757  0.00  0.00    +0.000 S 
ATOM     29  C   UNL     1      45.865   2.089   7.997  0.00  0.00    +0.000 A 
ATOM     30  N   UNL     1      46.703   1.623   7.030  0.00  0.00    +0.000 NA
ATOM     31  C   UNL     1      47.516   2.509   6.557  0.00  0.00    +0.000 A 
ATOM     32  N   UNL     1      47.567   3.816   6.960  0.00  0.00    +0.000 N 
ATOM     33  C   UNL     1      46.713   4.340   7.902  0.00  0.00    +0.000 A 
ATOM     34  O   UNL     1      46.736   5.533   8.186  0.00  0.00    +0.000 OA
ATOM     35  C   UNL     1      45.796   3.384   8.484  0.00  0.00    +0.000 A 
ATOM     36  H   UNL     1      48.217   4.464   6.543  0.00  0.00    +0.000 HD
ENDBRANCH  23  26
ENDBRANCH  21  22
ENDBRANCH   4  21
TORSDOF 10
ENDMDL
