MODEL 1
REMARK VINA RESULT:    -7.242      0.000      0.000
REMARK INTER + INTRA:         -10.407
REMARK INTER:                  -9.783
REMARK INTRA:                  -0.625
REMARK UNBOUND:                -0.625
REMARK  Name = 
REMARK  8 active torsions:
REMARK  status: ('A' for Active; 'I' for Inactive)
REMARK    1  A    between atoms: C_1  and  C_2
REMARK    2  A    between atoms: C_2  and  N_3
REMARK    3  A    between atoms: N_3  and  C_4
REMARK    4  A    between atoms: C_4  and  C_5
REMARK    5  A    between atoms: C_5  and  C_6
REMARK    6  A    between atoms: C_5  and  C_7
REMARK    7  A    between atoms: C_11  and  C_12
REMARK    8  A    between atoms: C_18  and  C_19
REMARK                            x       y       z     vdW  Elec       q    Type
REMARK                         _______ _______ _______ _____ _____    ______ ____
ROOT
ATOM      1  N   UNL     1      44.561   4.806  10.681  0.00  0.00    +0.000 N 
ATOM      2  C   UNL     1      45.150   4.113   9.618  0.00  0.00    +0.000 A 
ATOM      3  C   UNL     1      46.006   4.789   8.750  0.00  0.00    +0.000 A 
ATOM      4  C   UNL     1      46.644   4.119   7.711  0.00  0.00    +0.000 A 
ATOM      5  C   UNL     1      46.415   2.763   7.527  0.00  0.00    +0.000 A 
ATOM      6  C   UNL     1      45.523   2.159   8.399  0.00  0.00    +0.000 A 
ATOM      7  N   UNL     1      44.887   2.804   9.420  0.00  0.00    +0.000 NA
ENDROOT
BRANCH   5   8
ATOM      8  C   UNL     1      47.123   2.074   6.424  0.00  0.00    +0.000 C 
ATOM      9  N   UNL     1      47.758   2.815   5.469  0.00  0.00    +0.000 N 
ATOM     10  O   UNL     1      47.143   0.849   6.354  0.00  0.00    +0.000 OA
ATOM     11  H   UNL     1      47.803   3.820   5.428  0.00  0.00    +0.000 HD
ATOM     12  H   UNL     1      48.222   2.291   4.736  0.00  0.00    +0.000 HD
ENDBRANCH   5   8
BRANCH   1  14
ATOM     13  C   UNL     1      42.354   5.366  11.815  0.00  0.00    +0.000 C 
ATOM     14  C   UNL     1      43.228   4.343  11.102  0.00  0.00    +0.000 C 
ENDBRANCH   1  14
BRANCH   1  15
ATOM     15  C   UNL     1      45.501   5.323  11.707  0.00  0.00    +0.000 C 
BRANCH  15  16
ATOM     16  C   UNL     1      46.067   6.730  11.353  0.00  0.00    +0.000 C 
ATOM     17  C   UNL     1      45.025   7.836  11.548  0.00  0.00    +0.000 C 
BRANCH  16  18
ATOM     18  C   UNL     1      47.360   7.085  12.091  0.00  0.00    +0.000 A 
ATOM     19  C   UNL     1      48.433   7.707  11.439  0.00  0.00    +0.000 A 
ATOM     20  C   UNL     1      49.628   7.968  12.116  0.00  0.00    +0.000 A 
ATOM     21  C   UNL     1      49.771   7.618  13.457  0.00  0.00    +0.000 A 
ATOM     22  C   UNL     1      48.716   6.999  14.133  0.00  0.00    +0.000 A 
ATOM     23  C   UNL     1      47.517   6.735  13.448  0.00  0.00    +0.000 A 
BRANCH  22  24
ATOM     24  C   UNL     1      48.865   6.629  15.511  0.00  0.00    +0.000 C 
ATOM     25  N   UNL     1      48.984   6.330  16.628  0.00  0.00    +0.000 NA
ENDBRANCH  22  24
ENDBRANCH  16  18
ENDBRANCH  15  16
ENDBRANCH   1  15
TORSDOF 6
ENDMDL
MODEL 2
REMARK VINA RESULT:    -7.225      1.729      2.077
REMARK INTER + INTRA:         -10.384
REMARK INTER:                  -9.715
REMARK INTRA:                  -0.669
REMARK UNBOUND:                -0.625
REMARK  Name = 
REMARK  8 active torsions:
REMARK  status: ('A' for Active; 'I' for Inactive)
REMARK    1  A    between atoms: C_1  and  C_2
REMARK    2  A    between atoms: C_2  and  N_3
REMARK    3  A    between atoms: N_3  and  C_4
REMARK    4  A    between atoms: C_4  and  C_5
REMARK    5  A    between atoms: C_5  and  C_6
REMARK    6  A    between atoms: C_5  and  C_7
REMARK    7  A    between atoms: C_11  and  C_12
REMARK    8  A    between atoms: C_18  and  C_19
REMARK                            x       y       z     vdW  Elec       q    Type
REMARK                         _______ _______ _______ _____ _____    ______ ____
ROOT
ATOM      1  N   UNL     1      44.497   4.360  10.642  0.00  0.00    +0.000 N 
ATOM      2  C   UNL     1      45.195   3.814   9.559  0.00  0.00    +0.000 A 
ATOM      3  C   UNL     1      45.816   4.665   8.646  0.00  0.00    +0.000 A 
ATOM      4  C   UNL     1      46.557   4.155   7.585  0.00  0.00    +0.000 A 
ATOM      5  C   UNL     1      46.668   2.781   7.424  0.00  0.00    +0.000 A 
ATOM      6  C   UNL     1      45.995   1.991   8.343  0.00  0.00    +0.000 A 
ATOM      7  N   UNL     1      45.261   2.477   9.386  0.00  0.00    +0.000 NA
ENDROOT
BRANCH   5   8
ATOM      8  C   UNL     1      47.479   2.269   6.296  0.00  0.00    +0.000 C 
ATOM      9  N   UNL     1      47.671   3.055   5.197  0.00  0.00    +0.000 N 
ATOM     10  O   UNL     1      47.977   1.147   6.334  0.00  0.00    +0.000 OA
ATOM     11  H   UNL     1      47.309   3.984   5.060  0.00  0.00    +0.000 HD
ATOM     12  H   UNL     1      48.230   2.652   4.455  0.00  0.00    +0.000 HD
ENDBRANCH   5   8
BRANCH   1  14
ATOM     13  C   UNL     1      43.515   2.890  12.471  0.00  0.00    +0.000 C 
ATOM     14  C   UNL     1      43.342   3.587  11.128  0.00  0.00    +0.000 C 
ENDBRANCH   1  14
BRANCH   1  15
ATOM     15  C   UNL     1      45.319   5.117  11.618  0.00  0.00    +0.000 C 
BRANCH  15  16
ATOM     16  C   UNL     1      45.458   6.624  11.250  0.00  0.00    +0.000 C 
ATOM     17  C   UNL     1      44.148   7.390  11.455  0.00  0.00    +0.000 C 
BRANCH  16  18
ATOM     18  C   UNL     1      46.606   7.337  11.968  0.00  0.00    +0.000 A 
ATOM     19  C   UNL     1      46.391   8.101  13.123  0.00  0.00    +0.000 A 
ATOM     20  C   UNL     1      47.443   8.794  13.730  0.00  0.00    +0.000 A 
ATOM     21  C   UNL     1      48.729   8.732  13.198  0.00  0.00    +0.000 A 
ATOM     22  C   UNL     1      48.973   7.976  12.048  0.00  0.00    +0.000 A 
ATOM     23  C   UNL     1      47.913   7.284  11.439  0.00  0.00    +0.000 A 
BRANCH  22  24
ATOM     24  C   UNL     1      50.295   7.920  11.494  0.00  0.00    +0.000 C 
ATOM     25  N   UNL     1      51.367   7.873  11.046  0.00  0.00    +0.000 NA
ENDBRANCH  22  24
ENDBRANCH  16  18
ENDBRANCH  15  16
ENDBRANCH   1  15
TORSDOF 6
ENDMDL
MODEL 3
REMARK VINA RESULT:    -6.949      1.140      1.766
REMARK INTER + INTRA:         -10.011
REMARK INTER:                 -10.054
REMARK INTRA:                   0.042
REMARK UNBOUND:                -0.625
REMARK  Name = 
REMARK  8 active torsions:
REMARK  status: ('A' for Active; 'I' for Inactive)
REMARK    1  A    between atoms: C_1  and  C_2
REMARK    2  A    between atoms: C_2  and  N_3
REMARK    3  A    between atoms: N_3  and  C_4
REMARK    4  A    between atoms: C_4  and  C_5
REMARK    5  A    between atoms: C_5  and  C_6
REMARK    6  A    between atoms: C_5  and  C_7
REMARK    7  A    between atoms: C_11  and  C_12
REMARK    8  A    between atoms: C_18  and  C_19
REMARK                            x       y       z     vdW  Elec       q    Type
REMARK                         _______ _______ _______ _____ _____    ______ ____
ROOT
ATOM      1  N   UNL     1      44.465   4.891  10.472  0.00  0.00    +0.000 N 
ATOM      2  C   UNL     1      45.100   4.049   9.552  0.00  0.00    +0.000 A 
ATOM      3  C   UNL     1      45.924   4.602   8.573  0.00  0.00    +0.000 A 
ATOM      4  C   UNL     1      46.606   3.790   7.673  0.00  0.00    +0.000 A 
ATOM      5  C   UNL     1      46.453   2.412   7.740  0.00  0.00    +0.000 A 
ATOM      6  C   UNL     1      45.590   1.929   8.711  0.00  0.00    +0.000 A 
ATOM      7  N   UNL     1      44.911   2.713   9.598  0.00  0.00    +0.000 NA
ENDROOT
BRANCH   5   8
ATOM      8  C   UNL     1      47.208   1.574   6.780  0.00  0.00    +0.000 C 
ATOM      9  N   UNL     1      48.247   2.121   6.086  0.00  0.00    +0.000 N 
ATOM     10  O   UNL     1      46.908   0.398   6.598  0.00  0.00    +0.000 OA
ATOM     11  H   UNL     1      48.575   3.070   6.154  0.00  0.00    +0.000 HD
ATOM     12  H   UNL     1      48.724   1.502   5.440  0.00  0.00    +0.000 HD
ENDBRANCH   5   8
BRANCH   1  14
ATOM     13  C   UNL     1      42.355   5.456  11.775  0.00  0.00    +0.000 C 
ATOM     14  C   UNL     1      43.156   4.439  10.973  0.00  0.00    +0.000 C 
ENDBRANCH   1  14
BRANCH   1  15
ATOM     15  C   UNL     1      45.367   5.638  11.383  0.00  0.00    +0.000 C 
BRANCH  15  16
ATOM     16  C   UNL     1      45.588   4.913  12.744  0.00  0.00    +0.000 C 
ATOM     17  C   UNL     1      45.852   3.415  12.561  0.00  0.00    +0.000 C 
BRANCH  16  18
ATOM     18  C   UNL     1      46.680   5.541  13.613  0.00  0.00    +0.000 A 
ATOM     19  C   UNL     1      47.375   6.689  13.209  0.00  0.00    +0.000 A 
ATOM     20  C   UNL     1      48.410   7.212  13.990  0.00  0.00    +0.000 A 
ATOM     21  C   UNL     1      48.766   6.601  15.191  0.00  0.00    +0.000 A 
ATOM     22  C   UNL     1      48.088   5.457  15.620  0.00  0.00    +0.000 A 
ATOM     23  C   UNL     1      47.050   4.933  14.831  0.00  0.00    +0.000 A 
BRANCH  22  24
ATOM     24  C   UNL     1      48.460   4.822  16.852  0.00  0.00    +0.000 C 
ATOM     25  N   UNL     1      48.760   4.306  17.850  0.00  0.00    +0.000 NA
ENDBRANCH  22  24
ENDBRANCH  16  18
ENDBRANCH  15  16
ENDBRANCH   1  15
TORSDOF 6
ENDMDL
MODEL 4
REMARK VINA RESULT:    -6.513      2.430      3.348
REMARK INTER + INTRA:          -9.422
REMARK INTER:                  -8.694
REMARK INTRA:                  -0.728
REMARK UNBOUND:                -0.625
REMARK  Name = 
REMARK  8 active torsions:
REMARK  status: ('A' for Active; 'I' for Inactive)
REMARK    1  A    between atoms: C_1  and  C_2
REMARK    2  A    between atoms: C_2  and  N_3
REMARK    3  A    between atoms: N_3  and  C_4
REMARK    4  A    between atoms: C_4  and  C_5
REMARK    5  A    between atoms: C_5  and  C_6
REMARK    6  A    between atoms: C_5  and  C_7
REMARK    7  A    between atoms: C_11  and  C_12
REMARK    8  A    between atoms: C_18  and  C_19
REMARK                            x       y       z     vdW  Elec       q    Type
REMARK                         _______ _______ _______ _____ _____    ______ ____
ROOT
ATOM      1  N   UNL     1      44.222   3.393  10.510  0.00  0.00    +0.000 N 
ATOM      2  C   UNL     1      45.019   3.100   9.398  0.00  0.00    +0.000 A 
ATOM      3  C   UNL     1      45.369   4.123   8.518  0.00  0.00    +0.000 A 
ATOM      4  C   UNL     1      46.198   3.874   7.428  0.00  0.00    +0.000 A 
ATOM      5  C   UNL     1      46.671   2.589   7.207  0.00  0.00    +0.000 A 
ATOM      6  C   UNL     1      46.255   1.611   8.096  0.00  0.00    +0.000 A 
ATOM      7  N   UNL     1      45.439   1.839   9.165  0.00  0.00    +0.000 NA
ENDROOT
BRANCH   5   8
ATOM      8  C   UNL     1      47.567   2.361   6.050  0.00  0.00    +0.000 C 
ATOM      9  N   UNL     1      47.527   3.221   4.991  0.00  0.00    +0.000 N 
ATOM     10  O   UNL     1      48.339   1.407   6.028  0.00  0.00    +0.000 OA
ATOM     11  H   UNL     1      46.934   4.029   4.903  0.00  0.00    +0.000 HD
ATOM     12  H   UNL     1      48.159   3.014   4.226  0.00  0.00    +0.000 HD
ENDBRANCH   5   8
BRANCH   1  14
ATOM     13  C   UNL     1      43.441   1.934  12.442  0.00  0.00    +0.000 C 
ATOM     14  C   UNL     1      43.328   2.318  10.973  0.00  0.00    +0.000 C 
ENDBRANCH   1  14
BRANCH   1  15
ATOM     15  C   UNL     1      44.830   4.305  11.511  0.00  0.00    +0.000 C 
BRANCH  15  16
ATOM     16  C   UNL     1      43.992   5.597  11.739  0.00  0.00    +0.000 C 
ATOM     17  C   UNL     1      42.929   5.410  12.826  0.00  0.00    +0.000 C 
BRANCH  16  18
ATOM     18  C   UNL     1      44.833   6.842  12.031  0.00  0.00    +0.000 A 
ATOM     19  C   UNL     1      45.917   6.807  12.919  0.00  0.00    +0.000 A 
ATOM     20  C   UNL     1      46.636   7.968  13.218  0.00  0.00    +0.000 A 
ATOM     21  C   UNL     1      46.289   9.184  12.631  0.00  0.00    +0.000 A 
ATOM     22  C   UNL     1      45.214   9.248  11.740  0.00  0.00    +0.000 A 
ATOM     23  C   UNL     1      44.492   8.079  11.445  0.00  0.00    +0.000 A 
BRANCH  22  24
ATOM     24  C   UNL     1      44.849  10.501  11.145  0.00  0.00    +0.000 C 
ATOM     25  N   UNL     1      44.551  11.516  10.662  0.00  0.00    +0.000 NA
ENDBRANCH  22  24
ENDBRANCH  16  18
ENDBRANCH  15  16
ENDBRANCH   1  15
TORSDOF 6
ENDMDL
MODEL 5
REMARK VINA RESULT:    -6.403      3.352      5.425
REMARK INTER + INTRA:          -9.273
REMARK INTER:                  -8.277
REMARK INTRA:                  -0.996
REMARK UNBOUND:                -0.625
REMARK  Name = 
REMARK  8 active torsions:
REMARK  status: ('A' for Active; 'I' for Inactive)
REMARK    1  A    between atoms: C_1  and  C_2
REMARK    2  A    between atoms: C_2  and  N_3
REMARK    3  A    between atoms: N_3  and  C_4
REMARK    4  A    between atoms: C_4  and  C_5
REMARK    5  A    between atoms: C_5  and  C_6
REMARK    6  A    between atoms: C_5  and  C_7
REMARK    7  A    between atoms: C_11  and  C_12
REMARK    8  A    between atoms: C_18  and  C_19
REMARK                            x       y       z     vdW  Elec       q    Type
REMARK                         _______ _______ _______ _____ _____    ______ ____
ROOT
ATOM      1  N   UNL     1      48.161   7.230  12.949  0.00  0.00    +0.000 N 
ATOM      2  C   UNL     1      47.159   6.321  12.594  0.00  0.00    +0.000 A 
ATOM      3  C   UNL     1      47.043   5.121  13.295  0.00  0.00    +0.000 A 
ATOM      4  C   UNL     1      46.029   4.216  12.997  0.00  0.00    +0.000 A 
ATOM      5  C   UNL     1      45.129   4.504  11.981  0.00  0.00    +0.000 A 
ATOM      6  C   UNL     1      45.324   5.694  11.297  0.00  0.00    +0.000 A 
ATOM      7  N   UNL     1      46.315   6.589  11.575  0.00  0.00    +0.000 NA
ENDROOT
BRANCH   5   8
ATOM      8  C   UNL     1      44.050   3.530  11.701  0.00  0.00    +0.000 C 
ATOM      9  N   UNL     1      43.831   2.503  12.574  0.00  0.00    +0.000 N 
ATOM     10  O   UNL     1      43.355   3.629  10.694  0.00  0.00    +0.000 OA
ATOM     11  H   UNL     1      44.341   2.325  13.423  0.00  0.00    +0.000 HD
ATOM     12  H   UNL     1      43.083   1.865  12.329  0.00  0.00    +0.000 HD
ENDBRANCH   5   8
BRANCH   1  14
ATOM     13  C   UNL     1      50.119   7.723  11.403  0.00  0.00    +0.000 C 
ATOM     14  C   UNL     1      48.706   8.058  11.860  0.00  0.00    +0.000 C 
ENDBRANCH   1  14
BRANCH   1  15
ATOM     15  C   UNL     1      48.042   7.815  14.308  0.00  0.00    +0.000 C 
BRANCH  15  16
ATOM     16  C   UNL     1      49.390   7.812  15.087  0.00  0.00    +0.000 C 
ATOM     17  C   UNL     1      49.604   9.109  15.873  0.00  0.00    +0.000 C 
BRANCH  16  18
ATOM     18  C   UNL     1      49.577   6.601  16.004  0.00  0.00    +0.000 A 
ATOM     19  C   UNL     1      50.823   6.284  16.562  0.00  0.00    +0.000 A 
ATOM     20  C   UNL     1      50.986   5.139  17.349  0.00  0.00    +0.000 A 
ATOM     21  C   UNL     1      49.906   4.294  17.596  0.00  0.00    +0.000 A 
ATOM     22  C   UNL     1      48.652   4.586  17.055  0.00  0.00    +0.000 A 
ATOM     23  C   UNL     1      48.493   5.736  16.262  0.00  0.00    +0.000 A 
BRANCH  22  24
ATOM     24  C   UNL     1      47.542   3.710  17.300  0.00  0.00    +0.000 C 
ATOM     25  N   UNL     1      46.642   3.002  17.498  0.00  0.00    +0.000 NA
ENDBRANCH  22  24
ENDBRANCH  16  18
ENDBRANCH  15  16
ENDBRANCH   1  15
TORSDOF 6
ENDMDL
MODEL 6
REMARK VINA RESULT:    -6.029      3.308      7.223
REMARK INTER + INTRA:          -8.769
REMARK INTER:                  -7.800
REMARK INTRA:                  -0.968
REMARK UNBOUND:                -0.625
REMARK  Name = 
REMARK  8 active torsions:
REMARK  status: ('A' for Active; 'I' for Inactive)
REMARK    1  A    between atoms: C_1  and  C_2
REMARK    2  A    between atoms: C_2  and  N_3
REMARK    3  A    between atoms: N_3  and  C_4
REMARK    4  A    between atoms: C_4  and  C_5
REMARK    5  A    between atoms: C_5  and  C_6
REMARK    6  A    between atoms: C_5  and  C_7
REMARK    7  A    between atoms: C_11  and  C_12
REMARK    8  A    between atoms: C_18  and  C_19
REMARK                            x       y       z     vdW  Elec       q    Type
REMARK                         _______ _______ _______ _____ _____    ______ ____
ROOT
ATOM      1  N   UNL     1      46.601   5.906  12.614  0.00  0.00    +0.000 N 
ATOM      2  C   UNL     1      47.751   6.684  12.788  0.00  0.00    +0.000 A 
ATOM      3  C   UNL     1      48.493   7.070  11.673  0.00  0.00    +0.000 A 
ATOM      4  C   UNL     1      49.615   7.881  11.809  0.00  0.00    +0.000 A 
ATOM      5  C   UNL     1      50.008   8.302  13.071  0.00  0.00    +0.000 A 
ATOM      6  C   UNL     1      49.250   7.852  14.140  0.00  0.00    +0.000 A 
ATOM      7  N   UNL     1      48.151   7.053  14.024  0.00  0.00    +0.000 NA
ENDROOT
BRANCH   5   8
ATOM      8  C   UNL     1      51.195   9.182  13.180  0.00  0.00    +0.000 C 
ATOM      9  N   UNL     1      52.299   8.914  12.423  0.00  0.00    +0.000 N 
ATOM     10  O   UNL     1      51.200  10.143  13.943  0.00  0.00    +0.000 OA
ATOM     11  H   UNL     1      52.404   8.155  11.771  0.00  0.00    +0.000 HD
ATOM     12  H   UNL     1      53.082   9.546  12.542  0.00  0.00    +0.000 HD
ENDBRANCH   5   8
BRANCH   1  14
ATOM     13  C   UNL     1      46.823   3.559  13.569  0.00  0.00    +0.000 C 
ATOM     14  C   UNL     1      46.274   4.973  13.704  0.00  0.00    +0.000 C 
ENDBRANCH   1  14
BRANCH   1  15
ATOM     15  C   UNL     1      45.496   6.555  11.866  0.00  0.00    +0.000 C 
BRANCH  15  16
ATOM     16  C   UNL     1      44.242   5.642  11.726  0.00  0.00    +0.000 C 
ATOM     17  C   UNL     1      42.986   6.441  11.366  0.00  0.00    +0.000 C 
BRANCH  16  18
ATOM     18  C   UNL     1      44.426   4.477  10.752  0.00  0.00    +0.000 A 
ATOM     19  C   UNL     1      43.946   3.192  11.042  0.00  0.00    +0.000 A 
ATOM     20  C   UNL     1      44.177   2.127  10.166  0.00  0.00    +0.000 A 
ATOM     21  C   UNL     1      44.885   2.327   8.983  0.00  0.00    +0.000 A 
ATOM     22  C   UNL     1      45.373   3.597   8.667  0.00  0.00    +0.000 A 
ATOM     23  C   UNL     1      45.142   4.665   9.551  0.00  0.00    +0.000 A 
BRANCH  22  24
ATOM     24  C   UNL     1      46.112   3.802   7.454  0.00  0.00    +0.000 C 
ATOM     25  N   UNL     1      46.708   3.967   6.470  0.00  0.00    +0.000 NA
ENDBRANCH  22  24
ENDBRANCH  16  18
ENDBRANCH  15  16
ENDBRANCH   1  15
TORSDOF 6
ENDMDL
MODEL 7
REMARK VINA RESULT:    -5.874      4.448      6.786
REMARK INTER + INTRA:          -8.559
REMARK INTER:                  -7.456
REMARK INTRA:                  -1.103
REMARK UNBOUND:                -0.625
REMARK  Name = 
REMARK  8 active torsions:
REMARK  status: ('A' for Active; 'I' for Inactive)
REMARK    1  A    between atoms: C_1  and  C_2
REMARK    2  A    between atoms: C_2  and  N_3
REMARK    3  A    between atoms: N_3  and  C_4
REMARK    4  A    between atoms: C_4  and  C_5
REMARK    5  A    between atoms: C_5  and  C_6
REMARK    6  A    between atoms: C_5  and  C_7
REMARK    7  A    between atoms: C_11  and  C_12
REMARK    8  A    between atoms: C_18  and  C_19
REMARK                            x       y       z     vdW  Elec       q    Type
REMARK                         _______ _______ _______ _____ _____    ______ ____
ROOT
ATOM      1  N   UNL     1      46.425   4.701  13.504  0.00  0.00    +0.000 N 
ATOM      2  C   UNL     1      47.045   4.669  14.758  0.00  0.00    +0.000 A 
ATOM      3  C   UNL     1      47.904   5.704  15.124  0.00  0.00    +0.000 A 
ATOM      4  C   UNL     1      48.500   5.726  16.381  0.00  0.00    +0.000 A 
ATOM      5  C   UNL     1      48.248   4.697  17.277  0.00  0.00    +0.000 A 
ATOM      6  C   UNL     1      47.417   3.679  16.837  0.00  0.00    +0.000 A 
ATOM      7  N   UNL     1      46.829   3.642  15.606  0.00  0.00    +0.000 NA
ENDROOT
BRANCH   5   8
ATOM      8  C   UNL     1      48.882   4.759  18.614  0.00  0.00    +0.000 C 
ATOM      9  N   UNL     1      48.626   3.773  19.523  0.00  0.00    +0.000 N 
ATOM     10  O   UNL     1      49.628   5.685  18.916  0.00  0.00    +0.000 OA
ATOM     11  H   UNL     1      48.031   2.974  19.383  0.00  0.00    +0.000 HD
ATOM     12  H   UNL     1      49.084   3.869  20.422  0.00  0.00    +0.000 HD
ENDBRANCH   5   8
BRANCH   1  14
ATOM     13  C   UNL     1      44.805   3.263  12.171  0.00  0.00    +0.000 C 
ATOM     14  C   UNL     1      46.145   3.396  12.881  0.00  0.00    +0.000 C 
ENDBRANCH   1  14
BRANCH   1  15
ATOM     15  C   UNL     1      45.476   5.821  13.288  0.00  0.00    +0.000 C 
BRANCH  15  16
ATOM     16  C   UNL     1      45.771   6.621  11.984  0.00  0.00    +0.000 C 
ATOM     17  C   UNL     1      44.518   7.314  11.438  0.00  0.00    +0.000 C 
BRANCH  16  18
ATOM     18  C   UNL     1      46.917   7.626  12.116  0.00  0.00    +0.000 A 
ATOM     19  C   UNL     1      46.718   8.904  12.656  0.00  0.00    +0.000 A 
ATOM     20  C   UNL     1      47.764   9.829  12.713  0.00  0.00    +0.000 A 
ATOM     21  C   UNL     1      49.030   9.493  12.237  0.00  0.00    +0.000 A 
ATOM     22  C   UNL     1      49.258   8.225  11.695  0.00  0.00    +0.000 A 
ATOM     23  C   UNL     1      48.203   7.299  11.637  0.00  0.00    +0.000 A 
BRANCH  22  24
ATOM     24  C   UNL     1      50.558   7.882  11.194  0.00  0.00    +0.000 C 
ATOM     25  N   UNL     1      51.612   7.606  10.787  0.00  0.00    +0.000 NA
ENDBRANCH  22  24
ENDBRANCH  16  18
ENDBRANCH  15  16
ENDBRANCH   1  15
TORSDOF 6
ENDMDL
MODEL 8
REMARK VINA RESULT:    -5.389      3.299      6.526
REMARK INTER + INTRA:          -7.904
REMARK INTER:                  -6.943
REMARK INTRA:                  -0.961
REMARK UNBOUND:                -0.625
REMARK  Name = 
REMARK  8 active torsions:
REMARK  status: ('A' for Active; 'I' for Inactive)
REMARK    1  A    between atoms: C_1  and  C_2
REMARK    2  A    between atoms: C_2  and  N_3
REMARK    3  A    between atoms: N_3  and  C_4
REMARK    4  A    between atoms: C_4  and  C_5
REMARK    5  A    between atoms: C_5  and  C_6
REMARK    6  A    between atoms: C_5  and  C_7
REMARK    7  A    between atoms: C_11  and  C_12
REMARK    8  A    between atoms: C_18  and  C_19
REMARK                            x       y       z     vdW  Elec       q    Type
REMARK                         _______ _______ _______ _____ _____    ______ ____
ROOT
ATOM      1  N   UNL     1      49.040   6.929  14.731  0.00  0.00    +0.000 N 
ATOM      2  C   UNL     1      48.065   6.605  13.781  0.00  0.00    +0.000 A 
ATOM      3  C   UNL     1      47.337   5.424  13.923  0.00  0.00    +0.000 A 
ATOM      4  C   UNL     1      46.330   5.095  13.022  0.00  0.00    +0.000 A 
ATOM      5  C   UNL     1      46.055   5.945  11.960  0.00  0.00    +0.000 A 
ATOM      6  C   UNL     1      46.840   7.082  11.855  0.00  0.00    +0.000 A 
ATOM      7  N   UNL     1      47.834   7.416  12.727  0.00  0.00    +0.000 NA
ENDROOT
BRANCH   5   8
ATOM      8  C   UNL     1      44.963   5.576  11.030  0.00  0.00    +0.000 C 
ATOM      9  N   UNL     1      43.831   6.337  10.989  0.00  0.00    +0.000 N 
ATOM     10  O   UNL     1      45.061   4.594  10.300  0.00  0.00    +0.000 OA
ATOM     11  H   UNL     1      43.644   7.156  11.543  0.00  0.00    +0.000 HD
ATOM     12  H   UNL     1      43.116   6.035  10.337  0.00  0.00    +0.000 HD
ENDBRANCH   5   8
BRANCH   1  14
ATOM     13  C   UNL     1      50.292   9.143  14.714  0.00  0.00    +0.000 C 
ATOM     14  C   UNL     1      50.196   7.699  14.242  0.00  0.00    +0.000 C 
ENDBRANCH   1  14
BRANCH   1  15
ATOM     15  C   UNL     1      48.537   7.180  16.104  0.00  0.00    +0.000 C 
BRANCH  15  16
ATOM     16  C   UNL     1      49.446   6.557  17.205  0.00  0.00    +0.000 C 
ATOM     17  C   UNL     1      49.082   7.060  18.605  0.00  0.00    +0.000 C 
BRANCH  16  18
ATOM     18  C   UNL     1      49.486   5.027  17.186  0.00  0.00    +0.000 A 
ATOM     19  C   UNL     1      48.325   4.261  17.012  0.00  0.00    +0.000 A 
ATOM     20  C   UNL     1      48.374   2.865  17.058  0.00  0.00    +0.000 A 
ATOM     21  C   UNL     1      49.584   2.208  17.273  0.00  0.00    +0.000 A 
ATOM     22  C   UNL     1      50.758   2.946  17.448  0.00  0.00    +0.000 A 
ATOM     23  C   UNL     1      50.704   4.349  17.404  0.00  0.00    +0.000 A 
BRANCH  22  24
ATOM     24  C   UNL     1      52.002   2.270  17.680  0.00  0.00    +0.000 C 
ATOM     25  N   UNL     1      53.009   1.721  17.869  0.00  0.00    +0.000 NA
ENDBRANCH  22  24
ENDBRANCH  16  18
ENDBRANCH  15  16
ENDBRANCH   1  15
TORSDOF 6
ENDMDL
MODEL 9
REMARK VINA RESULT:    -5.331      3.761      6.451
REMARK INTER + INTRA:          -7.825
REMARK INTER:                  -6.787
REMARK INTRA:                  -1.038
REMARK UNBOUND:                -0.625
REMARK  Name = 
REMARK  8 active torsions:
REMARK  status: ('A' for Active; 'I' for Inactive)
REMARK    1  A    between atoms: C_1  and  C_2
REMARK    2  A    between atoms: C_2  and  N_3
REMARK    3  A    between atoms: N_3  and  C_4
REMARK    4  A    between atoms: C_4  and  C_5
REMARK    5  A    between atoms: C_5  and  C_6
REMARK    6  A    between atoms: C_5  and  C_7
REMARK    7  A    between atoms: C_11  and  C_12
REMARK    8  A    between atoms: C_18  and  C_19
REMARK                            x       y       z     vdW  Elec       q    Type
REMARK                         _______ _______ _______ _____ _____    ______ ____
ROOT
ATOM      1  N   UNL     1      47.793   4.934  15.349  0.00  0.00    +0.000 N 
ATOM      2  C   UNL     1      46.985   4.953  14.207  0.00  0.00    +0.000 A 
ATOM      3  C   UNL     1      46.535   3.750  13.665  0.00  0.00    +0.000 A 
ATOM      4  C   UNL     1      45.694   3.737  12.557  0.00  0.00    +0.000 A 
ATOM      5  C   UNL     1      45.308   4.936  11.975  0.00  0.00    +0.000 A 
ATOM      6  C   UNL     1      45.821   6.094  12.538  0.00  0.00    +0.000 A 
ATOM      7  N   UNL     1      46.651   6.122  13.620  0.00  0.00    +0.000 NA
ENDROOT
BRANCH   5   8
ATOM      8  C   UNL     1      44.395   4.889  10.810  0.00  0.00    +0.000 C 
ATOM      9  N   UNL     1      44.915   4.718   9.559  0.00  0.00    +0.000 N 
ATOM     10  O   UNL     1      43.182   5.006  10.953  0.00  0.00    +0.000 OA
ATOM     11  H   UNL     1      45.889   4.616   9.328  0.00  0.00    +0.000 HD
ATOM     12  H   UNL     1      44.244   4.699   8.799  0.00  0.00    +0.000 HD
ENDBRANCH   5   8
BRANCH   1  14
ATOM     13  C   UNL     1      48.602   6.956  16.661  0.00  0.00    +0.000 C 
ATOM     14  C   UNL     1      48.776   6.023  15.471  0.00  0.00    +0.000 C 
ENDBRANCH   1  14
BRANCH   1  15
ATOM     15  C   UNL     1      47.152   4.401  16.577  0.00  0.00    +0.000 C 
BRANCH  15  16
ATOM     16  C   UNL     1      47.988   3.277  17.257  0.00  0.00    +0.000 C 
ATOM     17  C   UNL     1      48.562   2.289  16.236  0.00  0.00    +0.000 C 
BRANCH  16  18
ATOM     18  C   UNL     1      49.099   3.795  18.174  0.00  0.00    +0.000 A 
ATOM     19  C   UNL     1      48.814   4.435  19.387  0.00  0.00    +0.000 A 
ATOM     20  C   UNL     1      49.840   4.954  20.182  0.00  0.00    +0.000 A 
ATOM     21  C   UNL     1      51.169   4.839  19.781  0.00  0.00    +0.000 A 
ATOM     22  C   UNL     1      51.483   4.204  18.577  0.00  0.00    +0.000 A 
ATOM     23  C   UNL     1      50.449   3.686  17.780  0.00  0.00    +0.000 A 
BRANCH  22  24
ATOM     24  C   UNL     1      52.852   4.094  18.159  0.00  0.00    +0.000 C 
ATOM     25  N   UNL     1      53.960   4.006  17.818  0.00  0.00    +0.000 NA
ENDBRANCH  22  24
ENDBRANCH  16  18
ENDBRANCH  15  16
ENDBRANCH   1  15
TORSDOF 6
ENDMDL
