MODEL 1
REMARK VINA RESULT:    -7.780      0.000      0.000
REMARK INTER + INTRA:         -10.486
REMARK INTER:                  -9.826
REMARK INTRA:                  -0.660
REMARK UNBOUND:                -0.660
REMARK  Name = 
REMARK  5 active torsions:
REMARK  status: ('A' for Active; 'I' for Inactive)
REMARK    1  A    between atoms: N_1  and  C_2
REMARK    2  A    between atoms: C_2  and  C_3
REMARK    3  A    between atoms: C_3  and  C_4
REMARK    4  A    between atoms: C_7  and  C_8
REMARK    5  A    between atoms: C_8  and  N_9
REMARK                            x       y       z     vdW  Elec       q    Type
REMARK                         _______ _______ _______ _____ _____    ______ ____
ROOT
ATOM      1  C   UNL     1      45.928   2.528   8.146  0.00  0.00    +0.000 A 
ATOM      2  C   UNL     1      45.049   1.962   9.065  0.00  0.00    +0.000 A 
ATOM      3  C   UNL     1      44.267   2.766   9.907  0.00  0.00    +0.000 A 
ATOM      4  C   UNL     1      44.352   4.162   9.855  0.00  0.00    +0.000 A 
ATOM      5  C   UNL     1      45.254   4.729   8.950  0.00  0.00    +0.000 A 
ATOM      6  C   UNL     1      46.032   3.939   8.113  0.00  0.00    +0.000 A 
ENDROOT
BRANCH   1   7
ATOM      7  C   UNL     1      46.841   1.723   7.238  0.00  0.00    +0.000 C 
BRANCH   7   8
ATOM      8  C   UNL     1      48.085   2.433   6.692  0.00  0.00    +0.000 C 
BRANCH   8   9
ATOM      9  N   UNL     1      48.520   1.825   5.432  0.00  0.00    +0.000 NA
ATOM     10  H   UNL     1      49.482   1.501   5.524  0.00  0.00    +0.000 HD
ATOM     11  H   UNL     1      48.528   2.532   4.697  0.00  0.00    +0.000 HD
ENDBRANCH   8   9
ENDBRANCH   7   8
ENDBRANCH   1   7
BRANCH   4  12
ATOM     12  C   UNL     1      43.469   5.046  10.710  0.00  0.00    +0.000 C 
BRANCH  12  13
ATOM     13  N   UNL     1      44.214   5.978  11.544  0.00  0.00    +0.000 N 
ATOM     14  C   UNL     1      44.305   7.327  11.278  0.00  0.00    +0.000 A 
ATOM     15  C   UNL     1      45.180   7.887  12.181  0.00  0.00    +0.000 A 
ATOM     16  C   UNL     1      45.875   6.808  12.789  0.00  0.00    +0.000 A 
ATOM     17  C   UNL     1      47.064   6.714  13.527  0.00  0.00    +0.000 A 
ATOM     18  F   UNL     1      47.847   7.791  13.701  0.00  0.00    +0.000 F 
ATOM     19  C   UNL     1      47.495   5.475  14.005  0.00  0.00    +0.000 A 
ATOM     20  C   UNL     1      46.699   4.349  13.825  0.00  0.00    +0.000 A 
ATOM     21  C   UNL     1      45.513   4.411  13.075  0.00  0.00    +0.000 A 
ATOM     22  C   UNL     1      45.167   5.642  12.492  0.00  0.00    +0.000 A 
ENDBRANCH  12  13
ENDBRANCH   4  12
TORSDOF 5
ENDMDL
MODEL 2
REMARK VINA RESULT:    -7.019      2.970      6.490
REMARK INTER + INTRA:          -9.525
REMARK INTER:                  -9.142
REMARK INTRA:                  -0.383
REMARK UNBOUND:                -0.660
REMARK  Name = 
REMARK  5 active torsions:
REMARK  status: ('A' for Active; 'I' for Inactive)
REMARK    1  A    between atoms: N_1  and  C_2
REMARK    2  A    between atoms: C_2  and  C_3
REMARK    3  A    between atoms: C_3  and  C_4
REMARK    4  A    between atoms: C_7  and  C_8
REMARK    5  A    between atoms: C_8  and  N_9
REMARK                            x       y       z     vdW  Elec       q    Type
REMARK                         _______ _______ _______ _____ _____    ______ ____
ROOT
ATOM      1  C   UNL     1      47.069   5.720  13.251  0.00  0.00    +0.000 A 
ATOM      2  C   UNL     1      46.124   4.698  13.260  0.00  0.00    +0.000 A 
ATOM      3  C   UNL     1      45.298   4.468  12.150  0.00  0.00    +0.000 A 
ATOM      4  C   UNL     1      45.392   5.264  11.003  0.00  0.00    +0.000 A 
ATOM      5  C   UNL     1      46.322   6.307  11.006  0.00  0.00    +0.000 A 
ATOM      6  C   UNL     1      47.144   6.540  12.100  0.00  0.00    +0.000 A 
ENDROOT
BRANCH   1   7
ATOM      7  C   UNL     1      47.964   6.059  14.430  0.00  0.00    +0.000 C 
BRANCH   7   8
ATOM      8  C   UNL     1      48.850   7.303  14.299  0.00  0.00    +0.000 C 
BRANCH   8   9
ATOM      9  N   UNL     1      50.245   6.982  14.608  0.00  0.00    +0.000 NA
ATOM     10  H   UNL     1      50.659   7.742  15.146  0.00  0.00    +0.000 HD
ATOM     11  H   UNL     1      50.782   6.923  13.743  0.00  0.00    +0.000 HD
ENDBRANCH   8   9
ENDBRANCH   7   8
ENDBRANCH   1   7
BRANCH   4  12
ATOM     12  C   UNL     1      44.553   4.990   9.772  0.00  0.00    +0.000 C 
BRANCH  12  13
ATOM     13  N   UNL     1      44.708   3.638   9.254  0.00  0.00    +0.000 N 
ATOM     14  C   UNL     1      44.163   2.527   9.861  0.00  0.00    +0.000 A 
ATOM     15  C   UNL     1      44.604   1.409   9.191  0.00  0.00    +0.000 A 
ATOM     16  C   UNL     1      45.687   1.831   8.375  0.00  0.00    +0.000 A 
ATOM     17  C   UNL     1      46.726   1.156   7.717  0.00  0.00    +0.000 A 
ATOM     18  F   UNL     1      46.888  -0.168   7.876  0.00  0.00    +0.000 F 
ATOM     19  C   UNL     1      47.663   1.871   6.969  0.00  0.00    +0.000 A 
ATOM     20  C   UNL     1      47.512   3.244   6.803  0.00  0.00    +0.000 A 
ATOM     21  C   UNL     1      46.493   3.948   7.464  0.00  0.00    +0.000 A 
ATOM     22  C   UNL     1      45.641   3.225   8.317  0.00  0.00    +0.000 A 
ENDBRANCH  12  13
ENDBRANCH   4  12
TORSDOF 5
ENDMDL
MODEL 3
REMARK VINA RESULT:    -5.984      3.082      5.975
REMARK INTER + INTRA:          -8.218
REMARK INTER:                  -7.748
REMARK INTRA:                  -0.470
REMARK UNBOUND:                -0.660
REMARK  Name = 
REMARK  5 active torsions:
REMARK  status: ('A' for Active; 'I' for Inactive)
REMARK    1  A    between atoms: N_1  and  C_2
REMARK    2  A    between atoms: C_2  and  C_3
REMARK    3  A    between atoms: C_3  and  C_4
REMARK    4  A    between atoms: C_7  and  C_8
REMARK    5  A    between atoms: C_8  and  N_9
REMARK                            x       y       z     vdW  Elec       q    Type
REMARK                         _______ _______ _______ _____ _____    ______ ____
ROOT
ATOM      1  C   UNL     1      48.322   7.126  12.619  0.00  0.00    +0.000 A 
ATOM      2  C   UNL     1      47.351   7.896  11.986  0.00  0.00    +0.000 A 
ATOM      3  C   UNL     1      46.011   7.482  11.948  0.00  0.00    +0.000 A 
ATOM      4  C   UNL     1      45.612   6.277  12.536  0.00  0.00    +0.000 A 
ATOM      5  C   UNL     1      46.592   5.491  13.147  0.00  0.00    +0.000 A 
ATOM      6  C   UNL     1      47.920   5.895  13.190  0.00  0.00    +0.000 A 
ENDROOT
BRANCH   1   7
ATOM      7  C   UNL     1      49.797   7.485  12.659  0.00  0.00    +0.000 C 
BRANCH   7   8
ATOM      8  C   UNL     1      50.287   8.537  11.658  0.00  0.00    +0.000 C 
BRANCH   8   9
ATOM      9  N   UNL     1      51.748   8.632  11.676  0.00  0.00    +0.000 NA
ATOM     10  H   UNL     1      52.044   9.443  11.134  0.00  0.00    +0.000 HD
ATOM     11  H   UNL     1      52.150   7.818  11.211  0.00  0.00    +0.000 HD
ENDBRANCH   8   9
ENDBRANCH   7   8
ENDBRANCH   1   7
BRANCH   4  12
ATOM     12  C   UNL     1      44.160   5.845  12.560  0.00  0.00    +0.000 C 
BRANCH  12  13
ATOM     13  N   UNL     1      43.901   4.636  11.792  0.00  0.00    +0.000 N 
ATOM     14  C   UNL     1      43.406   3.477  12.348  0.00  0.00    +0.000 A 
ATOM     15  C   UNL     1      43.402   2.500  11.379  0.00  0.00    +0.000 A 
ATOM     16  C   UNL     1      44.210   2.985  10.317  0.00  0.00    +0.000 A 
ATOM     17  C   UNL     1      44.842   2.376   9.222  0.00  0.00    +0.000 A 
ATOM     18  F   UNL     1      44.818   1.040   9.076  0.00  0.00    +0.000 F 
ATOM     19  C   UNL     1      45.586   3.144   8.326  0.00  0.00    +0.000 A 
ATOM     20  C   UNL     1      45.627   4.527   8.469  0.00  0.00    +0.000 A 
ATOM     21  C   UNL     1      45.019   5.162   9.564  0.00  0.00    +0.000 A 
ATOM     22  C   UNL     1      44.387   4.354  10.525  0.00  0.00    +0.000 A 
ENDBRANCH  12  13
ENDBRANCH   4  12
TORSDOF 5
ENDMDL
MODEL 4
REMARK VINA RESULT:    -5.980      2.990      7.019
REMARK INTER + INTRA:          -8.213
REMARK INTER:                  -7.732
REMARK INTRA:                  -0.481
REMARK UNBOUND:                -0.660
REMARK  Name = 
REMARK  5 active torsions:
REMARK  status: ('A' for Active; 'I' for Inactive)
REMARK    1  A    between atoms: N_1  and  C_2
REMARK    2  A    between atoms: C_2  and  C_3
REMARK    3  A    between atoms: C_3  and  C_4
REMARK    4  A    between atoms: C_7  and  C_8
REMARK    5  A    between atoms: C_8  and  N_9
REMARK                            x       y       z     vdW  Elec       q    Type
REMARK                         _______ _______ _______ _____ _____    ______ ____
ROOT
ATOM      1  C   UNL     1      44.304  10.025  11.424  0.00  0.00    +0.000 A 
ATOM      2  C   UNL     1      45.484   9.874  12.147  0.00  0.00    +0.000 A 
ATOM      3  C   UNL     1      45.989   8.601  12.447  0.00  0.00    +0.000 A 
ATOM      4  C   UNL     1      45.318   7.443  12.038  0.00  0.00    +0.000 A 
ATOM      5  C   UNL     1      44.120   7.596  11.336  0.00  0.00    +0.000 A 
ATOM      6  C   UNL     1      43.614   8.853  11.034  0.00  0.00    +0.000 A 
ENDROOT
BRANCH   1   7
ATOM      7  C   UNL     1      43.672  11.368  11.103  0.00  0.00    +0.000 C 
BRANCH   7   8
ATOM      8  C   UNL     1      42.143  11.455  11.179  0.00  0.00    +0.000 C 
BRANCH   8   9
ATOM      9  N   UNL     1      41.687  11.392  12.569  0.00  0.00    +0.000 NA
ATOM     10  H   UNL     1      40.974  10.669  12.662  0.00  0.00    +0.000 HD
ATOM     11  H   UNL     1      41.234  12.270  12.821  0.00  0.00    +0.000 HD
ENDBRANCH   8   9
ENDBRANCH   7   8
ENDBRANCH   1   7
BRANCH   4  12
ATOM     12  C   UNL     1      45.882   6.062  12.298  0.00  0.00    +0.000 C 
BRANCH  12  13
ATOM     13  N   UNL     1      45.087   4.991  11.713  0.00  0.00    +0.000 N 
ATOM     14  C   UNL     1      44.396   4.065  12.464  0.00  0.00    +0.000 A 
ATOM     15  C   UNL     1      43.863   3.127  11.608  0.00  0.00    +0.000 A 
ATOM     16  C   UNL     1      44.515   3.306  10.360  0.00  0.00    +0.000 A 
ATOM     17  C   UNL     1      44.653   2.508   9.214  0.00  0.00    +0.000 A 
ATOM     18  F   UNL     1      44.179   1.252   9.196  0.00  0.00    +0.000 F 
ATOM     19  C   UNL     1      45.372   2.979   8.115  0.00  0.00    +0.000 A 
ATOM     20  C   UNL     1      45.876   4.276   8.122  0.00  0.00    +0.000 A 
ATOM     21  C   UNL     1      45.768   5.090   9.261  0.00  0.00    +0.000 A 
ATOM     22  C   UNL     1      45.154   4.547  10.403  0.00  0.00    +0.000 A 
ENDBRANCH  12  13
ENDBRANCH   4  12
TORSDOF 5
ENDMDL
MODEL 5
REMARK VINA RESULT:    -5.824      1.893      2.531
REMARK INTER + INTRA:          -8.016
REMARK INTER:                  -7.628
REMARK INTRA:                  -0.388
REMARK UNBOUND:                -0.660
REMARK  Name = 
REMARK  5 active torsions:
REMARK  status: ('A' for Active; 'I' for Inactive)
REMARK    1  A    between atoms: N_1  and  C_2
REMARK    2  A    between atoms: C_2  and  C_3
REMARK    3  A    between atoms: C_3  and  C_4
REMARK    4  A    between atoms: C_7  and  C_8
REMARK    5  A    between atoms: C_8  and  N_9
REMARK                            x       y       z     vdW  Elec       q    Type
REMARK                         _______ _______ _______ _____ _____    ______ ____
ROOT
ATOM      1  C   UNL     1      45.266   3.432   9.258  0.00  0.00    +0.000 A 
ATOM      2  C   UNL     1      44.899   2.881  10.482  0.00  0.00    +0.000 A 
ATOM      3  C   UNL     1      44.814   3.674  11.635  0.00  0.00    +0.000 A 
ATOM      4  C   UNL     1      45.105   5.042  11.593  0.00  0.00    +0.000 A 
ATOM      5  C   UNL     1      45.500   5.589  10.369  0.00  0.00    +0.000 A 
ATOM      6  C   UNL     1      45.586   4.810   9.223  0.00  0.00    +0.000 A 
ENDROOT
BRANCH   1   7
ATOM      7  C   UNL     1      45.427   2.629   7.979  0.00  0.00    +0.000 C 
BRANCH   7   8
ATOM      8  C   UNL     1      46.377   1.427   8.024  0.00  0.00    +0.000 C 
BRANCH   8   9
ATOM      9  N   UNL     1      47.514   1.630   7.123  0.00  0.00    +0.000 NA
ATOM     10  H   UNL     1      48.257   0.972   7.358  0.00  0.00    +0.000 HD
ATOM     11  H   UNL     1      47.904   2.561   7.267  0.00  0.00    +0.000 HD
ENDBRANCH   8   9
ENDBRANCH   7   8
ENDBRANCH   1   7
BRANCH   4  12
ATOM     12  C   UNL     1      44.956   5.926  12.814  0.00  0.00    +0.000 C 
BRANCH  12  13
ATOM     13  N   UNL     1      45.639   7.206  12.691  0.00  0.00    +0.000 N 
ATOM     14  C   UNL     1      45.013   8.361  12.274  0.00  0.00    +0.000 A 
ATOM     15  C   UNL     1      45.966   9.346  12.148  0.00  0.00    +0.000 A 
ATOM     16  C   UNL     1      47.226   8.692  12.172  0.00  0.00    +0.000 A 
ATOM     17  C   UNL     1      48.522   9.068  11.789  0.00  0.00    +0.000 A 
ATOM     18  F   UNL     1      48.740  10.248  11.185  0.00  0.00    +0.000 F 
ATOM     19  C   UNL     1      49.585   8.177  11.944  0.00  0.00    +0.000 A 
ATOM     20  C   UNL     1      49.373   6.949  12.561  0.00  0.00    +0.000 A 
ATOM     21  C   UNL     1      48.084   6.538  12.938  0.00  0.00    +0.000 A 
ATOM     22  C   UNL     1      47.010   7.399  12.652  0.00  0.00    +0.000 A 
ENDBRANCH  12  13
ENDBRANCH   4  12
TORSDOF 5
ENDMDL
MODEL 6
REMARK VINA RESULT:    -5.744      2.982      6.891
REMARK INTER + INTRA:          -7.915
REMARK INTER:                  -8.146
REMARK INTRA:                   0.231
REMARK UNBOUND:                -0.660
REMARK  Name = 
REMARK  5 active torsions:
REMARK  status: ('A' for Active; 'I' for Inactive)
REMARK    1  A    between atoms: N_1  and  C_2
REMARK    2  A    between atoms: C_2  and  C_3
REMARK    3  A    between atoms: C_3  and  C_4
REMARK    4  A    between atoms: C_7  and  C_8
REMARK    5  A    between atoms: C_8  and  N_9
REMARK                            x       y       z     vdW  Elec       q    Type
REMARK                         _______ _______ _______ _____ _____    ______ ____
ROOT
ATOM      1  C   UNL     1      47.664   5.387  15.137  0.00  0.00    +0.000 A 
ATOM      2  C   UNL     1      47.888   6.562  14.426  0.00  0.00    +0.000 A 
ATOM      3  C   UNL     1      47.205   6.825  13.230  0.00  0.00    +0.000 A 
ATOM      4  C   UNL     1      46.284   5.910  12.709  0.00  0.00    +0.000 A 
ATOM      5  C   UNL     1      46.080   4.718  13.409  0.00  0.00    +0.000 A 
ATOM      6  C   UNL     1      46.752   4.451  14.594  0.00  0.00    +0.000 A 
ENDROOT
BRANCH   1   7
ATOM      7  C   UNL     1      48.400   5.012  16.411  0.00  0.00    +0.000 C 
BRANCH   7   8
ATOM      8  C   UNL     1      47.669   4.091  17.394  0.00  0.00    +0.000 C 
BRANCH   8   9
ATOM      9  N   UNL     1      47.392   4.789  18.652  0.00  0.00    +0.000 NA
ATOM     10  H   UNL     1      47.444   4.128  19.427  0.00  0.00    +0.000 HD
ATOM     11  H   UNL     1      46.435   5.141  18.645  0.00  0.00    +0.000 HD
ENDBRANCH   8   9
ENDBRANCH   7   8
ENDBRANCH   1   7
BRANCH   4  12
ATOM     12  C   UNL     1      45.490   6.206  11.453  0.00  0.00    +0.000 C 
BRANCH  12  13
ATOM     13  N   UNL     1      44.867   5.027  10.869  0.00  0.00    +0.000 N 
ATOM     14  C   UNL     1      44.064   4.162  11.583  0.00  0.00    +0.000 A 
ATOM     15  C   UNL     1      43.748   3.097  10.770  0.00  0.00    +0.000 A 
ATOM     16  C   UNL     1      44.638   3.157   9.665  0.00  0.00    +0.000 A 
ATOM     17  C   UNL     1      45.034   2.232   8.688  0.00  0.00    +0.000 A 
ATOM     18  F   UNL     1      44.613   0.958   8.743  0.00  0.00    +0.000 F 
ATOM     19  C   UNL     1      45.950   2.603   7.702  0.00  0.00    +0.000 A 
ATOM     20  C   UNL     1      46.402   3.918   7.638  0.00  0.00    +0.000 A 
ATOM     21  C   UNL     1      46.036   4.860   8.613  0.00  0.00    +0.000 A 
ATOM     22  C   UNL     1      45.216   4.428   9.670  0.00  0.00    +0.000 A 
ENDBRANCH  12  13
ENDBRANCH   4  12
TORSDOF 5
ENDMDL
MODEL 7
REMARK VINA RESULT:    -5.671      3.168      6.439
REMARK INTER + INTRA:          -7.823
REMARK INTER:                  -7.130
REMARK INTRA:                  -0.693
REMARK UNBOUND:                -0.660
REMARK  Name = 
REMARK  5 active torsions:
REMARK  status: ('A' for Active; 'I' for Inactive)
REMARK    1  A    between atoms: N_1  and  C_2
REMARK    2  A    between atoms: C_2  and  C_3
REMARK    3  A    between atoms: C_3  and  C_4
REMARK    4  A    between atoms: C_7  and  C_8
REMARK    5  A    between atoms: C_8  and  N_9
REMARK                            x       y       z     vdW  Elec       q    Type
REMARK                         _______ _______ _______ _____ _____    ______ ____
ROOT
ATOM      1  C   UNL     1      48.436   7.554  14.042  0.00  0.00    +0.000 A 
ATOM      2  C   UNL     1      47.462   8.547  14.113  0.00  0.00    +0.000 A 
ATOM      3  C   UNL     1      46.354   8.534  13.253  0.00  0.00    +0.000 A 
ATOM      4  C   UNL     1      46.197   7.530  12.292  0.00  0.00    +0.000 A 
ATOM      5  C   UNL     1      47.189   6.550  12.203  0.00  0.00    +0.000 A 
ATOM      6  C   UNL     1      48.289   6.554  13.051  0.00  0.00    +0.000 A 
ENDROOT
BRANCH   1   7
ATOM      7  C   UNL     1      49.685   7.528  14.904  0.00  0.00    +0.000 C 
BRANCH   7   8
ATOM      8  C   UNL     1      49.537   6.990  16.332  0.00  0.00    +0.000 C 
BRANCH   8   9
ATOM      9  N   UNL     1      49.440   5.528  16.329  0.00  0.00    +0.000 NA
ATOM     10  H   UNL     1      49.144   5.208  15.407  0.00  0.00    +0.000 HD
ATOM     11  H   UNL     1      48.711   5.232  16.979  0.00  0.00    +0.000 HD
ENDBRANCH   8   9
ENDBRANCH   7   8
ENDBRANCH   1   7
BRANCH   4  12
ATOM     12  C   UNL     1      44.975   7.465  11.400  0.00  0.00    +0.000 C 
BRANCH  12  13
ATOM     13  N   UNL     1      44.162   6.277  11.615  0.00  0.00    +0.000 N 
ATOM     14  C   UNL     1      43.513   6.008  12.800  0.00  0.00    +0.000 A 
ATOM     15  C   UNL     1      42.947   4.756  12.708  0.00  0.00    +0.000 A 
ATOM     16  C   UNL     1      43.539   4.130  11.579  0.00  0.00    +0.000 A 
ATOM     17  C   UNL     1      43.630   2.800  11.144  0.00  0.00    +0.000 A 
ATOM     18  F   UNL     1      43.165   1.798  11.909  0.00  0.00    +0.000 F 
ATOM     19  C   UNL     1      44.295   2.495   9.955  0.00  0.00    +0.000 A 
ATOM     20  C   UNL     1      44.789   3.521   9.157  0.00  0.00    +0.000 A 
ATOM     21  C   UNL     1      44.728   4.860   9.575  0.00  0.00    +0.000 A 
ATOM     22  C   UNL     1      44.171   5.130  10.838  0.00  0.00    +0.000 A 
ENDBRANCH  12  13
ENDBRANCH   4  12
TORSDOF 5
ENDMDL
MODEL 8
REMARK VINA RESULT:    -5.442      4.786      7.659
REMARK INTER + INTRA:          -7.534
REMARK INTER:                  -7.153
REMARK INTRA:                  -0.381
REMARK UNBOUND:                -0.660
REMARK  Name = 
REMARK  5 active torsions:
REMARK  status: ('A' for Active; 'I' for Inactive)
REMARK    1  A    between atoms: N_1  and  C_2
REMARK    2  A    between atoms: C_2  and  C_3
REMARK    3  A    between atoms: C_3  and  C_4
REMARK    4  A    between atoms: C_7  and  C_8
REMARK    5  A    between atoms: C_8  and  N_9
REMARK                            x       y       z     vdW  Elec       q    Type
REMARK                         _______ _______ _______ _____ _____    ______ ____
ROOT
ATOM      1  C   UNL     1      51.133   2.649  17.557  0.00  0.00    +0.000 A 
ATOM      2  C   UNL     1      50.202   1.825  16.932  0.00  0.00    +0.000 A 
ATOM      3  C   UNL     1      48.960   2.325  16.513  0.00  0.00    +0.000 A 
ATOM      4  C   UNL     1      48.615   3.665  16.719  0.00  0.00    +0.000 A 
ATOM      5  C   UNL     1      49.540   4.485  17.371  0.00  0.00    +0.000 A 
ATOM      6  C   UNL     1      50.771   3.997  17.789  0.00  0.00    +0.000 A 
ENDROOT
BRANCH   1   7
ATOM      7  C   UNL     1      52.475   2.169  18.081  0.00  0.00    +0.000 C 
BRANCH   7   8
ATOM      8  C   UNL     1      53.009   0.845  17.523  0.00  0.00    +0.000 C 
BRANCH   8   9
ATOM      9  N   UNL     1      52.661  -0.270  18.406  0.00  0.00    +0.000 NA
ATOM     10  H   UNL     1      53.176  -1.103  18.123  0.00  0.00    +0.000 HD
ATOM     11  H   UNL     1      51.673  -0.497  18.298  0.00  0.00    +0.000 HD
ENDBRANCH   8   9
ENDBRANCH   7   8
ENDBRANCH   1   7
BRANCH   4  12
ATOM     12  C   UNL     1      47.306   4.237  16.216  0.00  0.00    +0.000 C 
BRANCH  12  13
ATOM     13  N   UNL     1      47.428   4.933  14.943  0.00  0.00    +0.000 N 
ATOM     14  C   UNL     1      47.971   6.193  14.818  0.00  0.00    +0.000 A 
ATOM     15  C   UNL     1      47.817   6.602  13.512  0.00  0.00    +0.000 A 
ATOM     16  C   UNL     1      46.879   5.715  12.922  0.00  0.00    +0.000 A 
ATOM     17  C   UNL     1      46.086   5.770  11.765  0.00  0.00    +0.000 A 
ATOM     18  F   UNL     1      46.060   6.879  11.008  0.00  0.00    +0.000 F 
ATOM     19  C   UNL     1      45.241   4.707  11.444  0.00  0.00    +0.000 A 
ATOM     20  C   UNL     1      45.251   3.555  12.224  0.00  0.00    +0.000 A 
ATOM     21  C   UNL     1      46.021   3.479  13.396  0.00  0.00    +0.000 A 
ATOM     22  C   UNL     1      46.764   4.612  13.770  0.00  0.00    +0.000 A 
ENDBRANCH  12  13
ENDBRANCH   4  12
TORSDOF 5
ENDMDL
MODEL 9
REMARK VINA RESULT:    -5.147      3.380      5.408
REMARK INTER + INTRA:          -7.160
REMARK INTER:                  -6.591
REMARK INTRA:                  -0.570
REMARK UNBOUND:                -0.660
REMARK  Name = 
REMARK  5 active torsions:
REMARK  status: ('A' for Active; 'I' for Inactive)
REMARK    1  A    between atoms: N_1  and  C_2
REMARK    2  A    between atoms: C_2  and  C_3
REMARK    3  A    between atoms: C_3  and  C_4
REMARK    4  A    between atoms: C_7  and  C_8
REMARK    5  A    between atoms: C_8  and  N_9
REMARK                            x       y       z     vdW  Elec       q    Type
REMARK                         _______ _______ _______ _____ _____    ______ ____
ROOT
ATOM      1  C   UNL     1      45.036   5.046  11.714  0.00  0.00    +0.000 A 
ATOM      2  C   UNL     1      45.682   6.128  11.123  0.00  0.00    +0.000 A 
ATOM      3  C   UNL     1      46.845   6.673  11.689  0.00  0.00    +0.000 A 
ATOM      4  C   UNL     1      47.385   6.152  12.870  0.00  0.00    +0.000 A 
ATOM      5  C   UNL     1      46.720   5.083  13.477  0.00  0.00    +0.000 A 
ATOM      6  C   UNL     1      45.569   4.538  12.922  0.00  0.00    +0.000 A 
ENDROOT
BRANCH   1   7
ATOM      7  C   UNL     1      43.750   4.435  11.187  0.00  0.00    +0.000 C 
BRANCH   7   8
ATOM      8  C   UNL     1      43.804   2.970  10.742  0.00  0.00    +0.000 C 
BRANCH   8   9
ATOM      9  N   UNL     1      43.054   2.117  11.667  0.00  0.00    +0.000 NA
ATOM     10  H   UNL     1      42.808   2.651  12.500  0.00  0.00    +0.000 HD
ATOM     11  H   UNL     1      43.648   1.352  11.985  0.00  0.00    +0.000 HD
ENDBRANCH   8   9
ENDBRANCH   7   8
ENDBRANCH   1   7
BRANCH   4  12
ATOM     12  C   UNL     1      48.674   6.685  13.459  0.00  0.00    +0.000 C 
BRANCH  12  13
ATOM     13  N   UNL     1      48.486   7.405  14.711  0.00  0.00    +0.000 N 
ATOM     14  C   UNL     1      48.339   8.773  14.783  0.00  0.00    +0.000 A 
ATOM     15  C   UNL     1      48.311   9.135  16.111  0.00  0.00    +0.000 A 
ATOM     16  C   UNL     1      48.777   8.011  16.843  0.00  0.00    +0.000 A 
ATOM     17  C   UNL     1      49.266   7.836  18.146  0.00  0.00    +0.000 A 
ATOM     18  F   UNL     1      49.457   8.895  18.951  0.00  0.00    +0.000 F 
ATOM     19  C   UNL     1      49.653   6.570  18.586  0.00  0.00    +0.000 A 
ATOM     20  C   UNL     1      49.468   5.465  17.761  0.00  0.00    +0.000 A 
ATOM     21  C   UNL     1      48.998   5.612  16.446  0.00  0.00    +0.000 A 
ATOM     22  C   UNL     1      48.739   6.913  15.981  0.00  0.00    +0.000 A 
ENDBRANCH  12  13
ENDBRANCH   4  12
TORSDOF 5
ENDMDL
