MODEL 1
REMARK VINA RESULT:    -7.990      0.000      0.000
REMARK INTER + INTRA:         -11.699
REMARK INTER:                 -10.793
REMARK INTRA:                  -0.906
REMARK UNBOUND:                -0.906
REMARK  Name = 
REMARK  6 active torsions:
REMARK  status: ('A' for Active; 'I' for Inactive)
REMARK    1  A    between atoms: C_2  and  C_25
REMARK    2  A    between atoms: N_3  and  C_4
REMARK    3  A    between atoms: C_4  and  C_5
REMARK    4  A    between atoms: C_8  and  C_9
REMARK    5  A    between atoms: C_9  and  N_10
REMARK    6  A    between atoms: C_11  and  C_13
REMARK                            x       y       z     vdW  Elec       q    Type
REMARK                         _______ _______ _______ _____ _____    ______ ____
ROOT
ATOM      1  C   UNL     1      44.781   6.007  11.101  0.00  0.00    +0.000 A 
ATOM      2  C   UNL     1      44.402   7.308  11.420  0.00  0.00    +0.000 A 
ATOM      3  C   UNL     1      45.228   8.067  12.247  0.00  0.00    +0.000 A 
ATOM      4  C   UNL     1      46.407   7.513  12.752  0.00  0.00    +0.000 A 
ATOM      5  C   UNL     1      46.713   6.216  12.361  0.00  0.00    +0.000 A 
ATOM      6  N   UNL     1      45.940   5.455  11.549  0.00  0.00    +0.000 NA
ENDROOT
BRANCH   1   7
ATOM      7  C   UNL     1      43.931   5.176  10.168  0.00  0.00    +0.000 C 
BRANCH   7  10
ATOM      8  O   UNL     1      44.749   2.518  10.095  0.00  0.00    +0.000 OA
ATOM      9  C   UNL     1      45.069   3.248   9.160  0.00  0.00    +0.000 C 
ATOM     10  N   UNL     1      44.721   4.578   9.112  0.00  0.00    +0.000 N 
ATOM     11  H   UNL     1      44.750   5.075   8.235  0.00  0.00    +0.000 HD
BRANCH   9  12
ATOM     12  C   UNL     1      45.856   2.739   8.033  0.00  0.00    +0.000 A 
ATOM     13  C   UNL     1      46.410   1.411   7.990  0.00  0.00    +0.000 A 
ATOM     14  C   UNL     1      47.158   1.171   6.862  0.00  0.00    +0.000 A 
ATOM     15  S   UNL     1      47.195   2.525   5.826  0.00  0.00    +0.000 S 
ATOM     16  C   UNL     1      46.220   3.441   6.898  0.00  0.00    +0.000 A 
ENDBRANCH   9  12
ENDBRANCH   7  10
ENDBRANCH   1   7
BRANCH   4  17
ATOM     17  C   UNL     1      47.325   8.298  13.645  0.00  0.00    +0.000 C 
BRANCH  17  18
ATOM     18  N   UNL     1      47.693   7.550  14.818  0.00  0.00    +0.000 N 
ATOM     19  C   UNL     1      48.916   6.928  14.916  0.00  0.00    +0.000 C 
ATOM     20  O   UNL     1      49.764   7.018  14.033  0.00  0.00    +0.000 OA
ATOM     21  H   UNL     1      46.942   7.245  15.430  0.00  0.00    +0.000 HD
BRANCH  19  22
ATOM     22  C   UNL     1      49.185   6.207  16.168  0.00  0.00    +0.000 A 
ATOM     23  C   UNL     1      50.212   6.622  17.005  0.00  0.00    +0.000 A 
ATOM     24  S   UNL     1      50.348   5.697  18.432  0.00  0.00    +0.000 S 
ATOM     25  C   UNL     1      49.073   4.674  17.958  0.00  0.00    +0.000 A 
ATOM     26  N   UNL     1      48.686   3.626  18.733  0.00  0.00    +0.000 NA
ATOM     27  C   UNL     1      47.731   2.916  18.236  0.00  0.00    +0.000 A 
ATOM     28  N   UNL     1      47.117   3.164  17.034  0.00  0.00    +0.000 N 
ATOM     29  C   UNL     1      47.447   4.230  16.234  0.00  0.00    +0.000 A 
ATOM     30  O   UNL     1      46.840   4.463  15.194  0.00  0.00    +0.000 OA
ATOM     31  C   UNL     1      48.535   5.049  16.740  0.00  0.00    +0.000 A 
ATOM     32  H   UNL     1      46.364   2.579  16.707  0.00  0.00    +0.000 HD
ENDBRANCH  19  22
ENDBRANCH  17  18
ENDBRANCH   4  17
TORSDOF 6
ENDMDL
MODEL 2
REMARK VINA RESULT:    -7.397      1.141      1.210
REMARK INTER + INTRA:         -10.898
REMARK INTER:                  -9.973
REMARK INTRA:                  -0.924
REMARK UNBOUND:                -0.906
REMARK  Name = 
REMARK  6 active torsions:
REMARK  status: ('A' for Active; 'I' for Inactive)
REMARK    1  A    between atoms: C_2  and  C_25
REMARK    2  A    between atoms: N_3  and  C_4
REMARK    3  A    between atoms: C_4  and  C_5
REMARK    4  A    between atoms: C_8  and  C_9
REMARK    5  A    between atoms: C_9  and  N_10
REMARK    6  A    between atoms: C_11  and  C_13
REMARK                            x       y       z     vdW  Elec       q    Type
REMARK                         _______ _______ _______ _____ _____    ______ ____
ROOT
ATOM      1  C   UNL     1      45.039   6.048  11.395  0.00  0.00    +0.000 A 
ATOM      2  C   UNL     1      44.693   7.395  11.460  0.00  0.00    +0.000 A 
ATOM      3  C   UNL     1      45.482   8.258  12.218  0.00  0.00    +0.000 A 
ATOM      4  C   UNL     1      46.590   7.763  12.910  0.00  0.00    +0.000 A 
ATOM      5  C   UNL     1      46.870   6.410  12.768  0.00  0.00    +0.000 A 
ATOM      6  N   UNL     1      46.132   5.545  12.029  0.00  0.00    +0.000 NA
ENDROOT
BRANCH   1   7
ATOM      7  C   UNL     1      44.232   5.097  10.543  0.00  0.00    +0.000 C 
BRANCH   7  10
ATOM      8  O   UNL     1      44.271   2.408   9.832  0.00  0.00    +0.000 OA
ATOM      9  C   UNL     1      44.970   3.187   9.188  0.00  0.00    +0.000 C 
ATOM     10  N   UNL     1      45.026   4.531   9.472  0.00  0.00    +0.000 N 
ATOM     11  H   UNL     1      45.375   5.178   8.781  0.00  0.00    +0.000 HD
BRANCH   9  12
ATOM     12  C   UNL     1      45.801   2.720   8.075  0.00  0.00    +0.000 A 
ATOM     13  C   UNL     1      46.438   1.429   8.049  0.00  0.00    +0.000 A 
ATOM     14  C   UNL     1      47.213   1.228   6.932  0.00  0.00    +0.000 A 
ATOM     15  S   UNL     1      47.178   2.575   5.885  0.00  0.00    +0.000 S 
ATOM     16  C   UNL     1      46.134   3.435   6.939  0.00  0.00    +0.000 A 
ENDBRANCH   9  12
ENDBRANCH   7  10
ENDBRANCH   1   7
BRANCH   4  17
ATOM     17  C   UNL     1      47.466   8.660  13.737  0.00  0.00    +0.000 C 
BRANCH  17  18
ATOM     18  N   UNL     1      47.686   8.121  15.053  0.00  0.00    +0.000 N 
ATOM     19  C   UNL     1      48.892   8.275  15.698  0.00  0.00    +0.000 C 
ATOM     20  O   UNL     1      49.817   8.913  15.203  0.00  0.00    +0.000 OA
ATOM     21  H   UNL     1      47.058   7.387  15.366  0.00  0.00    +0.000 HD
BRANCH  19  22
ATOM     22  C   UNL     1      48.993   7.695  17.043  0.00  0.00    +0.000 A 
ATOM     23  C   UNL     1      49.321   8.499  18.126  0.00  0.00    +0.000 A 
ATOM     24  S   UNL     1      49.348   7.665  19.615  0.00  0.00    +0.000 S 
ATOM     25  C   UNL     1      48.975   6.187  18.858  0.00  0.00    +0.000 A 
ATOM     26  N   UNL     1      48.875   5.035  19.574  0.00  0.00    +0.000 NA
ATOM     27  C   UNL     1      48.620   3.987  18.868  0.00  0.00    +0.000 A 
ATOM     28  N   UNL     1      48.446   3.984  17.507  0.00  0.00    +0.000 N 
ATOM     29  C   UNL     1      48.500   5.125  16.746  0.00  0.00    +0.000 A 
ATOM     30  O   UNL     1      48.279   5.102  15.540  0.00  0.00    +0.000 OA
ATOM     31  C   UNL     1      48.807   6.333  17.493  0.00  0.00    +0.000 A 
ATOM     32  H   UNL     1      48.232   3.130  17.014  0.00  0.00    +0.000 HD
ENDBRANCH  19  22
ENDBRANCH  17  18
ENDBRANCH   4  17
TORSDOF 6
ENDMDL
MODEL 3
REMARK VINA RESULT:    -7.394      2.256      2.599
REMARK INTER + INTRA:         -10.894
REMARK INTER:                 -10.099
REMARK INTRA:                  -0.794
REMARK UNBOUND:                -0.906
REMARK  Name = 
REMARK  6 active torsions:
REMARK  status: ('A' for Active; 'I' for Inactive)
REMARK    1  A    between atoms: C_2  and  C_25
REMARK    2  A    between atoms: N_3  and  C_4
REMARK    3  A    between atoms: C_4  and  C_5
REMARK    4  A    between atoms: C_8  and  C_9
REMARK    5  A    between atoms: C_9  and  N_10
REMARK    6  A    between atoms: C_11  and  C_13
REMARK                            x       y       z     vdW  Elec       q    Type
REMARK                         _______ _______ _______ _____ _____    ______ ____
ROOT
ATOM      1  C   UNL     1      45.565   4.415  12.790  0.00  0.00    +0.000 A 
ATOM      2  C   UNL     1      45.662   5.742  12.377  0.00  0.00    +0.000 A 
ATOM      3  C   UNL     1      46.521   6.599  13.063  0.00  0.00    +0.000 A 
ATOM      4  C   UNL     1      47.254   6.125  14.153  0.00  0.00    +0.000 A 
ATOM      5  C   UNL     1      47.108   4.782  14.477  0.00  0.00    +0.000 A 
ATOM      6  N   UNL     1      46.293   3.918  13.824  0.00  0.00    +0.000 NA
ENDROOT
BRANCH   1   7
ATOM      7  C   UNL     1      44.679   3.450  12.037  0.00  0.00    +0.000 C 
BRANCH   7  10
ATOM      8  O   UNL     1      44.088   4.251   9.440  0.00  0.00    +0.000 OA
ATOM      9  C   UNL     1      44.972   3.413   9.600  0.00  0.00    +0.000 C 
ATOM     10  N   UNL     1      45.326   2.946  10.844  0.00  0.00    +0.000 N 
ATOM     11  H   UNL     1      46.213   2.484  10.974  0.00  0.00    +0.000 HD
BRANCH   9  12
ATOM     12  C   UNL     1      45.700   2.849   8.460  0.00  0.00    +0.000 A 
ATOM     13  C   UNL     1      46.008   3.597   7.269  0.00  0.00    +0.000 A 
ATOM     14  C   UNL     1      46.649   2.850   6.309  0.00  0.00    +0.000 A 
ATOM     15  S   UNL     1      46.909   1.244   6.824  0.00  0.00    +0.000 S 
ATOM     16  C   UNL     1      46.148   1.547   8.330  0.00  0.00    +0.000 A 
ENDBRANCH   9  12
ENDBRANCH   7  10
ENDBRANCH   1   7
BRANCH   4  17
ATOM     17  C   UNL     1      48.192   7.016  14.917  0.00  0.00    +0.000 C 
BRANCH  17  18
ATOM     18  N   UNL     1      49.300   6.278  15.462  0.00  0.00    +0.000 N 
ATOM     19  C   UNL     1      49.372   5.979  16.803  0.00  0.00    +0.000 C 
ATOM     20  O   UNL     1      48.479   6.288  17.586  0.00  0.00    +0.000 OA
ATOM     21  H   UNL     1      50.152   6.243  14.910  0.00  0.00    +0.000 HD
BRANCH  19  22
ATOM     22  C   UNL     1      50.543   5.208  17.239  0.00  0.00    +0.000 A 
ATOM     23  C   UNL     1      51.689   5.863  17.671  0.00  0.00    +0.000 A 
ATOM     24  S   UNL     1      52.930   4.809  18.181  0.00  0.00    +0.000 S 
ATOM     25  C   UNL     1      52.001   3.437  17.792  0.00  0.00    +0.000 A 
ATOM     26  N   UNL     1      52.496   2.181  17.962  0.00  0.00    +0.000 NA
ATOM     27  C   UNL     1      51.697   1.238  17.596  0.00  0.00    +0.000 A 
ATOM     28  N   UNL     1      50.440   1.433  17.083  0.00  0.00    +0.000 N 
ATOM     29  C   UNL     1      49.883   2.678  16.928  0.00  0.00    +0.000 A 
ATOM     30  O   UNL     1      48.734   2.820  16.523  0.00  0.00    +0.000 OA
ATOM     31  C   UNL     1      50.753   3.778  17.305  0.00  0.00    +0.000 A 
ATOM     32  H   UNL     1      49.856   0.650  16.829  0.00  0.00    +0.000 HD
ENDBRANCH  19  22
ENDBRANCH  17  18
ENDBRANCH   4  17
TORSDOF 6
ENDMDL
MODEL 4
REMARK VINA RESULT:    -7.219      1.180      1.411
REMARK INTER + INTRA:         -10.657
REMARK INTER:                  -9.650
REMARK INTRA:                  -1.006
REMARK UNBOUND:                -0.906
REMARK  Name = 
REMARK  6 active torsions:
REMARK  status: ('A' for Active; 'I' for Inactive)
REMARK    1  A    between atoms: C_2  and  C_25
REMARK    2  A    between atoms: N_3  and  C_4
REMARK    3  A    between atoms: C_4  and  C_5
REMARK    4  A    between atoms: C_8  and  C_9
REMARK    5  A    between atoms: C_9  and  N_10
REMARK    6  A    between atoms: C_11  and  C_13
REMARK                            x       y       z     vdW  Elec       q    Type
REMARK                         _______ _______ _______ _____ _____    ______ ____
ROOT
ATOM      1  C   UNL     1      44.982   5.977  11.251  0.00  0.00    +0.000 A 
ATOM      2  C   UNL     1      45.950   5.299  11.988  0.00  0.00    +0.000 A 
ATOM      3  C   UNL     1      46.728   6.014  12.897  0.00  0.00    +0.000 A 
ATOM      4  C   UNL     1      46.540   7.390  13.044  0.00  0.00    +0.000 A 
ATOM      5  C   UNL     1      45.536   7.975  12.283  0.00  0.00    +0.000 A 
ATOM      6  N   UNL     1      44.752   7.308  11.400  0.00  0.00    +0.000 NA
ENDROOT
BRANCH   1   7
ATOM      7  C   UNL     1      44.091   5.221  10.294  0.00  0.00    +0.000 C 
BRANCH   7  10
ATOM      8  O   UNL     1      44.773   2.531  10.101  0.00  0.00    +0.000 OA
ATOM      9  C   UNL     1      45.127   3.284   9.197  0.00  0.00    +0.000 C 
ATOM     10  N   UNL     1      44.847   4.630   9.210  0.00  0.00    +0.000 N 
ATOM     11  H   UNL     1      44.899   5.163   8.355  0.00  0.00    +0.000 HD
BRANCH   9  12
ATOM     12  C   UNL     1      45.885   2.786   8.046  0.00  0.00    +0.000 A 
ATOM     13  C   UNL     1      46.424   1.453   7.970  0.00  0.00    +0.000 A 
ATOM     14  C   UNL     1      47.146   1.224   6.822  0.00  0.00    +0.000 A 
ATOM     15  S   UNL     1      47.176   2.595   5.808  0.00  0.00    +0.000 S 
ATOM     16  C   UNL     1      46.234   3.503   6.916  0.00  0.00    +0.000 A 
ENDBRANCH   9  12
ENDBRANCH   7  10
ENDBRANCH   1   7
BRANCH   4  17
ATOM     17  C   UNL     1      47.356   8.197  14.014  0.00  0.00    +0.000 C 
BRANCH  17  18
ATOM     18  N   UNL     1      48.261   7.367  14.765  0.00  0.00    +0.000 N 
ATOM     19  C   UNL     1      48.690   7.730  16.021  0.00  0.00    +0.000 C 
ATOM     20  O   UNL     1      48.292   8.751  16.574  0.00  0.00    +0.000 OA
ATOM     21  H   UNL     1      48.798   6.677  14.248  0.00  0.00    +0.000 HD
BRANCH  19  22
ATOM     22  C   UNL     1      49.600   6.795  16.697  0.00  0.00    +0.000 A 
ATOM     23  C   UNL     1      50.827   7.238  17.173  0.00  0.00    +0.000 A 
ATOM     24  S   UNL     1      51.730   6.027  17.967  0.00  0.00    +0.000 S 
ATOM     25  C   UNL     1      50.537   4.854  17.656  0.00  0.00    +0.000 A 
ATOM     26  N   UNL     1      50.699   3.563  18.052  0.00  0.00    +0.000 NA
ATOM     27  C   UNL     1      49.733   2.776  17.721  0.00  0.00    +0.000 A 
ATOM     28  N   UNL     1      48.609   3.164  17.036  0.00  0.00    +0.000 N 
ATOM     29  C   UNL     1      48.382   4.461  16.648  0.00  0.00    +0.000 A 
ATOM     30  O   UNL     1      47.341   4.791  16.091  0.00  0.00    +0.000 OA
ATOM     31  C   UNL     1      49.454   5.384  16.978  0.00  0.00    +0.000 A 
ATOM     32  H   UNL     1      47.879   2.502  16.820  0.00  0.00    +0.000 HD
ENDBRANCH  19  22
ENDBRANCH  17  18
ENDBRANCH   4  17
TORSDOF 6
ENDMDL
MODEL 5
REMARK VINA RESULT:    -7.166      2.055      2.441
REMARK INTER + INTRA:         -10.585
REMARK INTER:                  -9.766
REMARK INTRA:                  -0.818
REMARK UNBOUND:                -0.906
REMARK  Name = 
REMARK  6 active torsions:
REMARK  status: ('A' for Active; 'I' for Inactive)
REMARK    1  A    between atoms: C_2  and  C_25
REMARK    2  A    between atoms: N_3  and  C_4
REMARK    3  A    between atoms: C_4  and  C_5
REMARK    4  A    between atoms: C_8  and  C_9
REMARK    5  A    between atoms: C_9  and  N_10
REMARK    6  A    between atoms: C_11  and  C_13
REMARK                            x       y       z     vdW  Elec       q    Type
REMARK                         _______ _______ _______ _____ _____    ______ ____
ROOT
ATOM      1  C   UNL     1      45.324   4.411  12.115  0.00  0.00    +0.000 A 
ATOM      2  C   UNL     1      45.537   5.661  11.539  0.00  0.00    +0.000 A 
ATOM      3  C   UNL     1      46.343   6.581  12.206  0.00  0.00    +0.000 A 
ATOM      4  C   UNL     1      46.910   6.247  13.438  0.00  0.00    +0.000 A 
ATOM      5  C   UNL     1      46.659   4.970  13.923  0.00  0.00    +0.000 A 
ATOM      6  N   UNL     1      45.892   4.046  13.295  0.00  0.00    +0.000 NA
ENDROOT
BRANCH   1   7
ATOM      7  C   UNL     1      44.495   3.374  11.393  0.00  0.00    +0.000 C 
BRANCH   7  10
ATOM      8  O   UNL     1      44.343   4.274   8.765  0.00  0.00    +0.000 OA
ATOM      9  C   UNL     1      45.079   3.321   9.009  0.00  0.00    +0.000 C 
ATOM     10  N   UNL     1      45.211   2.799  10.274  0.00  0.00    +0.000 N 
ATOM     11  H   UNL     1      46.005   2.218  10.498  0.00  0.00    +0.000 HD
BRANCH   9  12
ATOM     12  C   UNL     1      45.859   2.674   7.951  0.00  0.00    +0.000 A 
ATOM     13  C   UNL     1      46.329   1.315   8.033  0.00  0.00    +0.000 A 
ATOM     14  C   UNL     1      47.088   0.937   6.950  0.00  0.00    +0.000 A 
ATOM     15  S   UNL     1      47.236   2.196   5.809  0.00  0.00    +0.000 S 
ATOM     16  C   UNL     1      46.295   3.255   6.774  0.00  0.00    +0.000 A 
ENDBRANCH   9  12
ENDBRANCH   7  10
ENDBRANCH   1   7
BRANCH   4  17
ATOM     17  C   UNL     1      47.785   7.211  14.188  0.00  0.00    +0.000 C 
BRANCH  17  18
ATOM     18  N   UNL     1      48.155   6.697  15.480  0.00  0.00    +0.000 N 
ATOM     19  C   UNL     1      49.473   6.598  15.862  0.00  0.00    +0.000 C 
ATOM     20  O   UNL     1      50.389   6.982  15.141  0.00  0.00    +0.000 OA
ATOM     21  H   UNL     1      47.462   6.143  15.977  0.00  0.00    +0.000 HD
BRANCH  19  22
ATOM     22  C   UNL     1      49.725   6.074  17.211  0.00  0.00    +0.000 A 
ATOM     23  C   UNL     1      50.518   4.946  17.383  0.00  0.00    +0.000 A 
ATOM     24  S   UNL     1      50.738   4.508  19.018  0.00  0.00    +0.000 S 
ATOM     25  C   UNL     1      49.738   5.777  19.552  0.00  0.00    +0.000 A 
ATOM     26  N   UNL     1      49.476   5.958  20.874  0.00  0.00    +0.000 NA
ATOM     27  C   UNL     1      48.677   6.936  21.132  0.00  0.00    +0.000 A 
ATOM     28  N   UNL     1      48.122   7.762  20.188  0.00  0.00    +0.000 N 
ATOM     29  C   UNL     1      48.386   7.644  18.846  0.00  0.00    +0.000 A 
ATOM     30  O   UNL     1      47.924   8.434  18.030  0.00  0.00    +0.000 OA
ATOM     31  C   UNL     1      49.264   6.540  18.500  0.00  0.00    +0.000 A 
ATOM     32  H   UNL     1      47.516   8.522  20.456  0.00  0.00    +0.000 HD
ENDBRANCH  19  22
ENDBRANCH  17  18
ENDBRANCH   4  17
TORSDOF 6
ENDMDL
MODEL 6
REMARK VINA RESULT:    -7.135      4.753      9.212
REMARK INTER + INTRA:         -10.543
REMARK INTER:                  -9.781
REMARK INTRA:                  -0.762
REMARK UNBOUND:                -0.906
REMARK  Name = 
REMARK  6 active torsions:
REMARK  status: ('A' for Active; 'I' for Inactive)
REMARK    1  A    between atoms: C_2  and  C_25
REMARK    2  A    between atoms: N_3  and  C_4
REMARK    3  A    between atoms: C_4  and  C_5
REMARK    4  A    between atoms: C_8  and  C_9
REMARK    5  A    between atoms: C_9  and  N_10
REMARK    6  A    between atoms: C_11  and  C_13
REMARK                            x       y       z     vdW  Elec       q    Type
REMARK                         _______ _______ _______ _____ _____    ______ ____
ROOT
ATOM      1  C   UNL     1      51.307   3.195  17.724  0.00  0.00    +0.000 A 
ATOM      2  C   UNL     1      50.646   4.377  18.050  0.00  0.00    +0.000 A 
ATOM      3  C   UNL     1      49.277   4.472  17.809  0.00  0.00    +0.000 A 
ATOM      4  C   UNL     1      48.594   3.397  17.237  0.00  0.00    +0.000 A 
ATOM      5  C   UNL     1      49.332   2.252  16.966  0.00  0.00    +0.000 A 
ATOM      6  N   UNL     1      50.661   2.121  17.199  0.00  0.00    +0.000 NA
ENDROOT
BRANCH   1   7
ATOM      7  C   UNL     1      52.782   3.045  18.016  0.00  0.00    +0.000 C 
BRANCH   7  10
ATOM      8  O   UNL     1      54.284   1.244  19.513  0.00  0.00    +0.000 OA
ATOM      9  C   UNL     1      54.025   0.954  18.348  0.00  0.00    +0.000 C 
ATOM     10  N   UNL     1      53.299   1.784  17.526  0.00  0.00    +0.000 N 
ATOM     11  H   UNL     1      52.872   1.417  16.690  0.00  0.00    +0.000 HD
BRANCH   9  12
ATOM     12  C   UNL     1      54.489  -0.304  17.757  0.00  0.00    +0.000 A 
ATOM     13  C   UNL     1      54.712  -0.482  16.345  0.00  0.00    +0.000 A 
ATOM     14  C   UNL     1      55.092  -1.760  16.012  0.00  0.00    +0.000 A 
ATOM     15  S   UNL     1      55.207  -2.766  17.384  0.00  0.00    +0.000 S 
ATOM     16  C   UNL     1      54.730  -1.491  18.426  0.00  0.00    +0.000 A 
ENDBRANCH   9  12
ENDBRANCH   7  10
ENDBRANCH   1   7
BRANCH   4  17
ATOM     17  C   UNL     1      47.118   3.459  16.963  0.00  0.00    +0.000 C 
BRANCH  17  18
ATOM     18  N   UNL     1      46.806   4.429  15.947  0.00  0.00    +0.000 N 
ATOM     19  C   UNL     1      46.955   4.139  14.610  0.00  0.00    +0.000 C 
ATOM     20  O   UNL     1      47.316   3.033  14.221  0.00  0.00    +0.000 OA
ATOM     21  H   UNL     1      46.763   5.403  16.231  0.00  0.00    +0.000 HD
BRANCH  19  22
ATOM     22  C   UNL     1      46.590   5.204  13.666  0.00  0.00    +0.000 A 
ATOM     23  C   UNL     1      47.490   6.222  13.381  0.00  0.00    +0.000 A 
ATOM     24  S   UNL     1      46.914   7.344  12.231  0.00  0.00    +0.000 S 
ATOM     25  C   UNL     1      45.419   6.540  12.113  0.00  0.00    +0.000 A 
ATOM     26  N   UNL     1      44.432   7.007  11.302  0.00  0.00    +0.000 NA
ATOM     27  C   UNL     1      43.342   6.318  11.336  0.00  0.00    +0.000 A 
ATOM     28  N   UNL     1      43.150   5.195  12.100  0.00  0.00    +0.000 N 
ATOM     29  C   UNL     1      44.128   4.664  12.904  0.00  0.00    +0.000 A 
ATOM     30  O   UNL     1      43.949   3.624  13.529  0.00  0.00    +0.000 OA
ATOM     31  C   UNL     1      45.370   5.417  12.919  0.00  0.00    +0.000 A 
ATOM     32  H   UNL     1      42.277   4.691  12.070  0.00  0.00    +0.000 HD
ENDBRANCH  19  22
ENDBRANCH  17  18
ENDBRANCH   4  17
TORSDOF 6
ENDMDL
MODEL 7
REMARK VINA RESULT:    -7.020      3.762      4.976
REMARK INTER + INTRA:         -10.389
REMARK INTER:                  -9.658
REMARK INTRA:                  -0.731
REMARK UNBOUND:                -0.906
REMARK  Name = 
REMARK  6 active torsions:
REMARK  status: ('A' for Active; 'I' for Inactive)
REMARK    1  A    between atoms: C_2  and  C_25
REMARK    2  A    between atoms: N_3  and  C_4
REMARK    3  A    between atoms: C_4  and  C_5
REMARK    4  A    between atoms: C_8  and  C_9
REMARK    5  A    between atoms: C_9  and  N_10
REMARK    6  A    between atoms: C_11  and  C_13
REMARK                            x       y       z     vdW  Elec       q    Type
REMARK                         _______ _______ _______ _____ _____    ______ ____
ROOT
ATOM      1  C   UNL     1      44.412   4.680  11.707  0.00  0.00    +0.000 A 
ATOM      2  C   UNL     1      43.641   5.752  11.263  0.00  0.00    +0.000 A 
ATOM      3  C   UNL     1      44.003   7.044  11.639  0.00  0.00    +0.000 A 
ATOM      4  C   UNL     1      45.115   7.245  12.460  0.00  0.00    +0.000 A 
ATOM      5  C   UNL     1      45.836   6.118  12.835  0.00  0.00    +0.000 A 
ATOM      6  N   UNL     1      45.520   4.849  12.477  0.00  0.00    +0.000 NA
ENDROOT
BRANCH   1   7
ATOM      7  C   UNL     1      44.073   3.272  11.277  0.00  0.00    +0.000 C 
BRANCH   7  10
ATOM      8  O   UNL     1      44.119   4.032   8.601  0.00  0.00    +0.000 OA
ATOM      9  C   UNL     1      44.956   3.219   8.986  0.00  0.00    +0.000 C 
ATOM     10  N   UNL     1      45.006   2.775  10.287  0.00  0.00    +0.000 N 
ATOM     11  H   UNL     1      45.844   2.338  10.638  0.00  0.00    +0.000 HD
BRANCH   9  12
ATOM     12  C   UNL     1      45.955   2.664   8.069  0.00  0.00    +0.000 A 
ATOM     13  C   UNL     1      46.323   1.272   8.047  0.00  0.00    +0.000 A 
ATOM     14  C   UNL     1      47.319   0.987   7.144  0.00  0.00    +0.000 A 
ATOM     15  S   UNL     1      47.819   2.379   6.293  0.00  0.00    +0.000 S 
ATOM     16  C   UNL     1      46.710   3.367   7.148  0.00  0.00    +0.000 A 
ENDBRANCH   9  12
ENDBRANCH   7  10
ENDBRANCH   1   7
BRANCH   4  17
ATOM     17  C   UNL     1      45.539   8.622  12.887  0.00  0.00    +0.000 C 
BRANCH  17  18
ATOM     18  N   UNL     1      46.736   9.042  12.209  0.00  0.00    +0.000 N 
ATOM     19  C   UNL     1      47.855   9.435  12.907  0.00  0.00    +0.000 C 
ATOM     20  O   UNL     1      47.900   9.403  14.133  0.00  0.00    +0.000 OA
ATOM     21  H   UNL     1      46.647   9.324  11.237  0.00  0.00    +0.000 HD
BRANCH  19  22
ATOM     22  C   UNL     1      49.022   9.827  12.105  0.00  0.00    +0.000 A 
ATOM     23  C   UNL     1      49.203  11.155  11.743  0.00  0.00    +0.000 A 
ATOM     24  S   UNL     1      50.633  11.433  10.853  0.00  0.00    +0.000 S 
ATOM     25  C   UNL     1      51.034   9.780  10.874  0.00  0.00    +0.000 A 
ATOM     26  N   UNL     1      52.153   9.319  10.252  0.00  0.00    +0.000 NA
ATOM     27  C   UNL     1      52.315   8.042  10.321  0.00  0.00    +0.000 A 
ATOM     28  N   UNL     1      51.465   7.179  10.965  0.00  0.00    +0.000 N 
ATOM     29  C   UNL     1      50.345   7.600  11.639  0.00  0.00    +0.000 A 
ATOM     30  O   UNL     1      49.637   6.813  12.257  0.00  0.00    +0.000 OA
ATOM     31  C   UNL     1      50.104   9.030  11.572  0.00  0.00    +0.000 A 
ATOM     32  H   UNL     1      51.657   6.189  10.996  0.00  0.00    +0.000 HD
ENDBRANCH  19  22
ENDBRANCH  17  18
ENDBRANCH   4  17
TORSDOF 6
ENDMDL
MODEL 8
REMARK VINA RESULT:    -6.864      2.636      3.257
REMARK INTER + INTRA:         -10.178
REMARK INTER:                  -9.220
REMARK INTRA:                  -0.958
REMARK UNBOUND:                -0.906
REMARK  Name = 
REMARK  6 active torsions:
REMARK  status: ('A' for Active; 'I' for Inactive)
REMARK    1  A    between atoms: C_2  and  C_25
REMARK    2  A    between atoms: N_3  and  C_4
REMARK    3  A    between atoms: C_4  and  C_5
REMARK    4  A    between atoms: C_8  and  C_9
REMARK    5  A    between atoms: C_9  and  N_10
REMARK    6  A    between atoms: C_11  and  C_13
REMARK                            x       y       z     vdW  Elec       q    Type
REMARK                         _______ _______ _______ _____ _____    ______ ____
ROOT
ATOM      1  C   UNL     1      45.354   4.770  12.154  0.00  0.00    +0.000 A 
ATOM      2  C   UNL     1      45.837   5.932  12.753  0.00  0.00    +0.000 A 
ATOM      3  C   UNL     1      46.604   5.824  13.911  0.00  0.00    +0.000 A 
ATOM      4  C   UNL     1      46.864   4.567  14.460  0.00  0.00    +0.000 A 
ATOM      5  C   UNL     1      46.360   3.464  13.782  0.00  0.00    +0.000 A 
ATOM      6  N   UNL     1      45.622   3.532  12.647  0.00  0.00    +0.000 NA
ENDROOT
BRANCH   1   7
ATOM      7  C   UNL     1      44.560   4.851  10.872  0.00  0.00    +0.000 C 
BRANCH   7  10
ATOM      8  O   UNL     1      44.082   2.399   9.648  0.00  0.00    +0.000 OA
ATOM      9  C   UNL     1      44.985   3.102   9.202  0.00  0.00    +0.000 C 
ATOM     10  N   UNL     1      45.304   4.324   9.747  0.00  0.00    +0.000 N 
ATOM     11  H   UNL     1      45.843   4.988   9.212  0.00  0.00    +0.000 HD
BRANCH   9  12
ATOM     12  C   UNL     1      45.790   2.669   8.056  0.00  0.00    +0.000 A 
ATOM     13  C   UNL     1      46.438   1.385   7.984  0.00  0.00    +0.000 A 
ATOM     14  C   UNL     1      47.184   1.217   6.842  0.00  0.00    +0.000 A 
ATOM     15  S   UNL     1      47.109   2.586   5.828  0.00  0.00    +0.000 S 
ATOM     16  C   UNL     1      46.087   3.413   6.928  0.00  0.00    +0.000 A 
ENDBRANCH   9  12
ENDBRANCH   7  10
ENDBRANCH   1   7
BRANCH   4  17
ATOM     17  C   UNL     1      47.688   4.408  15.707  0.00  0.00    +0.000 C 
BRANCH  17  18
ATOM     18  N   UNL     1      47.851   5.659  16.399  0.00  0.00    +0.000 N 
ATOM     19  C   UNL     1      49.094   6.116  16.771  0.00  0.00    +0.000 C 
ATOM     20  O   UNL     1      50.121   5.503  16.494  0.00  0.00    +0.000 OA
ATOM     21  H   UNL     1      47.032   6.045  16.862  0.00  0.00    +0.000 HD
BRANCH  19  22
ATOM     22  C   UNL     1      49.135   7.413  17.458  0.00  0.00    +0.000 A 
ATOM     23  C   UNL     1      49.827   8.478  16.896  0.00  0.00    +0.000 A 
ATOM     24  S   UNL     1      49.730   9.917  17.809  0.00  0.00    +0.000 S 
ATOM     25  C   UNL     1      48.804   9.154  19.016  0.00  0.00    +0.000 A 
ATOM     26  N   UNL     1      48.398   9.830  20.124  0.00  0.00    +0.000 NA
ATOM     27  C   UNL     1      47.733   9.120  20.970  0.00  0.00    +0.000 A 
ATOM     28  N   UNL     1      47.425   7.794  20.807  0.00  0.00    +0.000 N 
ATOM     29  C   UNL     1      47.779   7.078  19.689  0.00  0.00    +0.000 A 
ATOM     30  O   UNL     1      47.437   5.910  19.542  0.00  0.00    +0.000 OA
ATOM     31  C   UNL     1      48.551   7.828  18.714  0.00  0.00    +0.000 A 
ATOM     32  H   UNL     1      46.886   7.297  21.500  0.00  0.00    +0.000 HD
ENDBRANCH  19  22
ENDBRANCH  17  18
ENDBRANCH   4  17
TORSDOF 6
ENDMDL
MODEL 9
REMARK VINA RESULT:    -6.808      2.836      8.151
REMARK INTER + INTRA:         -10.102
REMARK INTER:                  -9.280
REMARK INTRA:                  -0.821
REMARK UNBOUND:                -0.906
REMARK  Name = 
REMARK  6 active torsions:
REMARK  status: ('A' for Active; 'I' for Inactive)
REMARK    1  A    between atoms: C_2  and  C_25
REMARK    2  A    between atoms: N_3  and  C_4
REMARK    3  A    between atoms: C_4  and  C_5
REMARK    4  A    between atoms: C_8  and  C_9
REMARK    5  A    between atoms: C_9  and  N_10
REMARK    6  A    between atoms: C_11  and  C_13
REMARK                            x       y       z     vdW  Elec       q    Type
REMARK                         _______ _______ _______ _____ _____    ______ ____
ROOT
ATOM      1  C   UNL     1      49.389   6.762  16.315  0.00  0.00    +0.000 A 
ATOM      2  C   UNL     1      49.735   8.028  15.848  0.00  0.00    +0.000 A 
ATOM      3  C   UNL     1      49.326   8.409  14.571  0.00  0.00    +0.000 A 
ATOM      4  C   UNL     1      48.595   7.521  13.779  0.00  0.00    +0.000 A 
ATOM      5  C   UNL     1      48.279   6.289  14.338  0.00  0.00    +0.000 A 
ATOM      6  N   UNL     1      48.649   5.891  15.580  0.00  0.00    +0.000 NA
ENDROOT
BRANCH   1   7
ATOM      7  C   UNL     1      49.777   6.338  17.713  0.00  0.00    +0.000 C 
BRANCH   7  10
ATOM      8  O   UNL     1      49.199   3.633  18.009  0.00  0.00    +0.000 OA
ATOM      9  C   UNL     1      50.371   3.959  17.841  0.00  0.00    +0.000 C 
ATOM     10  N   UNL     1      50.756   5.272  17.697  0.00  0.00    +0.000 N 
ATOM     11  H   UNL     1      51.654   5.491  17.294  0.00  0.00    +0.000 HD
BRANCH   9  12
ATOM     12  C   UNL     1      51.440   2.958  17.795  0.00  0.00    +0.000 A 
ATOM     13  C   UNL     1      51.229   1.593  17.387  0.00  0.00    +0.000 A 
ATOM     14  C   UNL     1      52.361   0.818  17.475  0.00  0.00    +0.000 A 
ATOM     15  S   UNL     1      53.702   1.716  18.029  0.00  0.00    +0.000 S 
ATOM     16  C   UNL     1      52.759   3.141  18.168  0.00  0.00    +0.000 A 
ENDBRANCH   9  12
ENDBRANCH   7  10
ENDBRANCH   1   7
BRANCH   4  17
ATOM     17  C   UNL     1      48.134   7.894  12.399  0.00  0.00    +0.000 C 
BRANCH  17  18
ATOM     18  N   UNL     1      47.455   6.803  11.753  0.00  0.00    +0.000 N 
ATOM     19  C   UNL     1      46.105   6.854  11.490  0.00  0.00    +0.000 C 
ATOM     20  O   UNL     1      45.429   7.844  11.753  0.00  0.00    +0.000 OA
ATOM     21  H   UNL     1      47.913   5.896  11.764  0.00  0.00    +0.000 HD
BRANCH  19  22
ATOM     22  C   UNL     1      45.526   5.687  10.812  0.00  0.00    +0.000 A 
ATOM     23  C   UNL     1      45.667   5.537   9.439  0.00  0.00    +0.000 A 
ATOM     24  S   UNL     1      44.971   4.102   8.831  0.00  0.00    +0.000 S 
ATOM     25  C   UNL     1      44.409   3.655  10.375  0.00  0.00    +0.000 A 
ATOM     26  N   UNL     1      43.690   2.515  10.559  0.00  0.00    +0.000 NA
ATOM     27  C   UNL     1      43.301   2.318  11.772  0.00  0.00    +0.000 A 
ATOM     28  N   UNL     1      43.573   3.153  12.826  0.00  0.00    +0.000 N 
ATOM     29  C   UNL     1      44.325   4.295  12.697  0.00  0.00    +0.000 A 
ATOM     30  O   UNL     1      44.604   4.991  13.668  0.00  0.00    +0.000 OA
ATOM     31  C   UNL     1      44.769   4.574  11.343  0.00  0.00    +0.000 A 
ATOM     32  H   UNL     1      43.253   2.934  13.757  0.00  0.00    +0.000 HD
ENDBRANCH  19  22
ENDBRANCH  17  18
ENDBRANCH   4  17
TORSDOF 6
ENDMDL
