MODEL 1
REMARK VINA RESULT:    -8.272      0.000      0.000
REMARK INTER + INTRA:         -11.963
REMARK INTER:                 -11.174
REMARK INTRA:                  -0.789
REMARK UNBOUND:                -0.789
REMARK  Name = 
REMARK  6 active torsions:
REMARK  status: ('A' for Active; 'I' for Inactive)
REMARK    1  A    between atoms: C_2  and  C_20
REMARK    2  A    between atoms: N_3  and  C_4
REMARK    3  A    between atoms: C_4  and  C_5
REMARK    4  A    between atoms: C_8  and  C_9
REMARK    5  A    between atoms: C_9  and  C_10
REMARK    6  A    between atoms: C_10  and  C_11
REMARK                            x       y       z     vdW  Elec       q    Type
REMARK                         _______ _______ _______ _____ _____    ______ ____
ROOT
ATOM      1  C   UNL     1      48.054   6.946  13.445  0.00  0.00    +0.000 C 
ENDROOT
BRANCH   1   2
ATOM      2  C   UNL     1      47.045   6.070  12.749  0.00  0.00    +0.000 A 
ATOM      3  C   UNL     1      46.416   6.517  11.582  0.00  0.00    +0.000 A 
ATOM      4  C   UNL     1      45.476   5.717  10.926  0.00  0.00    +0.000 A 
ATOM      5  C   UNL     1      45.142   4.450  11.425  0.00  0.00    +0.000 A 
ATOM      6  C   UNL     1      45.752   4.015  12.608  0.00  0.00    +0.000 A 
ATOM      7  C   UNL     1      46.689   4.819  13.268  0.00  0.00    +0.000 A 
BRANCH   5   8
ATOM      8  C   UNL     1      44.108   3.585  10.736  0.00  0.00    +0.000 C 
BRANCH   8   9
ATOM      9  C   UNL     1      44.727   2.585   9.763  0.00  0.00    +0.000 C 
BRANCH   9  10
ATOM     10  C   UNL     1      45.075   3.207   8.418  0.00  0.00    +0.000 C 
ATOM     11  O   UNL     1      44.539   4.232   8.007  0.00  0.00    +0.000 OA
ATOM     12  N   UNL     1      46.073   2.570   7.723  0.00  0.00    +0.000 N 
ATOM     13  C   UNL     1      46.651   3.087   6.517  0.00  0.00    +0.000 C 
ATOM     14  C   UNL     1      47.972   2.353   6.481  0.00  0.00    +0.000 C 
ATOM     15  O   UNL     1      47.759   1.112   7.185  0.00  0.00    +0.000 OA
ATOM     16  C   UNL     1      46.538   1.228   7.920  0.00  0.00    +0.000 C 
ENDBRANCH   9  10
ENDBRANCH   8   9
ENDBRANCH   5   8
ENDBRANCH   1   2
BRANCH   1  19
ATOM     17  O   UNL     1      50.177   6.740  15.296  0.00  0.00    +0.000 OA
ATOM     18  C   UNL     1      49.023   6.813  15.710  0.00  0.00    +0.000 C 
ATOM     19  N   UNL     1      47.935   6.855  14.876  0.00  0.00    +0.000 N 
ATOM     20  H   UNL     1      47.037   7.124  15.258  0.00  0.00    +0.000 HD
BRANCH  18  21
ATOM     21  C   UNL     1      48.721   6.797  17.145  0.00  0.00    +0.000 A 
ATOM     22  C   UNL     1      48.274   7.952  17.780  0.00  0.00    +0.000 A 
ATOM     23  S   UNL     1      47.986   7.737  19.448  0.00  0.00    +0.000 S 
ATOM     24  C   UNL     1      48.408   6.096  19.370  0.00  0.00    +0.000 A 
ATOM     25  N   UNL     1      48.354   5.298  20.479  0.00  0.00    +0.000 NA
ATOM     26  C   UNL     1      48.668   4.062  20.258  0.00  0.00    +0.000 A 
ATOM     27  N   UNL     1      49.037   3.551  19.042  0.00  0.00    +0.000 N 
ATOM     28  C   UNL     1      49.184   4.328  17.919  0.00  0.00    +0.000 A 
ATOM     29  O   UNL     1      49.658   3.868  16.890  0.00  0.00    +0.000 OA
ATOM     30  C   UNL     1      48.792   5.717  18.097  0.00  0.00    +0.000 A 
ATOM     31  H   UNL     1      49.306   2.584  18.948  0.00  0.00    +0.000 HD
ENDBRANCH  18  21
ENDBRANCH   1  19
TORSDOF 6
ENDMDL
MODEL 2
REMARK VINA RESULT:    -7.986      1.398      2.122
REMARK INTER + INTRA:         -11.576
REMARK INTER:                 -10.589
REMARK INTRA:                  -0.987
REMARK UNBOUND:                -0.789
REMARK  Name = 
REMARK  6 active torsions:
REMARK  status: ('A' for Active; 'I' for Inactive)
REMARK    1  A    between atoms: C_2  and  C_20
REMARK    2  A    between atoms: N_3  and  C_4
REMARK    3  A    between atoms: C_4  and  C_5
REMARK    4  A    between atoms: C_8  and  C_9
REMARK    5  A    between atoms: C_9  and  C_10
REMARK    6  A    between atoms: C_10  and  C_11
REMARK                            x       y       z     vdW  Elec       q    Type
REMARK                         _______ _______ _______ _____ _____    ______ ____
ROOT
ATOM      1  C   UNL     1      47.995   7.045  13.860  0.00  0.00    +0.000 C 
ENDROOT
BRANCH   1   2
ATOM      2  C   UNL     1      47.025   6.220  13.055  0.00  0.00    +0.000 A 
ATOM      3  C   UNL     1      46.685   6.609  11.755  0.00  0.00    +0.000 A 
ATOM      4  C   UNL     1      45.785   5.856  10.996  0.00  0.00    +0.000 A 
ATOM      5  C   UNL     1      45.203   4.695  11.522  0.00  0.00    +0.000 A 
ATOM      6  C   UNL     1      45.523   4.320  12.833  0.00  0.00    +0.000 A 
ATOM      7  C   UNL     1      46.420   5.079  13.595  0.00  0.00    +0.000 A 
BRANCH   5   8
ATOM      8  C   UNL     1      44.208   3.884  10.719  0.00  0.00    +0.000 C 
BRANCH   8   9
ATOM      9  C   UNL     1      44.877   2.832   9.837  0.00  0.00    +0.000 C 
BRANCH   9  10
ATOM     10  C   UNL     1      45.182   3.342   8.436  0.00  0.00    +0.000 C 
ATOM     11  O   UNL     1      44.702   4.381   7.994  0.00  0.00    +0.000 OA
ATOM     12  N   UNL     1      46.077   2.584   7.723  0.00  0.00    +0.000 N 
ATOM     13  C   UNL     1      46.611   2.978   6.452  0.00  0.00    +0.000 C 
ATOM     14  C   UNL     1      47.864   2.135   6.381  0.00  0.00    +0.000 C 
ATOM     15  O   UNL     1      47.602   0.961   7.176  0.00  0.00    +0.000 OA
ATOM     16  C   UNL     1      46.446   1.221   7.977  0.00  0.00    +0.000 C 
ENDBRANCH   9  10
ENDBRANCH   8   9
ENDBRANCH   5   8
ENDBRANCH   1   2
BRANCH   1  19
ATOM     17  O   UNL     1      50.200   6.519  15.545  0.00  0.00    +0.000 OA
ATOM     18  C   UNL     1      49.068   6.522  16.019  0.00  0.00    +0.000 C 
ATOM     19  N   UNL     1      47.943   6.709  15.258  0.00  0.00    +0.000 N 
ATOM     20  H   UNL     1      47.066   6.910  15.723  0.00  0.00    +0.000 HD
BRANCH  18  21
ATOM     21  C   UNL     1      48.832   6.259  17.442  0.00  0.00    +0.000 A 
ATOM     22  C   UNL     1      49.126   5.011  17.984  0.00  0.00    +0.000 A 
ATOM     23  S   UNL     1      48.774   4.897  19.649  0.00  0.00    +0.000 S 
ATOM     24  C   UNL     1      48.256   6.511  19.711  0.00  0.00    +0.000 A 
ATOM     25  N   UNL     1      47.833   7.074  20.883  0.00  0.00    +0.000 NA
ATOM     26  C   UNL     1      47.505   8.321  20.783  0.00  0.00    +0.000 A 
ATOM     27  N   UNL     1      47.551   9.056  19.629  0.00  0.00    +0.000 N 
ATOM     28  C   UNL     1      47.891   8.515  18.413  0.00  0.00    +0.000 A 
ATOM     29  O   UNL     1      47.777   9.159  17.380  0.00  0.00    +0.000 OA
ATOM     30  C   UNL     1      48.322   7.127  18.475  0.00  0.00    +0.000 A 
ATOM     31  H   UNL     1      47.245  10.016  19.613  0.00  0.00    +0.000 HD
ENDBRANCH  18  21
ENDBRANCH   1  19
TORSDOF 6
ENDMDL
MODEL 3
REMARK VINA RESULT:    -7.708      1.777      2.492
REMARK INTER + INTRA:         -11.201
REMARK INTER:                  -9.984
REMARK INTRA:                  -1.216
REMARK UNBOUND:                -0.789
REMARK  Name = 
REMARK  6 active torsions:
REMARK  status: ('A' for Active; 'I' for Inactive)
REMARK    1  A    between atoms: C_2  and  C_20
REMARK    2  A    between atoms: N_3  and  C_4
REMARK    3  A    between atoms: C_4  and  C_5
REMARK    4  A    between atoms: C_8  and  C_9
REMARK    5  A    between atoms: C_9  and  C_10
REMARK    6  A    between atoms: C_10  and  C_11
REMARK                            x       y       z     vdW  Elec       q    Type
REMARK                         _______ _______ _______ _____ _____    ______ ____
ROOT
ATOM      1  C   UNL     1      48.795   6.931  13.634  0.00  0.00    +0.000 C 
ENDROOT
BRANCH   1   2
ATOM      2  C   UNL     1      47.363   6.499  13.455  0.00  0.00    +0.000 A 
ATOM      3  C   UNL     1      46.984   5.188  13.763  0.00  0.00    +0.000 A 
ATOM      4  C   UNL     1      45.660   4.771  13.601  0.00  0.00    +0.000 A 
ATOM      5  C   UNL     1      44.684   5.657  13.124  0.00  0.00    +0.000 A 
ATOM      6  C   UNL     1      45.070   6.961  12.791  0.00  0.00    +0.000 A 
ATOM      7  C   UNL     1      46.398   7.377  12.947  0.00  0.00    +0.000 A 
BRANCH   5   8
ATOM      8  C   UNL     1      43.252   5.210  12.921  0.00  0.00    +0.000 C 
BRANCH   8   9
ATOM      9  C   UNL     1      42.921   4.932  11.456  0.00  0.00    +0.000 C 
BRANCH   9  10
ATOM     10  C   UNL     1      43.511   3.622  10.955  0.00  0.00    +0.000 C 
ATOM     11  O   UNL     1      43.186   2.532  11.417  0.00  0.00    +0.000 OA
ATOM     12  N   UNL     1      44.392   3.743   9.909  0.00  0.00    +0.000 N 
ATOM     13  C   UNL     1      44.932   2.621   9.197  0.00  0.00    +0.000 C 
ATOM     14  C   UNL     1      45.360   3.271   7.900  0.00  0.00    +0.000 C 
ATOM     15  O   UNL     1      45.649   4.648   8.217  0.00  0.00    +0.000 OA
ATOM     16  C   UNL     1      45.091   4.928   9.504  0.00  0.00    +0.000 C 
ENDBRANCH   9  10
ENDBRANCH   8   9
ENDBRANCH   5   8
ENDBRANCH   1   2
BRANCH   1  19
ATOM     17  O   UNL     1      48.161   8.719  15.727  0.00  0.00    +0.000 OA
ATOM     18  C   UNL     1      48.813   7.708  15.976  0.00  0.00    +0.000 C 
ATOM     19  N   UNL     1      49.212   6.824  15.007  0.00  0.00    +0.000 N 
ATOM     20  H   UNL     1      49.559   5.914  15.289  0.00  0.00    +0.000 HD
BRANCH  18  21
ATOM     21  C   UNL     1      49.271   7.407  17.336  0.00  0.00    +0.000 A 
ATOM     22  C   UNL     1      50.100   8.298  18.011  0.00  0.00    +0.000 A 
ATOM     23  S   UNL     1      50.533   7.767  19.573  0.00  0.00    +0.000 S 
ATOM     24  C   UNL     1      49.603   6.357  19.417  0.00  0.00    +0.000 A 
ATOM     25  N   UNL     1      49.516   5.450  20.436  0.00  0.00    +0.000 NA
ATOM     26  C   UNL     1      48.742   4.444  20.185  0.00  0.00    +0.000 A 
ATOM     27  N   UNL     1      48.055   4.254  19.016  0.00  0.00    +0.000 N 
ATOM     28  C   UNL     1      48.173   5.094  17.936  0.00  0.00    +0.000 A 
ATOM     29  O   UNL     1      47.665   4.815  16.859  0.00  0.00    +0.000 OA
ATOM     30  C   UNL     1      48.990   6.272  18.180  0.00  0.00    +0.000 A 
ATOM     31  H   UNL     1      47.496   3.427  18.872  0.00  0.00    +0.000 HD
ENDBRANCH  18  21
ENDBRANCH   1  19
TORSDOF 6
ENDMDL
MODEL 4
REMARK VINA RESULT:    -7.344      2.808      8.800
REMARK INTER + INTRA:         -10.709
REMARK INTER:                  -9.339
REMARK INTRA:                  -1.370
REMARK UNBOUND:                -0.789
REMARK  Name = 
REMARK  6 active torsions:
REMARK  status: ('A' for Active; 'I' for Inactive)
REMARK    1  A    between atoms: C_2  and  C_20
REMARK    2  A    between atoms: N_3  and  C_4
REMARK    3  A    between atoms: C_4  and  C_5
REMARK    4  A    between atoms: C_8  and  C_9
REMARK    5  A    between atoms: C_9  and  C_10
REMARK    6  A    between atoms: C_10  and  C_11
REMARK                            x       y       z     vdW  Elec       q    Type
REMARK                         _______ _______ _______ _____ _____    ______ ____
ROOT
ATOM      1  C   UNL     1      47.706   7.798  11.900  0.00  0.00    +0.000 C 
ENDROOT
BRANCH   1   2
ATOM      2  C   UNL     1      48.287   7.943  13.282  0.00  0.00    +0.000 A 
ATOM      3  C   UNL     1      47.713   8.837  14.193  0.00  0.00    +0.000 A 
ATOM      4  C   UNL     1      48.241   8.984  15.478  0.00  0.00    +0.000 A 
ATOM      5  C   UNL     1      49.358   8.240  15.883  0.00  0.00    +0.000 A 
ATOM      6  C   UNL     1      49.948   7.365  14.962  0.00  0.00    +0.000 A 
ATOM      7  C   UNL     1      49.423   7.222  13.672  0.00  0.00    +0.000 A 
BRANCH   5   8
ATOM      8  C   UNL     1      49.954   8.408  17.264  0.00  0.00    +0.000 C 
BRANCH   8   9
ATOM      9  C   UNL     1      50.036   7.094  18.037  0.00  0.00    +0.000 C 
BRANCH   9  10
ATOM     10  C   UNL     1      48.673   6.456  18.265  0.00  0.00    +0.000 C 
ATOM     11  O   UNL     1      47.757   7.043  18.834  0.00  0.00    +0.000 OA
ATOM     12  N   UNL     1      48.524   5.197  17.737  0.00  0.00    +0.000 N 
ATOM     13  C   UNL     1      47.274   4.495  17.709  0.00  0.00    +0.000 C 
ATOM     14  C   UNL     1      47.525   3.486  16.611  0.00  0.00    +0.000 C 
ATOM     15  O   UNL     1      48.948   3.252  16.600  0.00  0.00    +0.000 OA
ATOM     16  C   UNL     1      49.571   4.294  17.355  0.00  0.00    +0.000 C 
ENDBRANCH   9  10
ENDBRANCH   8   9
ENDBRANCH   5   8
ENDBRANCH   1   2
BRANCH   1  19
ATOM     17  O   UNL     1      44.893   7.549  11.945  0.00  0.00    +0.000 OA
ATOM     18  C   UNL     1      45.582   6.553  11.745  0.00  0.00    +0.000 C 
ATOM     19  N   UNL     1      46.953   6.580  11.767  0.00  0.00    +0.000 N 
ATOM     20  H   UNL     1      47.464   5.789  11.393  0.00  0.00    +0.000 HD
BRANCH  18  21
ATOM     21  C   UNL     1      44.979   5.234  11.527  0.00  0.00    +0.000 A 
ATOM     22  C   UNL     1      44.263   4.613  12.546  0.00  0.00    +0.000 A 
ATOM     23  S   UNL     1      43.648   3.084  12.106  0.00  0.00    +0.000 S 
ATOM     24  C   UNL     1      44.281   3.215  10.538  0.00  0.00    +0.000 A 
ATOM     25  N   UNL     1      44.088   2.228   9.612  0.00  0.00    +0.000 NA
ATOM     26  C   UNL     1      44.595   2.485   8.450  0.00  0.00    +0.000 A 
ATOM     27  N   UNL     1      45.282   3.625   8.127  0.00  0.00    +0.000 N 
ATOM     28  C   UNL     1      45.570   4.607   9.043  0.00  0.00    +0.000 A 
ATOM     29  O   UNL     1      46.311   5.537   8.760  0.00  0.00    +0.000 OA
ATOM     30  C   UNL     1      44.977   4.395  10.354  0.00  0.00    +0.000 A 
ATOM     31  H   UNL     1      45.684   3.745   7.211  0.00  0.00    +0.000 HD
ENDBRANCH  18  21
ENDBRANCH   1  19
TORSDOF 6
ENDMDL
MODEL 5
REMARK VINA RESULT:    -7.332      4.627      9.606
REMARK INTER + INTRA:         -10.693
REMARK INTER:                  -9.854
REMARK INTRA:                  -0.839
REMARK UNBOUND:                -0.789
REMARK  Name = 
REMARK  6 active torsions:
REMARK  status: ('A' for Active; 'I' for Inactive)
REMARK    1  A    between atoms: C_2  and  C_20
REMARK    2  A    between atoms: N_3  and  C_4
REMARK    3  A    between atoms: C_4  and  C_5
REMARK    4  A    between atoms: C_8  and  C_9
REMARK    5  A    between atoms: C_9  and  C_10
REMARK    6  A    between atoms: C_10  and  C_11
REMARK                            x       y       z     vdW  Elec       q    Type
REMARK                         _______ _______ _______ _____ _____    ______ ____
ROOT
ATOM      1  C   UNL     1      47.150   3.433  16.824  0.00  0.00    +0.000 C 
ENDROOT
BRANCH   1   2
ATOM      2  C   UNL     1      48.620   3.444  17.151  0.00  0.00    +0.000 A 
ATOM      3  C   UNL     1      49.369   2.266  17.048  0.00  0.00    +0.000 A 
ATOM      4  C   UNL     1      50.733   2.259  17.350  0.00  0.00    +0.000 A 
ATOM      5  C   UNL     1      51.381   3.431  17.764  0.00  0.00    +0.000 A 
ATOM      6  C   UNL     1      50.625   4.603  17.893  0.00  0.00    +0.000 A 
ATOM      7  C   UNL     1      49.257   4.609  17.597  0.00  0.00    +0.000 A 
BRANCH   5   8
ATOM      8  C   UNL     1      52.853   3.431  18.117  0.00  0.00    +0.000 C 
BRANCH   8   9
ATOM      9  C   UNL     1      53.583   2.191  17.605  0.00  0.00    +0.000 C 
BRANCH   9  10
ATOM     10  C   UNL     1      54.189   1.357  18.724  0.00  0.00    +0.000 C 
ATOM     11  O   UNL     1      54.275   1.765  19.879  0.00  0.00    +0.000 OA
ATOM     12  N   UNL     1      54.579   0.091  18.362  0.00  0.00    +0.000 N 
ATOM     13  C   UNL     1      55.024  -0.898  19.300  0.00  0.00    +0.000 C 
ATOM     14  C   UNL     1      54.807  -2.171  18.514  0.00  0.00    +0.000 C 
ATOM     15  O   UNL     1      54.920  -1.808  17.123  0.00  0.00    +0.000 OA
ATOM     16  C   UNL     1      54.834  -0.383  17.033  0.00  0.00    +0.000 C 
ENDBRANCH   9  10
ENDBRANCH   8   9
ENDBRANCH   5   8
ENDBRANCH   1   2
BRANCH   1  19
ATOM     17  O   UNL     1      47.150   3.014  14.031  0.00  0.00    +0.000 OA
ATOM     18  C   UNL     1      46.797   4.102  14.476  0.00  0.00    +0.000 C 
ATOM     19  N   UNL     1      46.826   4.404  15.813  0.00  0.00    +0.000 N 
ATOM     20  H   UNL     1      46.333   5.226  16.139  0.00  0.00    +0.000 HD
BRANCH  18  21
ATOM     21  C   UNL     1      46.374   5.192  13.590  0.00  0.00    +0.000 A 
ATOM     22  C   UNL     1      47.255   6.221  13.274  0.00  0.00    +0.000 A 
ATOM     23  S   UNL     1      46.578   7.398  12.241  0.00  0.00    +0.000 S 
ATOM     24  C   UNL     1      45.107   6.557  12.151  0.00  0.00    +0.000 A 
ATOM     25  N   UNL     1      44.071   7.023  11.389  0.00  0.00    +0.000 NA
ATOM     26  C   UNL     1      43.028   6.257  11.389  0.00  0.00    +0.000 A 
ATOM     27  N   UNL     1      42.917   5.081  12.081  0.00  0.00    +0.000 N 
ATOM     28  C   UNL     1      43.897   4.614  12.922  0.00  0.00    +0.000 A 
ATOM     29  O   UNL     1      43.706   3.641  13.638  0.00  0.00    +0.000 OA
ATOM     30  C   UNL     1      45.116   5.408  12.920  0.00  0.00    +0.000 A 
ATOM     31  H   UNL     1      42.060   4.550  12.066  0.00  0.00    +0.000 HD
ENDBRANCH  18  21
ENDBRANCH   1  19
TORSDOF 6
ENDMDL
MODEL 6
REMARK VINA RESULT:    -7.245      2.908      4.314
REMARK INTER + INTRA:         -10.575
REMARK INTER:                  -9.633
REMARK INTRA:                  -0.942
REMARK UNBOUND:                -0.789
REMARK  Name = 
REMARK  6 active torsions:
REMARK  status: ('A' for Active; 'I' for Inactive)
REMARK    1  A    between atoms: C_2  and  C_20
REMARK    2  A    between atoms: N_3  and  C_4
REMARK    3  A    between atoms: C_4  and  C_5
REMARK    4  A    between atoms: C_8  and  C_9
REMARK    5  A    between atoms: C_9  and  C_10
REMARK    6  A    between atoms: C_10  and  C_11
REMARK                            x       y       z     vdW  Elec       q    Type
REMARK                         _______ _______ _______ _____ _____    ______ ____
ROOT
ATOM      1  C   UNL     1      47.886   4.633  16.982  0.00  0.00    +0.000 C 
ENDROOT
BRANCH   1   2
ATOM      2  C   UNL     1      47.652   5.124  15.578  0.00  0.00    +0.000 A 
ATOM      3  C   UNL     1      48.279   6.291  15.130  0.00  0.00    +0.000 A 
ATOM      4  C   UNL     1      48.071   6.761  13.831  0.00  0.00    +0.000 A 
ATOM      5  C   UNL     1      47.227   6.073  12.948  0.00  0.00    +0.000 A 
ATOM      6  C   UNL     1      46.579   4.919  13.405  0.00  0.00    +0.000 A 
ATOM      7  C   UNL     1      46.782   4.452  14.709  0.00  0.00    +0.000 A 
BRANCH   5   8
ATOM      8  C   UNL     1      46.974   6.585  11.546  0.00  0.00    +0.000 C 
BRANCH   8   9
ATOM      9  C   UNL     1      45.587   6.218  11.023  0.00  0.00    +0.000 C 
BRANCH   9  10
ATOM     10  C   UNL     1      45.636   5.373   9.759  0.00  0.00    +0.000 C 
ATOM     11  O   UNL     1      46.318   5.681   8.785  0.00  0.00    +0.000 OA
ATOM     12  N   UNL     1      44.907   4.211   9.807  0.00  0.00    +0.000 N 
ATOM     13  C   UNL     1      44.949   3.208   8.783  0.00  0.00    +0.000 C 
ATOM     14  C   UNL     1      44.446   1.996   9.533  0.00  0.00    +0.000 C 
ATOM     15  O   UNL     1      43.593   2.499  10.581  0.00  0.00    +0.000 OA
ATOM     16  C   UNL     1      43.840   3.901  10.714  0.00  0.00    +0.000 C 
ENDBRANCH   9  10
ENDBRANCH   8   9
ENDBRANCH   5   8
ENDBRANCH   1   2
BRANCH   1  19
ATOM     17  O   UNL     1      49.290   4.883  19.420  0.00  0.00    +0.000 OA
ATOM     18  C   UNL     1      49.864   4.415  18.440  0.00  0.00    +0.000 C 
ATOM     19  N   UNL     1      49.271   4.317  17.208  0.00  0.00    +0.000 N 
ATOM     20  H   UNL     1      49.709   3.739  16.500  0.00  0.00    +0.000 HD
BRANCH  18  21
ATOM     21  C   UNL     1      51.264   3.982  18.506  0.00  0.00    +0.000 A 
ATOM     22  C   UNL     1      52.217   4.780  19.130  0.00  0.00    +0.000 A 
ATOM     23  S   UNL     1      53.786   4.112  19.096  0.00  0.00    +0.000 S 
ATOM     24  C   UNL     1      53.242   2.725  18.285  0.00  0.00    +0.000 A 
ATOM     25  N   UNL     1      54.101   1.711  17.963  0.00  0.00    +0.000 NA
ATOM     26  C   UNL     1      53.535   0.703  17.380  0.00  0.00    +0.000 A 
ATOM     27  N   UNL     1      52.202   0.615  17.083  0.00  0.00    +0.000 N 
ATOM     28  C   UNL     1      51.316   1.639  17.313  0.00  0.00    +0.000 A 
ATOM     29  O   UNL     1      50.166   1.586  16.900  0.00  0.00    +0.000 OA
ATOM     30  C   UNL     1      51.887   2.777  18.016  0.00  0.00    +0.000 A 
ATOM     31  H   UNL     1      51.832  -0.185  16.593  0.00  0.00    +0.000 HD
ENDBRANCH  18  21
ENDBRANCH   1  19
TORSDOF 6
ENDMDL
MODEL 7
REMARK VINA RESULT:    -6.913      4.900      8.214
REMARK INTER + INTRA:         -10.127
REMARK INTER:                  -9.231
REMARK INTRA:                  -0.896
REMARK UNBOUND:                -0.789
REMARK  Name = 
REMARK  6 active torsions:
REMARK  status: ('A' for Active; 'I' for Inactive)
REMARK    1  A    between atoms: C_2  and  C_20
REMARK    2  A    between atoms: N_3  and  C_4
REMARK    3  A    between atoms: C_4  and  C_5
REMARK    4  A    between atoms: C_8  and  C_9
REMARK    5  A    between atoms: C_9  and  C_10
REMARK    6  A    between atoms: C_10  and  C_11
REMARK                            x       y       z     vdW  Elec       q    Type
REMARK                         _______ _______ _______ _____ _____    ______ ____
ROOT
ATOM      1  C   UNL     1      46.379   7.963  13.110  0.00  0.00    +0.000 C 
ENDROOT
BRANCH   1   2
ATOM      2  C   UNL     1      47.733   8.222  12.502  0.00  0.00    +0.000 A 
ATOM      3  C   UNL     1      48.675   7.191  12.424  0.00  0.00    +0.000 A 
ATOM      4  C   UNL     1      49.936   7.416  11.865  0.00  0.00    +0.000 A 
ATOM      5  C   UNL     1      50.285   8.681  11.373  0.00  0.00    +0.000 A 
ATOM      6  C   UNL     1      49.351   9.720  11.476  0.00  0.00    +0.000 A 
ATOM      7  C   UNL     1      48.090   9.496  12.042  0.00  0.00    +0.000 A 
BRANCH   5   8
ATOM      8  C   UNL     1      51.656   8.944  10.787  0.00  0.00    +0.000 C 
BRANCH   8   9
ATOM      9  C   UNL     1      52.287   7.695  10.176  0.00  0.00    +0.000 C 
BRANCH   9  10
ATOM     10  C   UNL     1      53.441   8.014   9.237  0.00  0.00    +0.000 C 
ATOM     11  O   UNL     1      54.324   8.816   9.527  0.00  0.00    +0.000 OA
ATOM     12  N   UNL     1      53.454   7.298   8.066  0.00  0.00    +0.000 N 
ATOM     13  C   UNL     1      54.536   7.339   7.126  0.00  0.00    +0.000 C 
ATOM     14  C   UNL     1      54.316   6.052   6.364  0.00  0.00    +0.000 C 
ATOM     15  O   UNL     1      52.903   5.776   6.442  0.00  0.00    +0.000 OA
ATOM     16  C   UNL     1      52.350   6.600   7.472  0.00  0.00    +0.000 C 
ENDBRANCH   9  10
ENDBRANCH   8   9
ENDBRANCH   5   8
ENDBRANCH   1   2
BRANCH   1  19
ATOM     17  O   UNL     1      44.214   7.467  11.365  0.00  0.00    +0.000 OA
ATOM     18  C   UNL     1      44.842   6.519  11.828  0.00  0.00    +0.000 C 
ATOM     19  N   UNL     1      45.866   6.674  12.727  0.00  0.00    +0.000 N 
ATOM     20  H   UNL     1      46.479   5.888  12.910  0.00  0.00    +0.000 HD
BRANCH  18  21
ATOM     21  C   UNL     1      44.496   5.134  11.496  0.00  0.00    +0.000 A 
ATOM     22  C   UNL     1      43.710   4.380  12.363  0.00  0.00    +0.000 A 
ATOM     23  S   UNL     1      43.424   2.792  11.809  0.00  0.00    +0.000 S 
ATOM     24  C   UNL     1      44.303   3.068  10.384  0.00  0.00    +0.000 A 
ATOM     25  N   UNL     1      44.433   2.094   9.433  0.00  0.00    +0.000 NA
ATOM     26  C   UNL     1      45.098   2.462   8.386  0.00  0.00    +0.000 A 
ATOM     27  N   UNL     1      45.650   3.701   8.201  0.00  0.00    +0.000 N 
ATOM     28  C   UNL     1      45.615   4.684   9.160  0.00  0.00    +0.000 A 
ATOM     29  O   UNL     1      46.245   5.723   9.023  0.00  0.00    +0.000 OA
ATOM     30  C   UNL     1      44.834   4.344  10.338  0.00  0.00    +0.000 A 
ATOM     31  H   UNL     1      46.189   3.910   7.375  0.00  0.00    +0.000 HD
ENDBRANCH  18  21
ENDBRANCH   1  19
TORSDOF 6
ENDMDL
MODEL 8
REMARK VINA RESULT:    -6.849      3.687      8.509
REMARK INTER + INTRA:         -10.041
REMARK INTER:                  -8.805
REMARK INTRA:                  -1.235
REMARK UNBOUND:                -0.789
REMARK  Name = 
REMARK  6 active torsions:
REMARK  status: ('A' for Active; 'I' for Inactive)
REMARK    1  A    between atoms: C_2  and  C_20
REMARK    2  A    between atoms: N_3  and  C_4
REMARK    3  A    between atoms: C_4  and  C_5
REMARK    4  A    between atoms: C_8  and  C_9
REMARK    5  A    between atoms: C_9  and  C_10
REMARK    6  A    between atoms: C_10  and  C_11
REMARK                            x       y       z     vdW  Elec       q    Type
REMARK                         _______ _______ _______ _____ _____    ______ ____
ROOT
ATOM      1  C   UNL     1      48.370   8.386  14.460  0.00  0.00    +0.000 C 
ENDROOT
BRANCH   1   2
ATOM      2  C   UNL     1      49.084   7.857  15.676  0.00  0.00    +0.000 A 
ATOM      3  C   UNL     1      50.202   7.030  15.527  0.00  0.00    +0.000 A 
ATOM      4  C   UNL     1      50.875   6.529  16.646  0.00  0.00    +0.000 A 
ATOM      5  C   UNL     1      50.442   6.845  17.941  0.00  0.00    +0.000 A 
ATOM      6  C   UNL     1      49.307   7.652  18.089  0.00  0.00    +0.000 A 
ATOM      7  C   UNL     1      48.629   8.147  16.969  0.00  0.00    +0.000 A 
BRANCH   5   8
ATOM      8  C   UNL     1      51.147   6.290  19.160  0.00  0.00    +0.000 C 
BRANCH   8   9
ATOM      9  C   UNL     1      51.036   4.770  19.267  0.00  0.00    +0.000 C 
BRANCH   9  10
ATOM     10  C   UNL     1      49.602   4.274  19.159  0.00  0.00    +0.000 C 
ATOM     11  O   UNL     1      48.712   4.656  19.914  0.00  0.00    +0.000 OA
ATOM     12  N   UNL     1      49.362   3.409  18.120  0.00  0.00    +0.000 N 
ATOM     13  C   UNL     1      48.051   2.954  17.757  0.00  0.00    +0.000 C 
ATOM     14  C   UNL     1      48.275   2.515  16.327  0.00  0.00    +0.000 C 
ATOM     15  O   UNL     1      49.663   2.134  16.238  0.00  0.00    +0.000 OA
ATOM     16  C   UNL     1      50.334   2.646  17.393  0.00  0.00    +0.000 C 
ENDBRANCH   9  10
ENDBRANCH   8   9
ENDBRANCH   5   8
ENDBRANCH   1   2
BRANCH   1  19
ATOM     17  O   UNL     1      48.723   6.264  12.629  0.00  0.00    +0.000 OA
ATOM     18  C   UNL     1      47.625   6.432  13.152  0.00  0.00    +0.000 C 
ATOM     19  N   UNL     1      47.357   7.473  14.003  0.00  0.00    +0.000 N 
ATOM     20  H   UNL     1      46.512   7.442  14.561  0.00  0.00    +0.000 HD
BRANCH  18  21
ATOM     21  C   UNL     1      46.490   5.554  12.848  0.00  0.00    +0.000 A 
ATOM     22  C   UNL     1      46.558   4.194  13.132  0.00  0.00    +0.000 A 
ATOM     23  S   UNL     1      45.147   3.340  12.699  0.00  0.00    +0.000 S 
ATOM     24  C   UNL     1      44.386   4.756  12.155  0.00  0.00    +0.000 A 
ATOM     25  N   UNL     1      43.110   4.730  11.665  0.00  0.00    +0.000 NA
ATOM     26  C   UNL     1      42.650   5.890  11.324  0.00  0.00    +0.000 A 
ATOM     27  N   UNL     1      43.342   7.068  11.417  0.00  0.00    +0.000 N 
ATOM     28  C   UNL     1      44.652   7.134  11.827  0.00  0.00    +0.000 A 
ATOM     29  O   UNL     1      45.285   8.178  11.756  0.00  0.00    +0.000 OA
ATOM     30  C   UNL     1      45.204   5.865  12.274  0.00  0.00    +0.000 A 
ATOM     31  H   UNL     1      42.936   7.934  11.098  0.00  0.00    +0.000 HD
ENDBRANCH  18  21
ENDBRANCH   1  19
TORSDOF 6
ENDMDL
MODEL 9
REMARK VINA RESULT:    -6.819      4.131      9.858
REMARK INTER + INTRA:         -10.000
REMARK INTER:                  -9.080
REMARK INTRA:                  -0.919
REMARK UNBOUND:                -0.789
REMARK  Name = 
REMARK  6 active torsions:
REMARK  status: ('A' for Active; 'I' for Inactive)
REMARK    1  A    between atoms: C_2  and  C_20
REMARK    2  A    between atoms: N_3  and  C_4
REMARK    3  A    between atoms: C_4  and  C_5
REMARK    4  A    between atoms: C_8  and  C_9
REMARK    5  A    between atoms: C_9  and  C_10
REMARK    6  A    between atoms: C_10  and  C_11
REMARK                            x       y       z     vdW  Elec       q    Type
REMARK                         _______ _______ _______ _____ _____    ______ ____
ROOT
ATOM      1  C   UNL     1      47.194   3.400  16.858  0.00  0.00    +0.000 C 
ENDROOT
BRANCH   1   2
ATOM      2  C   UNL     1      48.672   3.382  17.144  0.00  0.00    +0.000 A 
ATOM      3  C   UNL     1      49.401   2.198  16.985  0.00  0.00    +0.000 A 
ATOM      4  C   UNL     1      50.773   2.164  17.247  0.00  0.00    +0.000 A 
ATOM      5  C   UNL     1      51.449   3.315  17.678  0.00  0.00    +0.000 A 
ATOM      6  C   UNL     1      50.713   4.492  17.862  0.00  0.00    +0.000 A 
ATOM      7  C   UNL     1      49.337   4.525  17.605  0.00  0.00    +0.000 A 
BRANCH   5   8
ATOM      8  C   UNL     1      52.930   3.284  17.989  0.00  0.00    +0.000 C 
BRANCH   8   9
ATOM      9  C   UNL     1      53.638   4.586  17.623  0.00  0.00    +0.000 C 
BRANCH   9  10
ATOM     10  C   UNL     1      54.228   5.299  18.831  0.00  0.00    +0.000 C 
ATOM     11  O   UNL     1      54.867   4.709  19.698  0.00  0.00    +0.000 OA
ATOM     12  N   UNL     1      54.042   6.659  18.853  0.00  0.00    +0.000 N 
ATOM     13  C   UNL     1      54.652   7.525  19.820  0.00  0.00    +0.000 C 
ATOM     14  C   UNL     1      54.580   8.858  19.111  0.00  0.00    +0.000 C 
ATOM     15  O   UNL     1      53.443   8.782  18.228  0.00  0.00    +0.000 OA
ATOM     16  C   UNL     1      53.068   7.407  18.111  0.00  0.00    +0.000 C 
ENDBRANCH   9  10
ENDBRANCH   8   9
ENDBRANCH   5   8
ENDBRANCH   1   2
BRANCH   1  19
ATOM     17  O   UNL     1      47.255   3.063  14.054  0.00  0.00    +0.000 OA
ATOM     18  C   UNL     1      46.862   4.127  14.524  0.00  0.00    +0.000 C 
ATOM     19  N   UNL     1      46.858   4.390  15.869  0.00  0.00    +0.000 N 
ATOM     20  H   UNL     1      46.335   5.188  16.210  0.00  0.00    +0.000 HD
BRANCH  18  21
ATOM     21  C   UNL     1      46.421   5.229  13.662  0.00  0.00    +0.000 A 
ATOM     22  C   UNL     1      47.257   6.317  13.433  0.00  0.00    +0.000 A 
ATOM     23  S   UNL     1      46.566   7.498  12.415  0.00  0.00    +0.000 S 
ATOM     24  C   UNL     1      45.151   6.584  12.216  0.00  0.00    +0.000 A 
ATOM     25  N   UNL     1      44.129   7.024  11.421  0.00  0.00    +0.000 NA
ATOM     26  C   UNL     1      43.133   6.204  11.336  0.00  0.00    +0.000 A 
ATOM     27  N   UNL     1      43.054   4.995  11.974  0.00  0.00    +0.000 N 
ATOM     28  C   UNL     1      44.017   4.546  12.845  0.00  0.00    +0.000 A 
ATOM     29  O   UNL     1      43.846   3.534  13.510  0.00  0.00    +0.000 OA
ATOM     30  C   UNL     1      45.187   5.405  12.937  0.00  0.00    +0.000 A 
ATOM     31  H   UNL     1      42.230   4.419  11.894  0.00  0.00    +0.000 HD
ENDBRANCH  18  21
ENDBRANCH   1  19
TORSDOF 6
ENDMDL
