MODEL 1
REMARK VINA RESULT:    -8.144      0.000      0.000
REMARK INTER + INTRA:         -11.758
REMARK INTER:                 -10.762
REMARK INTRA:                  -0.995
REMARK UNBOUND:                -0.995
REMARK  Name = 
REMARK  7 active torsions:
REMARK  status: ('A' for Active; 'I' for Inactive)
REMARK    1  A    between atoms: C_1  and  C_2
REMARK    2  A    between atoms: C_2  and  N_3
REMARK    3  A    between atoms: C_2  and  C_19
REMARK    4  A    between atoms: C_7  and  C_8
REMARK    5  A    between atoms: C_8  and  O_9
REMARK    6  A    between atoms: C_8  and  C_10
REMARK    7  A    between atoms: C_10  and  C_11
REMARK                            x       y       z     vdW  Elec       q    Type
REMARK                         _______ _______ _______ _____ _____    ______ ____
ROOT
ATOM      1  N   UNL     1      47.338   7.106  14.028  0.00  0.00    +0.000 N 
ATOM      2  C   UNL     1      46.684   6.239  13.154  0.00  0.00    +0.000 A 
ATOM      3  C   UNL     1      45.821   6.767  12.198  0.00  0.00    +0.000 A 
ATOM      4  C   UNL     1      45.037   5.913  11.418  0.00  0.00    +0.000 A 
ATOM      5  C   UNL     1      45.079   4.536  11.635  0.00  0.00    +0.000 A 
ATOM      6  C   UNL     1      45.991   4.097  12.586  0.00  0.00    +0.000 A 
ATOM      7  N   UNL     1      46.784   4.907  13.330  0.00  0.00    +0.000 NA
ATOM      8  H   UNL     1      47.433   8.054  13.663  0.00  0.00    +0.000 HD
ENDROOT
BRANCH   1  10
ATOM      9  C   UNL     1      49.769   7.392  14.023  0.00  0.00    +0.000 C 
ATOM     10  C   UNL     1      48.580   6.645  14.648  0.00  0.00    +0.000 C 
BRANCH  10  11
ATOM     11  C   UNL     1      48.623   6.777  16.166  0.00  0.00    +0.000 A 
ATOM     12  C   UNL     1      48.684   8.007  16.805  0.00  0.00    +0.000 A 
ATOM     13  S   UNL     1      48.786   7.887  18.502  0.00  0.00    +0.000 S 
ATOM     14  C   UNL     1      48.709   6.188  18.444  0.00  0.00    +0.000 A 
ATOM     15  N   UNL     1      48.740   5.448  19.585  0.00  0.00    +0.000 NA
ATOM     16  C   UNL     1      48.658   4.175  19.394  0.00  0.00    +0.000 A 
ATOM     17  N   UNL     1      48.543   3.573  18.167  0.00  0.00    +0.000 N 
ATOM     18  C   UNL     1      48.468   4.277  16.985  0.00  0.00    +0.000 A 
ATOM     19  O   UNL     1      48.266   3.706  15.917  0.00  0.00    +0.000 OA
ATOM     20  C   UNL     1      48.596   5.717  17.147  0.00  0.00    +0.000 A 
ATOM     21  H   UNL     1      48.447   2.571  18.095  0.00  0.00    +0.000 HD
ENDBRANCH  10  11
ENDBRANCH   1  10
BRANCH   5  22
ATOM     22  C   UNL     1      44.195   3.607  10.837  0.00  0.00    +0.000 C 
BRANCH  22  23
ATOM     23  O   UNL     1      42.877   3.693  11.376  0.00  0.00    +0.000 OA
ATOM     24  H   UNL     1      42.438   4.465  10.983  0.00  0.00    +0.000 HD
ENDBRANCH  22  23
BRANCH  22  25
ATOM     25  C   UNL     1      44.186   3.880   9.316  0.00  0.00    +0.000 C 
BRANCH  25  26
ATOM     26  C   UNL     1      45.261   3.126   8.570  0.00  0.00    +0.000 A 
ATOM     27  C   UNL     1      46.068   3.787   7.638  0.00  0.00    +0.000 A 
ATOM     28  C   UNL     1      47.025   3.061   6.948  0.00  0.00    +0.000 A 
ATOM     29  N   UNL     1      47.235   1.740   7.123  0.00  0.00    +0.000 NA
ATOM     30  C   UNL     1      46.444   1.119   8.025  0.00  0.00    +0.000 A 
ATOM     31  C   UNL     1      45.457   1.756   8.762  0.00  0.00    +0.000 A 
ENDBRANCH  25  26
ENDBRANCH  22  25
ENDBRANCH   5  22
TORSDOF 6
ENDMDL
MODEL 2
REMARK VINA RESULT:    -7.640      3.114      3.887
REMARK INTER + INTRA:         -11.091
REMARK INTER:                 -10.074
REMARK INTRA:                  -1.017
REMARK UNBOUND:                -0.995
REMARK  Name = 
REMARK  7 active torsions:
REMARK  status: ('A' for Active; 'I' for Inactive)
REMARK    1  A    between atoms: C_1  and  C_2
REMARK    2  A    between atoms: C_2  and  N_3
REMARK    3  A    between atoms: C_2  and  C_19
REMARK    4  A    between atoms: C_7  and  C_8
REMARK    5  A    between atoms: C_8  and  O_9
REMARK    6  A    between atoms: C_8  and  C_10
REMARK    7  A    between atoms: C_10  and  C_11
REMARK                            x       y       z     vdW  Elec       q    Type
REMARK                         _______ _______ _______ _____ _____    ______ ____
ROOT
ATOM      1  N   UNL     1      47.763   6.674  13.435  0.00  0.00    +0.000 N 
ATOM      2  C   UNL     1      46.838   5.909  12.725  0.00  0.00    +0.000 A 
ATOM      3  C   UNL     1      46.375   4.720  13.282  0.00  0.00    +0.000 A 
ATOM      4  C   UNL     1      45.573   3.861  12.527  0.00  0.00    +0.000 A 
ATOM      5  C   UNL     1      45.281   4.169  11.199  0.00  0.00    +0.000 A 
ATOM      6  C   UNL     1      45.758   5.389  10.737  0.00  0.00    +0.000 A 
ATOM      7  N   UNL     1      46.510   6.252  11.464  0.00  0.00    +0.000 NA
ATOM      8  H   UNL     1      47.738   6.509  14.441  0.00  0.00    +0.000 HD
ENDROOT
BRANCH   1  10
ATOM      9  C   UNL     1      47.316   8.912  14.321  0.00  0.00    +0.000 C 
ATOM     10  C   UNL     1      47.849   8.102  13.128  0.00  0.00    +0.000 C 
BRANCH  10  11
ATOM     11  C   UNL     1      49.242   8.590  12.749  0.00  0.00    +0.000 A 
ATOM     12  C   UNL     1      49.474   9.394  11.642  0.00  0.00    +0.000 A 
ATOM     13  S   UNL     1      51.123   9.753  11.396  0.00  0.00    +0.000 S 
ATOM     14  C   UNL     1      51.579   8.883  12.786  0.00  0.00    +0.000 A 
ATOM     15  N   UNL     1      52.884   8.800  13.161  0.00  0.00    +0.000 NA
ATOM     16  C   UNL     1      53.083   8.124  14.241  0.00  0.00    +0.000 A 
ATOM     17  N   UNL     1      52.097   7.526  14.984  0.00  0.00    +0.000 N 
ATOM     18  C   UNL     1      50.758   7.612  14.670  0.00  0.00    +0.000 A 
ATOM     19  O   UNL     1      49.899   7.147  15.416  0.00  0.00    +0.000 OA
ATOM     20  C   UNL     1      50.487   8.334  13.437  0.00  0.00    +0.000 A 
ATOM     21  H   UNL     1      52.323   7.042  15.840  0.00  0.00    +0.000 HD
ENDBRANCH  10  11
ENDBRANCH   1  10
BRANCH   5  22
ATOM     22  C   UNL     1      44.462   3.221  10.354  0.00  0.00    +0.000 C 
BRANCH  22  23
ATOM     23  O   UNL     1      43.111   3.294  10.808  0.00  0.00    +0.000 OA
ATOM     24  H   UNL     1      42.658   3.988  10.303  0.00  0.00    +0.000 HD
ENDBRANCH  22  23
BRANCH  22  25
ATOM     25  C   UNL     1      44.546   3.482   8.834  0.00  0.00    +0.000 C 
BRANCH  25  26
ATOM     26  C   UNL     1      45.687   2.752   8.167  0.00  0.00    +0.000 A 
ATOM     27  C   UNL     1      46.574   3.443   7.334  0.00  0.00    +0.000 A 
ATOM     28  C   UNL     1      47.592   2.738   6.713  0.00  0.00    +0.000 A 
ATOM     29  N   UNL     1      47.790   1.413   6.865  0.00  0.00    +0.000 NA
ATOM     30  C   UNL     1      46.921   0.763   7.670  0.00  0.00    +0.000 A 
ATOM     31  C   UNL     1      45.868   1.377   8.334  0.00  0.00    +0.000 A 
ENDBRANCH  25  26
ENDBRANCH  22  25
ENDBRANCH   5  22
TORSDOF 6
ENDMDL
MODEL 3
REMARK VINA RESULT:    -7.396      1.671      2.424
REMARK INTER + INTRA:         -10.769
REMARK INTER:                  -9.788
REMARK INTRA:                  -0.982
REMARK UNBOUND:                -0.995
REMARK  Name = 
REMARK  7 active torsions:
REMARK  status: ('A' for Active; 'I' for Inactive)
REMARK    1  A    between atoms: C_1  and  C_2
REMARK    2  A    between atoms: C_2  and  N_3
REMARK    3  A    between atoms: C_2  and  C_19
REMARK    4  A    between atoms: C_7  and  C_8
REMARK    5  A    between atoms: C_8  and  O_9
REMARK    6  A    between atoms: C_8  and  C_10
REMARK    7  A    between atoms: C_10  and  C_11
REMARK                            x       y       z     vdW  Elec       q    Type
REMARK                         _______ _______ _______ _____ _____    ______ ____
ROOT
ATOM      1  N   UNL     1      47.363   6.955  14.297  0.00  0.00    +0.000 N 
ATOM      2  C   UNL     1      46.697   6.151  13.373  0.00  0.00    +0.000 A 
ATOM      3  C   UNL     1      45.767   6.736  12.516  0.00  0.00    +0.000 A 
ATOM      4  C   UNL     1      44.976   5.931  11.693  0.00  0.00    +0.000 A 
ATOM      5  C   UNL     1      45.079   4.543  11.767  0.00  0.00    +0.000 A 
ATOM      6  C   UNL     1      46.055   4.050  12.624  0.00  0.00    +0.000 A 
ATOM      7  N   UNL     1      46.855   4.814  13.407  0.00  0.00    +0.000 NA
ATOM      8  H   UNL     1      47.404   7.938  14.026  0.00  0.00    +0.000 HD
ENDROOT
BRANCH   1  10
ATOM      9  C   UNL     1      49.779   7.342  14.205  0.00  0.00    +0.000 C 
ATOM     10  C   UNL     1      48.652   6.487  14.807  0.00  0.00    +0.000 C 
BRANCH  10  11
ATOM     11  C   UNL     1      48.768   6.469  16.326  0.00  0.00    +0.000 A 
ATOM     12  C   UNL     1      49.159   5.338  17.030  0.00  0.00    +0.000 A 
ATOM     13  S   UNL     1      49.151   5.553  18.721  0.00  0.00    +0.000 S 
ATOM     14  C   UNL     1      48.667   7.179  18.570  0.00  0.00    +0.000 A 
ATOM     15  N   UNL     1      48.483   7.957  19.669  0.00  0.00    +0.000 NA
ATOM     16  C   UNL     1      48.133   9.170  19.407  0.00  0.00    +0.000 A 
ATOM     17  N   UNL     1      47.953   9.679  18.146  0.00  0.00    +0.000 N 
ATOM     18  C   UNL     1      48.164   8.944  16.999  0.00  0.00    +0.000 A 
ATOM     19  O   UNL     1      48.089   9.464  15.889  0.00  0.00    +0.000 OA
ATOM     20  C   UNL     1      48.524   7.556  17.246  0.00  0.00    +0.000 A 
ATOM     21  H   UNL     1      47.713  10.650  18.014  0.00  0.00    +0.000 HD
ENDBRANCH  10  11
ENDBRANCH   1  10
BRANCH   5  22
ATOM     22  C   UNL     1      44.190   3.661  10.922  0.00  0.00    +0.000 C 
BRANCH  22  23
ATOM     23  O   UNL     1      42.873   3.725  11.467  0.00  0.00    +0.000 OA
ATOM     24  H   UNL     1      42.239   3.714  10.732  0.00  0.00    +0.000 HD
ENDBRANCH  22  23
BRANCH  22  25
ATOM     25  C   UNL     1      44.181   4.014   9.418  0.00  0.00    +0.000 C 
BRANCH  25  26
ATOM     26  C   UNL     1      45.228   3.269   8.625  0.00  0.00    +0.000 A 
ATOM     27  C   UNL     1      45.412   1.896   8.818  0.00  0.00    +0.000 A 
ATOM     28  C   UNL     1      46.401   1.246   8.098  0.00  0.00    +0.000 A 
ATOM     29  N   UNL     1      47.206   1.861   7.206  0.00  0.00    +0.000 NA
ATOM     30  C   UNL     1      47.015   3.187   7.036  0.00  0.00    +0.000 A 
ATOM     31  C   UNL     1      46.055   3.927   7.712  0.00  0.00    +0.000 A 
ENDBRANCH  25  26
ENDBRANCH  22  25
ENDBRANCH   5  22
TORSDOF 6
ENDMDL
MODEL 4
REMARK VINA RESULT:    -7.313      1.941      2.317
REMARK INTER + INTRA:         -10.659
REMARK INTER:                  -9.687
REMARK INTRA:                  -0.972
REMARK UNBOUND:                -0.995
REMARK  Name = 
REMARK  7 active torsions:
REMARK  status: ('A' for Active; 'I' for Inactive)
REMARK    1  A    between atoms: C_1  and  C_2
REMARK    2  A    between atoms: C_2  and  N_3
REMARK    3  A    between atoms: C_2  and  C_19
REMARK    4  A    between atoms: C_7  and  C_8
REMARK    5  A    between atoms: C_8  and  O_9
REMARK    6  A    between atoms: C_8  and  C_10
REMARK    7  A    between atoms: C_10  and  C_11
REMARK                            x       y       z     vdW  Elec       q    Type
REMARK                         _______ _______ _______ _____ _____    ______ ____
ROOT
ATOM      1  N   UNL     1      47.864   6.131  14.214  0.00  0.00    +0.000 N 
ATOM      2  C   UNL     1      46.917   5.841  13.234  0.00  0.00    +0.000 A 
ATOM      3  C   UNL     1      45.933   4.894  13.505  0.00  0.00    +0.000 A 
ATOM      4  C   UNL     1      45.072   4.472  12.489  0.00  0.00    +0.000 A 
ATOM      5  C   UNL     1      45.232   4.959  11.193  0.00  0.00    +0.000 A 
ATOM      6  C   UNL     1      46.217   5.924  11.021  0.00  0.00    +0.000 A 
ATOM      7  N   UNL     1      47.041   6.370  12.001  0.00  0.00    +0.000 NA
ATOM      8  H   UNL     1      47.547   5.921  15.161  0.00  0.00    +0.000 HD
ENDROOT
BRANCH   1  10
ATOM      9  C   UNL     1      47.653   8.495  14.817  0.00  0.00    +0.000 C 
ATOM     10  C   UNL     1      48.538   7.429  14.151  0.00  0.00    +0.000 C 
BRANCH  10  11
ATOM     11  C   UNL     1      49.933   7.454  14.766  0.00  0.00    +0.000 A 
ATOM     12  C   UNL     1      50.987   8.152  14.193  0.00  0.00    +0.000 A 
ATOM     13  S   UNL     1      52.458   7.972  15.035  0.00  0.00    +0.000 S 
ATOM     14  C   UNL     1      51.728   6.990  16.218  0.00  0.00    +0.000 A 
ATOM     15  N   UNL     1      52.452   6.495  17.257  0.00  0.00    +0.000 NA
ATOM     16  C   UNL     1      51.769   5.781  18.086  0.00  0.00    +0.000 A 
ATOM     17  N   UNL     1      50.427   5.520  17.974  0.00  0.00    +0.000 N 
ATOM     18  C   UNL     1      49.641   6.029  16.963  0.00  0.00    +0.000 A 
ATOM     19  O   UNL     1      48.425   5.853  16.954  0.00  0.00    +0.000 OA
ATOM     20  C   UNL     1      50.376   6.810  15.981  0.00  0.00    +0.000 A 
ATOM     21  H   UNL     1      49.949   4.981  18.681  0.00  0.00    +0.000 HD
ENDBRANCH  10  11
ENDBRANCH   1  10
BRANCH   5  22
ATOM     22  C   UNL     1      44.343   4.469  10.074  0.00  0.00    +0.000 C 
BRANCH  22  23
ATOM     23  O   UNL     1      43.102   5.168  10.169  0.00  0.00    +0.000 OA
ATOM     24  H   UNL     1      42.886   5.276  11.109  0.00  0.00    +0.000 HD
ENDBRANCH  22  23
BRANCH  22  25
ATOM     25  C   UNL     1      44.951   4.618   8.661  0.00  0.00    +0.000 C 
BRANCH  25  26
ATOM     26  C   UNL     1      45.719   3.397   8.213  0.00  0.00    +0.000 A 
ATOM     27  C   UNL     1      46.753   3.520   7.278  0.00  0.00    +0.000 A 
ATOM     28  C   UNL     1      47.418   2.377   6.864  0.00  0.00    +0.000 A 
ATOM     29  N   UNL     1      47.133   1.138   7.314  0.00  0.00    +0.000 NA
ATOM     30  C   UNL     1      46.130   1.040   8.214  0.00  0.00    +0.000 A 
ATOM     31  C   UNL     1      45.402   2.122   8.687  0.00  0.00    +0.000 A 
ENDBRANCH  25  26
ENDBRANCH  22  25
ENDBRANCH   5  22
TORSDOF 6
ENDMDL
MODEL 5
REMARK VINA RESULT:    -7.198      2.124      2.919
REMARK INTER + INTRA:         -10.507
REMARK INTER:                 -10.425
REMARK INTRA:                  -0.082
REMARK UNBOUND:                -0.995
REMARK  Name = 
REMARK  7 active torsions:
REMARK  status: ('A' for Active; 'I' for Inactive)
REMARK    1  A    between atoms: C_1  and  C_2
REMARK    2  A    between atoms: C_2  and  N_3
REMARK    3  A    between atoms: C_2  and  C_19
REMARK    4  A    between atoms: C_7  and  C_8
REMARK    5  A    between atoms: C_8  and  O_9
REMARK    6  A    between atoms: C_8  and  C_10
REMARK    7  A    between atoms: C_10  and  C_11
REMARK                            x       y       z     vdW  Elec       q    Type
REMARK                         _______ _______ _______ _____ _____    ______ ____
ROOT
ATOM      1  N   UNL     1      47.783   3.766  15.263  0.00  0.00    +0.000 N 
ATOM      2  C   UNL     1      46.889   4.150  14.265  0.00  0.00    +0.000 A 
ATOM      3  C   UNL     1      46.376   3.180  13.408  0.00  0.00    +0.000 A 
ATOM      4  C   UNL     1      45.605   3.559  12.306  0.00  0.00    +0.000 A 
ATOM      5  C   UNL     1      45.394   4.910  12.035  0.00  0.00    +0.000 A 
ATOM      6  C   UNL     1      45.916   5.806  12.961  0.00  0.00    +0.000 A 
ATOM      7  N   UNL     1      46.638   5.457  14.053  0.00  0.00    +0.000 NA
ATOM      8  H   UNL     1      47.699   2.784  15.528  0.00  0.00    +0.000 HD
ENDROOT
BRANCH   1  10
ATOM      9  C   UNL     1      46.874   4.206  17.493  0.00  0.00    +0.000 C 
ATOM     10  C   UNL     1      47.909   4.629  16.438  0.00  0.00    +0.000 C 
BRANCH  10  11
ATOM     11  C   UNL     1      49.301   4.662  17.059  0.00  0.00    +0.000 A 
ATOM     12  C   UNL     1      49.869   5.829  17.551  0.00  0.00    +0.000 A 
ATOM     13  S   UNL     1      51.456   5.617  18.136  0.00  0.00    +0.000 S 
ATOM     14  C   UNL     1      51.423   3.951  17.792  0.00  0.00    +0.000 A 
ATOM     15  N   UNL     1      52.494   3.159  18.068  0.00  0.00    +0.000 NA
ATOM     16  C   UNL     1      52.324   1.916  17.771  0.00  0.00    +0.000 A 
ATOM     17  N   UNL     1      51.181   1.389  17.226  0.00  0.00    +0.000 N 
ATOM     18  C   UNL     1      50.056   2.139  16.964  0.00  0.00    +0.000 A 
ATOM     19  O   UNL     1      49.018   1.612  16.569  0.00  0.00    +0.000 OA
ATOM     20  C   UNL     1      50.212   3.557  17.247  0.00  0.00    +0.000 A 
ATOM     21  H   UNL     1      51.106   0.397  17.052  0.00  0.00    +0.000 HD
ENDBRANCH  10  11
ENDBRANCH   1  10
BRANCH   5  22
ATOM     22  C   UNL     1      44.609   5.335  10.817  0.00  0.00    +0.000 C 
BRANCH  22  23
ATOM     23  O   UNL     1      45.484   6.091   9.980  0.00  0.00    +0.000 OA
ATOM     24  H   UNL     1      45.034   6.917   9.739  0.00  0.00    +0.000 HD
ENDBRANCH  22  23
BRANCH  22  25
ATOM     25  C   UNL     1      43.966   4.171  10.031  0.00  0.00    +0.000 C 
BRANCH  25  26
ATOM     26  C   UNL     1      44.924   3.496   9.077  0.00  0.00    +0.000 A 
ATOM     27  C   UNL     1      45.160   2.121   9.172  0.00  0.00    +0.000 A 
ATOM     28  C   UNL     1      46.067   1.537   8.302  0.00  0.00    +0.000 A 
ATOM     29  N   UNL     1      46.741   2.218   7.353  0.00  0.00    +0.000 NA
ATOM     30  C   UNL     1      46.502   3.546   7.279  0.00  0.00    +0.000 A 
ATOM     31  C   UNL     1      45.617   4.223   8.105  0.00  0.00    +0.000 A 
ENDBRANCH  25  26
ENDBRANCH  22  25
ENDBRANCH   5  22
TORSDOF 6
ENDMDL
MODEL 6
REMARK VINA RESULT:    -6.706      1.800      2.629
REMARK INTER + INTRA:          -9.858
REMARK INTER:                  -8.961
REMARK INTRA:                  -0.897
REMARK UNBOUND:                -0.995
REMARK  Name = 
REMARK  7 active torsions:
REMARK  status: ('A' for Active; 'I' for Inactive)
REMARK    1  A    between atoms: C_1  and  C_2
REMARK    2  A    between atoms: C_2  and  N_3
REMARK    3  A    between atoms: C_2  and  C_19
REMARK    4  A    between atoms: C_7  and  C_8
REMARK    5  A    between atoms: C_8  and  O_9
REMARK    6  A    between atoms: C_8  and  C_10
REMARK    7  A    between atoms: C_10  and  C_11
REMARK                            x       y       z     vdW  Elec       q    Type
REMARK                         _______ _______ _______ _____ _____    ______ ____
ROOT
ATOM      1  N   UNL     1      50.296   7.527  14.993  0.00  0.00    +0.000 N 
ATOM      2  C   UNL     1      49.221   7.013  14.269  0.00  0.00    +0.000 A 
ATOM      3  C   UNL     1      48.946   7.535  13.008  0.00  0.00    +0.000 A 
ATOM      4  C   UNL     1      47.786   7.149  12.332  0.00  0.00    +0.000 A 
ATOM      5  C   UNL     1      46.879   6.284  12.942  0.00  0.00    +0.000 A 
ATOM      6  C   UNL     1      47.251   5.788  14.185  0.00  0.00    +0.000 A 
ATOM      7  N   UNL     1      48.387   6.124  14.843  0.00  0.00    +0.000 NA
ATOM      8  H   UNL     1      51.010   7.961  14.408  0.00  0.00    +0.000 HD
ENDROOT
BRANCH   1  10
ATOM      9  C   UNL     1      52.414   6.906  16.054  0.00  0.00    +0.000 C 
ATOM     10  C   UNL     1      50.894   6.678  16.025  0.00  0.00    +0.000 C 
BRANCH  10  11
ATOM     11  C   UNL     1      50.313   6.867  17.422  0.00  0.00    +0.000 A 
ATOM     12  C   UNL     1      50.224   8.112  18.029  0.00  0.00    +0.000 A 
ATOM     13  S   UNL     1      49.597   8.051  19.614  0.00  0.00    +0.000 S 
ATOM     14  C   UNL     1      49.382   6.365  19.526  0.00  0.00    +0.000 A 
ATOM     15  N   UNL     1      48.862   5.672  20.574  0.00  0.00    +0.000 NA
ATOM     16  C   UNL     1      48.740   4.406  20.364  0.00  0.00    +0.000 A 
ATOM     17  N   UNL     1      49.087   3.767  19.201  0.00  0.00    +0.000 N 
ATOM     18  C   UNL     1      49.582   4.427  18.098  0.00  0.00    +0.000 A 
ATOM     19  O   UNL     1      49.787   3.834  17.041  0.00  0.00    +0.000 OA
ATOM     20  C   UNL     1      49.774   5.854  18.300  0.00  0.00    +0.000 A 
ATOM     21  H   UNL     1      48.931   2.776  19.094  0.00  0.00    +0.000 HD
ENDBRANCH  10  11
ENDBRANCH   1  10
BRANCH   5  22
ATOM     22  C   UNL     1      45.594   5.903  12.244  0.00  0.00    +0.000 C 
BRANCH  22  23
ATOM     23  O   UNL     1      44.556   6.734  12.763  0.00  0.00    +0.000 OA
ATOM     24  H   UNL     1      43.764   6.187  12.890  0.00  0.00    +0.000 HD
ENDBRANCH  22  23
BRANCH  22  25
ATOM     25  C   UNL     1      45.651   5.992  10.703  0.00  0.00    +0.000 C 
BRANCH  25  26
ATOM     26  C   UNL     1      45.239   4.711  10.016  0.00  0.00    +0.000 A 
ATOM     27  C   UNL     1      44.623   3.689  10.746  0.00  0.00    +0.000 A 
ATOM     28  C   UNL     1      44.284   2.514  10.094  0.00  0.00    +0.000 A 
ATOM     29  N   UNL     1      44.509   2.292   8.782  0.00  0.00    +0.000 NA
ATOM     30  C   UNL     1      45.109   3.289   8.097  0.00  0.00    +0.000 A 
ATOM     31  C   UNL     1      45.489   4.500   8.658  0.00  0.00    +0.000 A 
ENDBRANCH  25  26
ENDBRANCH  22  25
ENDBRANCH   5  22
TORSDOF 6
ENDMDL
MODEL 7
REMARK VINA RESULT:    -6.603      1.946      3.126
REMARK INTER + INTRA:          -9.721
REMARK INTER:                  -8.701
REMARK INTRA:                  -1.020
REMARK UNBOUND:                -0.995
REMARK  Name = 
REMARK  7 active torsions:
REMARK  status: ('A' for Active; 'I' for Inactive)
REMARK    1  A    between atoms: C_1  and  C_2
REMARK    2  A    between atoms: C_2  and  N_3
REMARK    3  A    between atoms: C_2  and  C_19
REMARK    4  A    between atoms: C_7  and  C_8
REMARK    5  A    between atoms: C_8  and  O_9
REMARK    6  A    between atoms: C_8  and  C_10
REMARK    7  A    between atoms: C_10  and  C_11
REMARK                            x       y       z     vdW  Elec       q    Type
REMARK                         _______ _______ _______ _____ _____    ______ ____
ROOT
ATOM      1  N   UNL     1      47.773   4.415  14.887  0.00  0.00    +0.000 N 
ATOM      2  C   UNL     1      46.642   4.279  14.083  0.00  0.00    +0.000 A 
ATOM      3  C   UNL     1      46.508   3.139  13.294  0.00  0.00    +0.000 A 
ATOM      4  C   UNL     1      45.468   3.052  12.366  0.00  0.00    +0.000 A 
ATOM      5  C   UNL     1      44.597   4.126  12.192  0.00  0.00    +0.000 A 
ATOM      6  C   UNL     1      44.786   5.208  13.043  0.00  0.00    +0.000 A 
ATOM      7  N   UNL     1      45.769   5.298  13.973  0.00  0.00    +0.000 NA
ATOM      8  H   UNL     1      48.212   3.525  15.124  0.00  0.00    +0.000 HD
ENDROOT
BRANCH   1  10
ATOM      9  C   UNL     1      47.136   4.496  17.250  0.00  0.00    +0.000 C 
ATOM     10  C   UNL     1      47.680   5.294  16.054  0.00  0.00    +0.000 C 
BRANCH  10  11
ATOM     11  C   UNL     1      48.984   5.982  16.439  0.00  0.00    +0.000 A 
ATOM     12  C   UNL     1      49.665   5.686  17.611  0.00  0.00    +0.000 A 
ATOM     13  S   UNL     1      51.062   6.636  17.844  0.00  0.00    +0.000 S 
ATOM     14  C   UNL     1      50.829   7.445  16.365  0.00  0.00    +0.000 A 
ATOM     15  N   UNL     1      51.700   8.403  15.948  0.00  0.00    +0.000 NA
ATOM     16  C   UNL     1      51.410   8.920  14.803  0.00  0.00    +0.000 A 
ATOM     17  N   UNL     1      50.331   8.567  14.034  0.00  0.00    +0.000 N 
ATOM     18  C   UNL     1      49.441   7.578  14.392  0.00  0.00    +0.000 A 
ATOM     19  O   UNL     1      48.545   7.223  13.629  0.00  0.00    +0.000 OA
ATOM     20  C   UNL     1      49.705   6.990  15.696  0.00  0.00    +0.000 A 
ATOM     21  H   UNL     1      50.186   8.991  13.129  0.00  0.00    +0.000 HD
ENDBRANCH  10  11
ENDBRANCH   1  10
BRANCH   5  22
ATOM     22  C   UNL     1      43.503   4.066  11.152  0.00  0.00    +0.000 C 
BRANCH  22  23
ATOM     23  O   UNL     1      42.381   4.786  11.662  0.00  0.00    +0.000 OA
ATOM     24  H   UNL     1      42.124   5.452  11.004  0.00  0.00    +0.000 HD
ENDBRANCH  22  23
BRANCH  22  25
ATOM     25  C   UNL     1      43.911   4.597   9.760  0.00  0.00    +0.000 C 
BRANCH  25  26
ATOM     26  C   UNL     1      44.840   3.667   9.017  0.00  0.00    +0.000 A 
ATOM     27  C   UNL     1      45.781   4.181   8.119  0.00  0.00    +0.000 A 
ATOM     28  C   UNL     1      46.598   3.299   7.430  0.00  0.00    +0.000 A 
ATOM     29  N   UNL     1      46.547   1.959   7.575  0.00  0.00    +0.000 NA
ATOM     30  C   UNL     1      45.629   1.482   8.445  0.00  0.00    +0.000 A 
ATOM     31  C   UNL     1      44.765   2.281   9.178  0.00  0.00    +0.000 A 
ENDBRANCH  25  26
ENDBRANCH  22  25
ENDBRANCH   5  22
TORSDOF 6
ENDMDL
MODEL 8
REMARK VINA RESULT:    -6.599      2.981      8.446
REMARK INTER + INTRA:          -9.717
REMARK INTER:                  -8.718
REMARK INTRA:                  -0.999
REMARK UNBOUND:                -0.995
REMARK  Name = 
REMARK  7 active torsions:
REMARK  status: ('A' for Active; 'I' for Inactive)
REMARK    1  A    between atoms: C_1  and  C_2
REMARK    2  A    between atoms: C_2  and  N_3
REMARK    3  A    between atoms: C_2  and  C_19
REMARK    4  A    between atoms: C_7  and  C_8
REMARK    5  A    between atoms: C_8  and  O_9
REMARK    6  A    between atoms: C_8  and  C_10
REMARK    7  A    between atoms: C_10  and  C_11
REMARK                            x       y       z     vdW  Elec       q    Type
REMARK                         _______ _______ _______ _____ _____    ______ ____
ROOT
ATOM      1  N   UNL     1      46.802   6.562  11.894  0.00  0.00    +0.000 N 
ATOM      2  C   UNL     1      47.635   6.727  12.999  0.00  0.00    +0.000 A 
ATOM      3  C   UNL     1      48.880   7.326  12.823  0.00  0.00    +0.000 A 
ATOM      4  C   UNL     1      49.794   7.360  13.879  0.00  0.00    +0.000 A 
ATOM      5  C   UNL     1      49.481   6.747  15.091  0.00  0.00    +0.000 A 
ATOM      6  C   UNL     1      48.206   6.203  15.188  0.00  0.00    +0.000 A 
ATOM      7  N   UNL     1      47.293   6.189  14.186  0.00  0.00    +0.000 NA
ATOM      8  H   UNL     1      46.996   7.219  11.138  0.00  0.00    +0.000 HD
ENDROOT
BRANCH   1  10
ATOM      9  C   UNL     1      44.622   7.565  11.405  0.00  0.00    +0.000 C 
ATOM     10  C   UNL     1      45.364   6.433  12.135  0.00  0.00    +0.000 C 
BRANCH  10  11
ATOM     11  C   UNL     1      44.770   5.085  11.743  0.00  0.00    +0.000 A 
ATOM     12  C   UNL     1      43.947   4.359  12.593  0.00  0.00    +0.000 A 
ATOM     13  S   UNL     1      43.463   2.857  11.950  0.00  0.00    +0.000 S 
ATOM     14  C   UNL     1      44.301   3.143  10.496  0.00  0.00    +0.000 A 
ATOM     15  N   UNL     1      44.286   2.229   9.489  0.00  0.00    +0.000 NA
ATOM     16  C   UNL     1      44.948   2.584   8.442  0.00  0.00    +0.000 A 
ATOM     17  N   UNL     1      45.623   3.770   8.305  0.00  0.00    +0.000 N 
ATOM     18  C   UNL     1      45.637   4.746   9.278  0.00  0.00    +0.000 A 
ATOM     19  O   UNL     1      46.169   5.835   9.078  0.00  0.00    +0.000 OA
ATOM     20  C   UNL     1      44.934   4.375  10.496  0.00  0.00    +0.000 A 
ATOM     21  H   UNL     1      46.092   3.997   7.440  0.00  0.00    +0.000 HD
ENDBRANCH  10  11
ENDBRANCH   1  10
BRANCH   5  22
ATOM     22  C   UNL     1      50.482   6.728  16.223  0.00  0.00    +0.000 C 
BRANCH  22  23
ATOM     23  O   UNL     1      50.761   8.082  16.576  0.00  0.00    +0.000 OA
ATOM     24  H   UNL     1      51.442   8.081  17.268  0.00  0.00    +0.000 HD
ENDBRANCH  22  23
BRANCH  22  25
ATOM     25  C   UNL     1      50.035   5.917  17.459  0.00  0.00    +0.000 C 
BRANCH  25  26
ATOM     26  C   UNL     1      50.557   4.500  17.462  0.00  0.00    +0.000 A 
ATOM     27  C   UNL     1      49.687   3.429  17.232  0.00  0.00    +0.000 A 
ATOM     28  C   UNL     1      50.190   2.139  17.271  0.00  0.00    +0.000 A 
ATOM     29  N   UNL     1      51.484   1.845  17.514  0.00  0.00    +0.000 NA
ATOM     30  C   UNL     1      52.308   2.893  17.737  0.00  0.00    +0.000 A 
ATOM     31  C   UNL     1      51.900   4.219  17.723  0.00  0.00    +0.000 A 
ENDBRANCH  25  26
ENDBRANCH  22  25
ENDBRANCH   5  22
TORSDOF 6
ENDMDL
MODEL 9
REMARK VINA RESULT:    -6.527      2.511      4.229
REMARK INTER + INTRA:          -9.621
REMARK INTER:                  -8.271
REMARK INTRA:                  -1.351
REMARK UNBOUND:                -0.995
REMARK  Name = 
REMARK  7 active torsions:
REMARK  status: ('A' for Active; 'I' for Inactive)
REMARK    1  A    between atoms: C_1  and  C_2
REMARK    2  A    between atoms: C_2  and  N_3
REMARK    3  A    between atoms: C_2  and  C_19
REMARK    4  A    between atoms: C_7  and  C_8
REMARK    5  A    between atoms: C_8  and  O_9
REMARK    6  A    between atoms: C_8  and  C_10
REMARK    7  A    between atoms: C_10  and  C_11
REMARK                            x       y       z     vdW  Elec       q    Type
REMARK                         _______ _______ _______ _____ _____    ______ ____
ROOT
ATOM      1  N   UNL     1      48.488   5.774  14.151  0.00  0.00    +0.000 N 
ATOM      2  C   UNL     1      47.224   5.467  13.650  0.00  0.00    +0.000 A 
ATOM      3  C   UNL     1      46.850   4.130  13.535  0.00  0.00    +0.000 A 
ATOM      4  C   UNL     1      45.656   3.793  12.893  0.00  0.00    +0.000 A 
ATOM      5  C   UNL     1      44.867   4.790  12.320  0.00  0.00    +0.000 A 
ATOM      6  C   UNL     1      45.301   6.095  12.511  0.00  0.00    +0.000 A 
ATOM      7  N   UNL     1      46.439   6.446  13.160  0.00  0.00    +0.000 NA
ATOM      8  H   UNL     1      48.882   5.038  14.738  0.00  0.00    +0.000 HD
ENDROOT
BRANCH   1  10
ATOM      9  C   UNL     1      48.366   7.031  16.249  0.00  0.00    +0.000 C 
ATOM     10  C   UNL     1      48.685   7.096  14.746  0.00  0.00    +0.000 C 
BRANCH  10  11
ATOM     11  C   UNL     1      50.073   7.690  14.536  0.00  0.00    +0.000 A 
ATOM     12  C   UNL     1      50.988   7.831  15.570  0.00  0.00    +0.000 A 
ATOM     13  S   UNL     1      52.443   8.579  15.092  0.00  0.00    +0.000 S 
ATOM     14  C   UNL     1      51.918   8.702  13.478  0.00  0.00    +0.000 A 
ATOM     15  N   UNL     1      52.715   9.254  12.524  0.00  0.00    +0.000 NA
ATOM     16  C   UNL     1      52.197   9.268  11.343  0.00  0.00    +0.000 A 
ATOM     17  N   UNL     1      50.956   8.777  11.026  0.00  0.00    +0.000 N 
ATOM     18  C   UNL     1      50.126   8.173  11.946  0.00  0.00    +0.000 A 
ATOM     19  O   UNL     1      49.065   7.657  11.602  0.00  0.00    +0.000 OA
ATOM     20  C   UNL     1      50.652   8.169  13.301  0.00  0.00    +0.000 A 
ATOM     21  H   UNL     1      50.629   8.788  10.071  0.00  0.00    +0.000 HD
ENDBRANCH  10  11
ENDBRANCH   1  10
BRANCH   5  22
ATOM     22  C   UNL     1      43.603   4.433  11.574  0.00  0.00    +0.000 C 
BRANCH  22  23
ATOM     23  O   UNL     1      42.522   5.127  12.197  0.00  0.00    +0.000 OA
ATOM     24  H   UNL     1      42.051   5.631  11.515  0.00  0.00    +0.000 HD
ENDBRANCH  22  23
BRANCH  22  25
ATOM     25  C   UNL     1      43.647   4.732  10.059  0.00  0.00    +0.000 C 
BRANCH  25  26
ATOM     26  C   UNL     1      44.590   3.827   9.302  0.00  0.00    +0.000 A 
ATOM     27  C   UNL     1      45.485   4.365   8.371  0.00  0.00    +0.000 A 
ATOM     28  C   UNL     1      46.316   3.505   7.670  0.00  0.00    +0.000 A 
ATOM     29  N   UNL     1      46.321   2.166   7.834  0.00  0.00    +0.000 NA
ATOM     30  C   UNL     1      45.448   1.667   8.735  0.00  0.00    +0.000 A 
ATOM     31  C   UNL     1      44.573   2.442   9.482  0.00  0.00    +0.000 A 
ENDBRANCH  25  26
ENDBRANCH  22  25
ENDBRANCH   5  22
TORSDOF 6
ENDMDL
