MODEL 1
REMARK VINA RESULT:    -8.028      0.000      0.000
REMARK INTER + INTRA:         -11.821
REMARK INTER:                 -10.844
REMARK INTRA:                  -0.977
REMARK UNBOUND:                -0.977
REMARK  Name = 
REMARK  7 active torsions:
REMARK  status: ('A' for Active; 'I' for Inactive)
REMARK    1  A    between atoms: C_1  and  O_2
REMARK    2  A    between atoms: O_2  and  C_3
REMARK    3  A    between atoms: C_6  and  C_7
REMARK    4  A    between atoms: C_7  and  C_8
REMARK    5  A    between atoms: C_11  and  C_12
REMARK    6  A    between atoms: C_12  and  N_13
REMARK    7  A    between atoms: C_14  and  C_16
REMARK                            x       y       z     vdW  Elec       q    Type
REMARK                         _______ _______ _______ _____ _____    ______ ____
ROOT
ATOM      1  C   UNL     1      47.054   8.167  13.578  0.00  0.00    +0.000 C 
ENDROOT
BRANCH   1   5
ATOM      2  C   UNL     1      44.633   5.608  11.165  0.00  0.00    +0.000 A 
ATOM      3  C   UNL     1      44.396   6.982  11.157  0.00  0.00    +0.000 A 
ATOM      4  C   UNL     1      45.179   7.826  11.939  0.00  0.00    +0.000 A 
ATOM      5  C   UNL     1      46.171   7.273  12.741  0.00  0.00    +0.000 A 
ATOM      6  N   UNL     1      46.412   5.937  12.784  0.00  0.00    +0.000 NA
ATOM      7  C   UNL     1      45.648   5.145  11.997  0.00  0.00    +0.000 A 
BRANCH   2   8
ATOM      8  C   UNL     1      43.854   4.683  10.274  0.00  0.00    +0.000 C 
BRANCH   8  12
ATOM      9  C   UNL     1      46.215   2.158   7.808  0.00  0.00    +0.000 A 
ATOM     10  C   UNL     1      46.300   3.523   7.586  0.00  0.00    +0.000 A 
ATOM     11  C   UNL     1      45.546   4.371   8.397  0.00  0.00    +0.000 A 
ATOM     12  C   UNL     1      44.721   3.829   9.387  0.00  0.00    +0.000 A 
ATOM     13  C   UNL     1      44.729   2.446   9.536  0.00  0.00    +0.000 A 
ATOM     14  N   UNL     1      45.452   1.604   8.771  0.00  0.00    +0.000 NA
BRANCH   9  16
ATOM     15  C   UNL     1      47.779   2.081   6.081  0.00  0.00    +0.000 C 
ATOM     16  O   UNL     1      46.950   1.337   6.973  0.00  0.00    +0.000 OA
ENDBRANCH   9  16
ENDBRANCH   8  12
ENDBRANCH   2   8
ENDBRANCH   1   5
BRANCH   1  17
ATOM     17  N   UNL     1      47.576   7.490  14.741  0.00  0.00    +0.000 N 
ATOM     18  C   UNL     1      48.821   6.920  14.774  0.00  0.00    +0.000 C 
ATOM     19  O   UNL     1      49.572   6.940  13.801  0.00  0.00    +0.000 OA
ATOM     20  H   UNL     1      46.890   7.245  15.452  0.00  0.00    +0.000 HD
BRANCH  18  21
ATOM     21  C   UNL     1      49.248   6.354  16.062  0.00  0.00    +0.000 A 
ATOM     22  C   UNL     1      50.301   6.941  16.754  0.00  0.00    +0.000 A 
ATOM     23  S   UNL     1      50.647   6.184  18.243  0.00  0.00    +0.000 S 
ATOM     24  C   UNL     1      49.430   5.020  17.995  0.00  0.00    +0.000 A 
ATOM     25  N   UNL     1      49.214   4.031  18.907  0.00  0.00    +0.000 NA
ATOM     26  C   UNL     1      48.285   3.197  18.576  0.00  0.00    +0.000 A 
ATOM     27  N   UNL     1      47.544   3.271  17.425  0.00  0.00    +0.000 N 
ATOM     28  C   UNL     1      47.684   4.285  16.508  0.00  0.00    +0.000 A 
ATOM     29  O   UNL     1      46.933   4.385  15.547  0.00  0.00    +0.000 OA
ATOM     30  C   UNL     1      48.750   5.226  16.811  0.00  0.00    +0.000 A 
ATOM     31  H   UNL     1      46.811   2.604  17.236  0.00  0.00    +0.000 HD
ENDBRANCH  18  21
ENDBRANCH   1  17
TORSDOF 6
ENDMDL
MODEL 2
REMARK VINA RESULT:    -7.682      2.066      3.651
REMARK INTER + INTRA:         -11.354
REMARK INTER:                 -10.385
REMARK INTRA:                  -0.969
REMARK UNBOUND:                -0.977
REMARK  Name = 
REMARK  7 active torsions:
REMARK  status: ('A' for Active; 'I' for Inactive)
REMARK    1  A    between atoms: C_1  and  O_2
REMARK    2  A    between atoms: O_2  and  C_3
REMARK    3  A    between atoms: C_6  and  C_7
REMARK    4  A    between atoms: C_7  and  C_8
REMARK    5  A    between atoms: C_11  and  C_12
REMARK    6  A    between atoms: C_12  and  N_13
REMARK    7  A    between atoms: C_14  and  C_16
REMARK                            x       y       z     vdW  Elec       q    Type
REMARK                         _______ _______ _______ _____ _____    ______ ____
ROOT
ATOM      1  C   UNL     1      46.800   4.687  15.004  0.00  0.00    +0.000 C 
ENDROOT
BRANCH   1   5
ATOM      2  C   UNL     1      44.930   4.173  11.201  0.00  0.00    +0.000 A 
ATOM      3  C   UNL     1      45.220   5.460  11.652  0.00  0.00    +0.000 A 
ATOM      4  C   UNL     1      45.830   5.640  12.891  0.00  0.00    +0.000 A 
ATOM      5  C   UNL     1      46.114   4.524  13.669  0.00  0.00    +0.000 A 
ATOM      6  N   UNL     1      45.825   3.260  13.263  0.00  0.00    +0.000 NA
ATOM      7  C   UNL     1      45.252   3.116  12.047  0.00  0.00    +0.000 A 
BRANCH   2   8
ATOM      8  C   UNL     1      44.342   3.946   9.837  0.00  0.00    +0.000 C 
BRANCH   8  12
ATOM      9  C   UNL     1      47.006   2.096   7.096  0.00  0.00    +0.000 A 
ATOM     10  C   UNL     1      46.886   3.474   7.033  0.00  0.00    +0.000 A 
ATOM     11  C   UNL     1      46.029   4.103   7.936  0.00  0.00    +0.000 A 
ATOM     12  C   UNL     1      45.309   3.336   8.857  0.00  0.00    +0.000 A 
ATOM     13  C   UNL     1      45.523   1.962   8.845  0.00  0.00    +0.000 A 
ATOM     14  N   UNL     1      46.349   1.328   7.988  0.00  0.00    +0.000 NA
BRANCH   9  16
ATOM     15  C   UNL     1      48.009   2.291   5.001  0.00  0.00    +0.000 C 
ATOM     16  O   UNL     1      47.839   1.493   6.172  0.00  0.00    +0.000 OA
ENDBRANCH   9  16
ENDBRANCH   8  12
ENDBRANCH   2   8
ENDBRANCH   1   5
BRANCH   1  17
ATOM     17  N   UNL     1      47.565   5.910  15.083  0.00  0.00    +0.000 N 
ATOM     18  C   UNL     1      48.686   6.038  15.859  0.00  0.00    +0.000 C 
ATOM     19  O   UNL     1      49.108   5.113  16.551  0.00  0.00    +0.000 OA
ATOM     20  H   UNL     1      47.100   6.743  14.727  0.00  0.00    +0.000 HD
BRANCH  18  21
ATOM     21  C   UNL     1      49.410   7.313  15.757  0.00  0.00    +0.000 A 
ATOM     22  C   UNL     1      49.716   8.022  16.912  0.00  0.00    +0.000 A 
ATOM     23  S   UNL     1      50.586   9.460  16.622  0.00  0.00    +0.000 S 
ATOM     24  C   UNL     1      50.547   9.208  14.939  0.00  0.00    +0.000 A 
ATOM     25  N   UNL     1      51.103  10.111  14.084  0.00  0.00    +0.000 NA
ATOM     26  C   UNL     1      50.970   9.811  12.835  0.00  0.00    +0.000 A 
ATOM     27  N   UNL     1      50.346   8.685  12.365  0.00  0.00    +0.000 N 
ATOM     28  C   UNL     1      49.827   7.716  13.190  0.00  0.00    +0.000 A 
ATOM     29  O   UNL     1      49.374   6.672  12.742  0.00  0.00    +0.000 OA
ATOM     30  C   UNL     1      49.909   8.028  14.607  0.00  0.00    +0.000 A 
ATOM     31  H   UNL     1      50.299   8.492  11.376  0.00  0.00    +0.000 HD
ENDBRANCH  18  21
ENDBRANCH   1  17
TORSDOF 6
ENDMDL
MODEL 3
REMARK VINA RESULT:    -7.530      1.874      2.183
REMARK INTER + INTRA:         -11.148
REMARK INTER:                 -10.089
REMARK INTRA:                  -1.059
REMARK UNBOUND:                -0.977
REMARK  Name = 
REMARK  7 active torsions:
REMARK  status: ('A' for Active; 'I' for Inactive)
REMARK    1  A    between atoms: C_1  and  O_2
REMARK    2  A    between atoms: O_2  and  C_3
REMARK    3  A    between atoms: C_6  and  C_7
REMARK    4  A    between atoms: C_7  and  C_8
REMARK    5  A    between atoms: C_11  and  C_12
REMARK    6  A    between atoms: C_12  and  N_13
REMARK    7  A    between atoms: C_14  and  C_16
REMARK                            x       y       z     vdW  Elec       q    Type
REMARK                         _______ _______ _______ _____ _____    ______ ____
ROOT
ATOM      1  C   UNL     1      47.769   7.747  13.830  0.00  0.00    +0.000 C 
ENDROOT
BRANCH   1   5
ATOM      2  C   UNL     1      45.075   5.521  11.378  0.00  0.00    +0.000 A 
ATOM      3  C   UNL     1      45.156   6.904  11.224  0.00  0.00    +0.000 A 
ATOM      4  C   UNL     1      46.031   7.640  12.018  0.00  0.00    +0.000 A 
ATOM      5  C   UNL     1      46.791   6.977  12.975  0.00  0.00    +0.000 A 
ATOM      6  N   UNL     1      46.719   5.634  13.160  0.00  0.00    +0.000 NA
ATOM      7  C   UNL     1      45.875   4.943  12.360  0.00  0.00    +0.000 A 
BRANCH   2   8
ATOM      8  C   UNL     1      44.197   4.693  10.484  0.00  0.00    +0.000 C 
BRANCH   8  12
ATOM      9  C   UNL     1      46.279   2.208   7.741  0.00  0.00    +0.000 A 
ATOM     10  C   UNL     1      46.322   3.575   7.519  0.00  0.00    +0.000 A 
ATOM     11  C   UNL     1      45.659   4.410   8.419  0.00  0.00    +0.000 A 
ATOM     12  C   UNL     1      44.962   3.853   9.495  0.00  0.00    +0.000 A 
ATOM     13  C   UNL     1      45.002   2.470   9.633  0.00  0.00    +0.000 A 
ATOM     14  N   UNL     1      45.640   1.640   8.783  0.00  0.00    +0.000 NA
BRANCH   9  16
ATOM     15  C   UNL     1      47.830   2.135   6.003  0.00  0.00    +0.000 C 
ATOM     16  O   UNL     1      46.920   1.400   6.820  0.00  0.00    +0.000 OA
ENDBRANCH   9  16
ENDBRANCH   8  12
ENDBRANCH   2   8
ENDBRANCH   1   5
BRANCH   1  17
ATOM     17  N   UNL     1      47.905   7.183  15.152  0.00  0.00    +0.000 N 
ATOM     18  C   UNL     1      49.107   6.775  15.667  0.00  0.00    +0.000 C 
ATOM     19  O   UNL     1      50.152   6.855  15.024  0.00  0.00    +0.000 OA
ATOM     20  H   UNL     1      47.039   6.878  15.592  0.00  0.00    +0.000 HD
BRANCH  18  21
ATOM     21  C   UNL     1      49.099   6.313  17.062  0.00  0.00    +0.000 A 
ATOM     22  C   UNL     1      49.629   5.068  17.376  0.00  0.00    +0.000 A 
ATOM     23  S   UNL     1      49.572   4.699  19.041  0.00  0.00    +0.000 S 
ATOM     24  C   UNL     1      48.798   6.173  19.395  0.00  0.00    +0.000 A 
ATOM     25  N   UNL     1      48.431   6.481  20.671  0.00  0.00    +0.000 NA
ATOM     26  C   UNL     1      47.822   7.613  20.790  0.00  0.00    +0.000 A 
ATOM     27  N   UNL     1      47.560   8.472  19.753  0.00  0.00    +0.000 N 
ATOM     28  C   UNL     1      47.966   8.232  18.462  0.00  0.00    +0.000 A 
ATOM     29  O   UNL     1      47.814   9.067  17.581  0.00  0.00    +0.000 OA
ATOM     30  C   UNL     1      48.616   6.947  18.266  0.00  0.00    +0.000 A 
ATOM     31  H   UNL     1      47.105   9.357  19.915  0.00  0.00    +0.000 HD
ENDBRANCH  18  21
ENDBRANCH   1  17
TORSDOF 6
ENDMDL
MODEL 4
REMARK VINA RESULT:    -7.201      2.574      3.165
REMARK INTER + INTRA:         -10.705
REMARK INTER:                  -9.699
REMARK INTRA:                  -1.006
REMARK UNBOUND:                -0.977
REMARK  Name = 
REMARK  7 active torsions:
REMARK  status: ('A' for Active; 'I' for Inactive)
REMARK    1  A    between atoms: C_1  and  O_2
REMARK    2  A    between atoms: O_2  and  C_3
REMARK    3  A    between atoms: C_6  and  C_7
REMARK    4  A    between atoms: C_7  and  C_8
REMARK    5  A    between atoms: C_11  and  C_12
REMARK    6  A    between atoms: C_12  and  N_13
REMARK    7  A    between atoms: C_14  and  C_16
REMARK                            x       y       z     vdW  Elec       q    Type
REMARK                         _______ _______ _______ _____ _____    ______ ____
ROOT
ATOM      1  C   UNL     1      47.507   4.419  15.565  0.00  0.00    +0.000 C 
ENDROOT
BRANCH   1   5
ATOM      2  C   UNL     1      45.392   5.315  11.967  0.00  0.00    +0.000 A 
ATOM      3  C   UNL     1      46.535   6.046  12.288  0.00  0.00    +0.000 A 
ATOM      4  C   UNL     1      47.233   5.763  13.459  0.00  0.00    +0.000 A 
ATOM      5  C   UNL     1      46.754   4.767  14.304  0.00  0.00    +0.000 A 
ATOM      6  N   UNL     1      45.633   4.053  14.026  0.00  0.00    +0.000 NA
ATOM      7  C   UNL     1      44.988   4.337  12.872  0.00  0.00    +0.000 A 
BRANCH   2   8
ATOM      8  C   UNL     1      44.663   5.548  10.675  0.00  0.00    +0.000 C 
BRANCH   8  12
ATOM      9  C   UNL     1      46.102   3.148   7.481  0.00  0.00    +0.000 A 
ATOM     10  C   UNL     1      45.180   2.574   8.341  0.00  0.00    +0.000 A 
ATOM     11  C   UNL     1      44.681   3.352   9.386  0.00  0.00    +0.000 A 
ATOM     12  C   UNL     1      45.133   4.665   9.549  0.00  0.00    +0.000 A 
ATOM     13  C   UNL     1      46.044   5.145   8.615  0.00  0.00    +0.000 A 
ATOM     14  N   UNL     1      46.538   4.419   7.592  0.00  0.00    +0.000 NA
BRANCH   9  16
ATOM     15  C   UNL     1      47.867   1.781   6.811  0.00  0.00    +0.000 C 
ATOM     16  O   UNL     1      46.603   2.348   6.470  0.00  0.00    +0.000 OA
ENDBRANCH   9  16
ENDBRANCH   8  12
ENDBRANCH   2   8
ENDBRANCH   1   5
BRANCH   1  17
ATOM     17  N   UNL     1      47.883   5.590  16.322  0.00  0.00    +0.000 N 
ATOM     18  C   UNL     1      49.147   5.785  16.814  0.00  0.00    +0.000 C 
ATOM     19  O   UNL     1      50.043   4.960  16.649  0.00  0.00    +0.000 OA
ATOM     20  H   UNL     1      47.111   6.149  16.680  0.00  0.00    +0.000 HD
BRANCH  18  21
ATOM     21  C   UNL     1      49.399   7.071  17.479  0.00  0.00    +0.000 A 
ATOM     22  C   UNL     1      50.372   7.925  16.974  0.00  0.00    +0.000 A 
ATOM     23  S   UNL     1      50.516   9.387  17.840  0.00  0.00    +0.000 S 
ATOM     24  C   UNL     1      49.312   8.913  18.946  0.00  0.00    +0.000 A 
ATOM     25  N   UNL     1      48.963   9.718  19.987  0.00  0.00    +0.000 NA
ATOM     26  C   UNL     1      48.063   9.219  20.768  0.00  0.00    +0.000 A 
ATOM     27  N   UNL     1      47.471   7.995  20.592  0.00  0.00    +0.000 N 
ATOM     28  C   UNL     1      47.745   7.177  19.523  0.00  0.00    +0.000 A 
ATOM     29  O   UNL     1      47.121   6.141  19.335  0.00  0.00    +0.000 OA
ATOM     30  C   UNL     1      48.787   7.672  18.639  0.00  0.00    +0.000 A 
ATOM     31  H   UNL     1      46.751   7.672  21.221  0.00  0.00    +0.000 HD
ENDBRANCH  18  21
ENDBRANCH   1  17
TORSDOF 6
ENDMDL
MODEL 5
REMARK VINA RESULT:    -7.051      4.361      9.543
REMARK INTER + INTRA:         -10.502
REMARK INTER:                  -9.880
REMARK INTRA:                  -0.622
REMARK UNBOUND:                -0.977
REMARK  Name = 
REMARK  7 active torsions:
REMARK  status: ('A' for Active; 'I' for Inactive)
REMARK    1  A    between atoms: C_1  and  O_2
REMARK    2  A    between atoms: O_2  and  C_3
REMARK    3  A    between atoms: C_6  and  C_7
REMARK    4  A    between atoms: C_7  and  C_8
REMARK    5  A    between atoms: C_11  and  C_12
REMARK    6  A    between atoms: C_12  and  N_13
REMARK    7  A    between atoms: C_14  and  C_16
REMARK                            x       y       z     vdW  Elec       q    Type
REMARK                         _______ _______ _______ _____ _____    ______ ____
ROOT
ATOM      1  C   UNL     1      47.200   3.467  16.765  0.00  0.00    +0.000 C 
ENDROOT
BRANCH   1   5
ATOM      2  C   UNL     1      51.356   3.939  17.615  0.00  0.00    +0.000 A 
ATOM      3  C   UNL     1      50.847   2.662  17.382  0.00  0.00    +0.000 A 
ATOM      4  C   UNL     1      49.493   2.496  17.103  0.00  0.00    +0.000 A 
ATOM      5  C   UNL     1      48.666   3.614  17.092  0.00  0.00    +0.000 A 
ATOM      6  N   UNL     1      49.131   4.867  17.335  0.00  0.00    +0.000 NA
ATOM      7  C   UNL     1      50.455   4.998  17.582  0.00  0.00    +0.000 A 
BRANCH   2   8
ATOM      8  C   UNL     1      52.825   4.155  17.843  0.00  0.00    +0.000 C 
BRANCH   8  12
ATOM      9  C   UNL     1      54.850   0.678  19.203  0.00  0.00    +0.000 A 
ATOM     10  C   UNL     1      54.587   0.771  17.846  0.00  0.00    +0.000 A 
ATOM     11  C   UNL     1      53.938   1.913  17.377  0.00  0.00    +0.000 A 
ATOM     12  C   UNL     1      53.558   2.913  18.277  0.00  0.00    +0.000 A 
ATOM     13  C   UNL     1      53.891   2.725  19.614  0.00  0.00    +0.000 A 
ATOM     14  N   UNL     1      54.523   1.635  20.094  0.00  0.00    +0.000 NA
BRANCH   9  16
ATOM     15  C   UNL     1      54.633  -1.623  19.499  0.00  0.00    +0.000 C 
ATOM     16  O   UNL     1      55.468  -0.475  19.648  0.00  0.00    +0.000 OA
ENDBRANCH   9  16
ENDBRANCH   8  12
ENDBRANCH   2   8
ENDBRANCH   1   5
BRANCH   1  17
ATOM     17  N   UNL     1      46.754   4.434  15.790  0.00  0.00    +0.000 N 
ATOM     18  C   UNL     1      46.773   4.195  14.441  0.00  0.00    +0.000 C 
ATOM     19  O   UNL     1      47.186   3.135  13.974  0.00  0.00    +0.000 OA
ATOM     20  H   UNL     1      46.652   5.388  16.131  0.00  0.00    +0.000 HD
BRANCH  18  21
ATOM     21  C   UNL     1      46.196   5.239  13.583  0.00  0.00    +0.000 A 
ATOM     22  C   UNL     1      46.912   6.405  13.345  0.00  0.00    +0.000 A 
ATOM     23  S   UNL     1      46.117   7.497  12.303  0.00  0.00    +0.000 S 
ATOM     24  C   UNL     1      44.768   6.468  12.167  0.00  0.00    +0.000 A 
ATOM     25  N   UNL     1      43.686   6.829  11.424  0.00  0.00    +0.000 NA
ATOM     26  C   UNL     1      42.721   5.970  11.437  0.00  0.00    +0.000 A 
ATOM     27  N   UNL     1      42.747   4.777  12.113  0.00  0.00    +0.000 N 
ATOM     28  C   UNL     1      43.840   4.343  12.824  0.00  0.00    +0.000 A 
ATOM     29  O   UNL     1      43.874   3.228  13.324  0.00  0.00    +0.000 OA
ATOM     30  C   UNL     1      44.937   5.296  12.879  0.00  0.00    +0.000 A 
ATOM     31  H   UNL     1      41.972   4.134  12.060  0.00  0.00    +0.000 HD
ENDBRANCH  18  21
ENDBRANCH   1  17
TORSDOF 6
ENDMDL
MODEL 6
REMARK VINA RESULT:    -6.762      3.720      8.844
REMARK INTER + INTRA:         -10.112
REMARK INTER:                  -9.212
REMARK INTRA:                  -0.899
REMARK UNBOUND:                -0.977
REMARK  Name = 
REMARK  7 active torsions:
REMARK  status: ('A' for Active; 'I' for Inactive)
REMARK    1  A    between atoms: C_1  and  O_2
REMARK    2  A    between atoms: O_2  and  C_3
REMARK    3  A    between atoms: C_6  and  C_7
REMARK    4  A    between atoms: C_7  and  C_8
REMARK    5  A    between atoms: C_11  and  C_12
REMARK    6  A    between atoms: C_12  and  N_13
REMARK    7  A    between atoms: C_14  and  C_16
REMARK                            x       y       z     vdW  Elec       q    Type
REMARK                         _______ _______ _______ _____ _____    ______ ____
ROOT
ATOM      1  C   UNL     1      47.139   3.406  16.925  0.00  0.00    +0.000 C 
ENDROOT
BRANCH   1   5
ATOM      2  C   UNL     1      51.137   3.977  18.310  0.00  0.00    +0.000 A 
ATOM      3  C   UNL     1      50.845   2.883  17.495  0.00  0.00    +0.000 A 
ATOM      4  C   UNL     1      49.545   2.688  17.037  0.00  0.00    +0.000 A 
ATOM      5  C   UNL     1      48.552   3.578  17.429  0.00  0.00    +0.000 A 
ATOM      6  N   UNL     1      48.804   4.640  18.237  0.00  0.00    +0.000 NA
ATOM      7  C   UNL     1      50.080   4.816  18.649  0.00  0.00    +0.000 A 
BRANCH   2   8
ATOM      8  C   UNL     1      52.544   4.255  18.756  0.00  0.00    +0.000 C 
BRANCH   8  12
ATOM      9  C   UNL     1      54.965   5.878  15.667  0.00  0.00    +0.000 A 
ATOM     10  C   UNL     1      55.471   4.796  16.368  0.00  0.00    +0.000 A 
ATOM     11  C   UNL     1      54.684   4.237  17.375  0.00  0.00    +0.000 A 
ATOM     12  C   UNL     1      53.431   4.787  17.660  0.00  0.00    +0.000 A 
ATOM     13  C   UNL     1      53.014   5.859  16.880  0.00  0.00    +0.000 A 
ATOM     14  N   UNL     1      53.750   6.415  15.896  0.00  0.00    +0.000 NA
BRANCH   9  16
ATOM     15  C   UNL     1      55.491   5.907  13.396  0.00  0.00    +0.000 C 
ATOM     16  O   UNL     1      55.775   6.432  14.693  0.00  0.00    +0.000 OA
ENDBRANCH   9  16
ENDBRANCH   8  12
ENDBRANCH   2   8
ENDBRANCH   1   5
BRANCH   1  17
ATOM     17  N   UNL     1      46.788   4.390  15.928  0.00  0.00    +0.000 N 
ATOM     18  C   UNL     1      46.895   4.157  14.582  0.00  0.00    +0.000 C 
ATOM     19  O   UNL     1      47.313   3.089  14.138  0.00  0.00    +0.000 OA
ATOM     20  H   UNL     1      46.687   5.344  16.268  0.00  0.00    +0.000 HD
BRANCH  18  21
ATOM     21  C   UNL     1      46.406   5.220  13.693  0.00  0.00    +0.000 A 
ATOM     22  C   UNL     1      47.179   6.358  13.494  0.00  0.00    +0.000 A 
ATOM     23  S   UNL     1      46.483   7.476  12.410  0.00  0.00    +0.000 S 
ATOM     24  C   UNL     1      45.105   6.499  12.201  0.00  0.00    +0.000 A 
ATOM     25  N   UNL     1      44.080   6.899  11.400  0.00  0.00    +0.000 NA
ATOM     26  C   UNL     1      43.083   6.078  11.361  0.00  0.00    +0.000 A 
ATOM     27  N   UNL     1      43.027   4.887  12.038  0.00  0.00    +0.000 N 
ATOM     28  C   UNL     1      44.062   4.414  12.808  0.00  0.00    +0.000 A 
ATOM     29  O   UNL     1      44.026   3.299  13.310  0.00  0.00    +0.000 OA
ATOM     30  C   UNL     1      45.190   5.323  12.922  0.00  0.00    +0.000 A 
ATOM     31  H   UNL     1      42.231   4.274  11.944  0.00  0.00    +0.000 HD
ENDBRANCH  18  21
ENDBRANCH   1  17
TORSDOF 6
ENDMDL
MODEL 7
REMARK VINA RESULT:    -6.127      3.060      4.564
REMARK INTER + INTRA:          -9.253
REMARK INTER:                  -8.127
REMARK INTRA:                  -1.126
REMARK UNBOUND:                -0.977
REMARK  Name = 
REMARK  7 active torsions:
REMARK  status: ('A' for Active; 'I' for Inactive)
REMARK    1  A    between atoms: C_1  and  O_2
REMARK    2  A    between atoms: O_2  and  C_3
REMARK    3  A    between atoms: C_6  and  C_7
REMARK    4  A    between atoms: C_7  and  C_8
REMARK    5  A    between atoms: C_11  and  C_12
REMARK    6  A    between atoms: C_12  and  N_13
REMARK    7  A    between atoms: C_14  and  C_16
REMARK                            x       y       z     vdW  Elec       q    Type
REMARK                         _______ _______ _______ _____ _____    ______ ____
ROOT
ATOM      1  C   UNL     1      49.372   7.701  17.279  0.00  0.00    +0.000 C 
ENDROOT
BRANCH   1   5
ATOM      2  C   UNL     1      47.780   7.641  13.318  0.00  0.00    +0.000 A 
ATOM      3  C   UNL     1      48.371   6.489  13.835  0.00  0.00    +0.000 A 
ATOM      4  C   UNL     1      48.893   6.497  15.126  0.00  0.00    +0.000 A 
ATOM      5  C   UNL     1      48.839   7.672  15.866  0.00  0.00    +0.000 A 
ATOM      6  N   UNL     1      48.286   8.814  15.381  0.00  0.00    +0.000 NA
ATOM      7  C   UNL     1      47.769   8.769  14.132  0.00  0.00    +0.000 A 
BRANCH   2   8
ATOM      8  C   UNL     1      47.141   7.639  11.959  0.00  0.00    +0.000 C 
BRANCH   8  12
ATOM      9  C   UNL     1      43.950   4.871  11.516  0.00  0.00    +0.000 A 
ATOM     10  C   UNL     1      43.958   5.655  12.658  0.00  0.00    +0.000 A 
ATOM     11  C   UNL     1      44.988   6.583  12.814  0.00  0.00    +0.000 A 
ATOM     12  C   UNL     1      45.983   6.684  11.837  0.00  0.00    +0.000 A 
ATOM     13  C   UNL     1      45.865   5.862  10.722  0.00  0.00    +0.000 A 
ATOM     14  N   UNL     1      44.878   4.961  10.542  0.00  0.00    +0.000 NA
BRANCH   9  16
ATOM     15  C   UNL     1      43.404   2.607  11.601  0.00  0.00    +0.000 C 
ATOM     16  O   UNL     1      42.936   3.939  11.397  0.00  0.00    +0.000 OA
ENDBRANCH   9  16
ENDBRANCH   8  12
ENDBRANCH   2   8
ENDBRANCH   1   5
BRANCH   1  17
ATOM     17  N   UNL     1      50.313   6.637  17.533  0.00  0.00    +0.000 N 
ATOM     18  C   UNL     1      50.527   6.114  18.781  0.00  0.00    +0.000 C 
ATOM     19  O   UNL     1      49.931   6.532  19.772  0.00  0.00    +0.000 OA
ATOM     20  H   UNL     1      50.986   6.457  16.790  0.00  0.00    +0.000 HD
BRANCH  18  21
ATOM     21  C   UNL     1      51.444   4.969  18.863  0.00  0.00    +0.000 A 
ATOM     22  C   UNL     1      52.595   5.065  19.636  0.00  0.00    +0.000 A 
ATOM     23  S   UNL     1      53.531   3.639  19.650  0.00  0.00    +0.000 S 
ATOM     24  C   UNL     1      52.454   2.858  18.589  0.00  0.00    +0.000 A 
ATOM     25  N   UNL     1      52.693   1.586  18.163  0.00  0.00    +0.000 NA
ATOM     26  C   UNL     1      51.814   1.129  17.334  0.00  0.00    +0.000 A 
ATOM     27  N   UNL     1      50.712   1.823  16.905  0.00  0.00    +0.000 N 
ATOM     28  C   UNL     1      50.397   3.082  17.356  0.00  0.00    +0.000 A 
ATOM     29  O   UNL     1      49.350   3.631  17.039  0.00  0.00    +0.000 OA
ATOM     30  C   UNL     1      51.381   3.661  18.256  0.00  0.00    +0.000 A 
ATOM     31  H   UNL     1      50.045   1.400  16.277  0.00  0.00    +0.000 HD
ENDBRANCH  18  21
ENDBRANCH   1  17
TORSDOF 6
ENDMDL
MODEL 8
REMARK VINA RESULT:    -6.121      2.464      3.434
REMARK INTER + INTRA:          -9.246
REMARK INTER:                  -8.539
REMARK INTRA:                  -0.707
REMARK UNBOUND:                -0.977
REMARK  Name = 
REMARK  7 active torsions:
REMARK  status: ('A' for Active; 'I' for Inactive)
REMARK    1  A    between atoms: C_1  and  O_2
REMARK    2  A    between atoms: O_2  and  C_3
REMARK    3  A    between atoms: C_6  and  C_7
REMARK    4  A    between atoms: C_7  and  C_8
REMARK    5  A    between atoms: C_11  and  C_12
REMARK    6  A    between atoms: C_12  and  N_13
REMARK    7  A    between atoms: C_14  and  C_16
REMARK                            x       y       z     vdW  Elec       q    Type
REMARK                         _______ _______ _______ _____ _____    ______ ____
ROOT
ATOM      1  C   UNL     1      47.088   5.143  15.286  0.00  0.00    +0.000 C 
ENDROOT
BRANCH   1   5
ATOM      2  C   UNL     1      45.152   4.256  11.586  0.00  0.00    +0.000 A 
ATOM      3  C   UNL     1      45.671   3.214  12.353  0.00  0.00    +0.000 A 
ATOM      4  C   UNL     1      46.304   3.491  13.562  0.00  0.00    +0.000 A 
ATOM      5  C   UNL     1      46.432   4.815  13.966  0.00  0.00    +0.000 A 
ATOM      6  N   UNL     1      45.953   5.851  13.230  0.00  0.00    +0.000 NA
ATOM      7  C   UNL     1      45.325   5.549  12.071  0.00  0.00    +0.000 A 
BRANCH   2   8
ATOM      8  C   UNL     1      44.398   3.980  10.316  0.00  0.00    +0.000 C 
BRANCH   8  12
ATOM      9  C   UNL     1      46.738   2.212   7.245  0.00  0.00    +0.000 A 
ATOM     10  C   UNL     1      46.700   3.596   7.298  0.00  0.00    +0.000 A 
ATOM     11  C   UNL     1      45.951   4.196   8.311  0.00  0.00    +0.000 A 
ATOM     12  C   UNL     1      45.252   3.398   9.221  0.00  0.00    +0.000 A 
ATOM     13  C   UNL     1      45.377   2.020   9.086  0.00  0.00    +0.000 A 
ATOM     14  N   UNL     1      46.099   1.413   8.122  0.00  0.00    +0.000 NA
BRANCH   9  16
ATOM     15  C   UNL     1      47.433   2.437   5.032  0.00  0.00    +0.000 C 
ATOM     16  O   UNL     1      47.463   1.641   6.216  0.00  0.00    +0.000 OA
ENDBRANCH   9  16
ENDBRANCH   8  12
ENDBRANCH   2   8
ENDBRANCH   1   5
BRANCH   1  17
ATOM     17  N   UNL     1      48.221   6.025  15.131  0.00  0.00    +0.000 N 
ATOM     18  C   UNL     1      48.809   6.673  16.186  0.00  0.00    +0.000 C 
ATOM     19  O   UNL     1      48.397   6.550  17.337  0.00  0.00    +0.000 OA
ATOM     20  H   UNL     1      48.412   6.334  14.180  0.00  0.00    +0.000 HD
BRANCH  18  21
ATOM     21  C   UNL     1      50.014   7.458  15.882  0.00  0.00    +0.000 A 
ATOM     22  C   UNL     1      49.884   8.729  15.335  0.00  0.00    +0.000 A 
ATOM     23  S   UNL     1      51.374   9.517  15.074  0.00  0.00    +0.000 S 
ATOM     24  C   UNL     1      52.247   8.171  15.643  0.00  0.00    +0.000 A 
ATOM     25  N   UNL     1      53.609   8.177  15.658  0.00  0.00    +0.000 NA
ATOM     26  C   UNL     1      54.141   7.078  16.081  0.00  0.00    +0.000 A 
ATOM     27  N   UNL     1      53.434   5.982  16.504  0.00  0.00    +0.000 N 
ATOM     28  C   UNL     1      52.062   5.953  16.566  0.00  0.00    +0.000 A 
ATOM     29  O   UNL     1      51.464   5.002  17.050  0.00  0.00    +0.000 OA
ATOM     30  C   UNL     1      51.413   7.150  16.055  0.00  0.00    +0.000 A 
ATOM     31  H   UNL     1      53.908   5.162  16.851  0.00  0.00    +0.000 HD
ENDBRANCH  18  21
ENDBRANCH   1  17
TORSDOF 6
ENDMDL
MODEL 9
REMARK VINA RESULT:    -5.921      3.764     10.044
REMARK INTER + INTRA:          -8.975
REMARK INTER:                  -8.162
REMARK INTRA:                  -0.813
REMARK UNBOUND:                -0.977
REMARK  Name = 
REMARK  7 active torsions:
REMARK  status: ('A' for Active; 'I' for Inactive)
REMARK    1  A    between atoms: C_1  and  O_2
REMARK    2  A    between atoms: O_2  and  C_3
REMARK    3  A    between atoms: C_6  and  C_7
REMARK    4  A    between atoms: C_7  and  C_8
REMARK    5  A    between atoms: C_11  and  C_12
REMARK    6  A    between atoms: C_12  and  N_13
REMARK    7  A    between atoms: C_14  and  C_16
REMARK                            x       y       z     vdW  Elec       q    Type
REMARK                         _______ _______ _______ _____ _____    ______ ____
ROOT
ATOM      1  C   UNL     1      47.424   3.747  16.619  0.00  0.00    +0.000 C 
ENDROOT
BRANCH   1   5
ATOM      2  C   UNL     1      49.302   5.837  19.834  0.00  0.00    +0.000 A 
ATOM      3  C   UNL     1      49.192   4.448  19.892  0.00  0.00    +0.000 A 
ATOM      4  C   UNL     1      48.582   3.756  18.849  0.00  0.00    +0.000 A 
ATOM      5  C   UNL     1      48.066   4.474  17.777  0.00  0.00    +0.000 A 
ATOM      6  N   UNL     1      48.141   5.828  17.703  0.00  0.00    +0.000 NA
ATOM      7  C   UNL     1      48.757   6.470  18.721  0.00  0.00    +0.000 A 
BRANCH   2   8
ATOM      8  C   UNL     1      50.022   6.602  20.907  0.00  0.00    +0.000 C 
BRANCH   8  12
ATOM      9  C   UNL     1      54.149   7.230  20.124  0.00  0.00    +0.000 A 
ATOM     10  C   UNL     1      53.804   6.104  20.856  0.00  0.00    +0.000 A 
ATOM     11  C   UNL     1      52.453   5.871  21.108  0.00  0.00    +0.000 A 
ATOM     12  C   UNL     1      51.494   6.774  20.641  0.00  0.00    +0.000 A 
ATOM     13  C   UNL     1      51.950   7.859  19.901  0.00  0.00    +0.000 A 
ATOM     14  N   UNL     1      53.249   8.107  19.635  0.00  0.00    +0.000 NA
BRANCH   9  16
ATOM     15  C   UNL     1      55.739   8.119  18.671  0.00  0.00    +0.000 C 
ATOM     16  O   UNL     1      55.496   7.455  19.911  0.00  0.00    +0.000 OA
ENDBRANCH   9  16
ENDBRANCH   8  12
ENDBRANCH   2   8
ENDBRANCH   1   5
BRANCH   1  17
ATOM     17  N   UNL     1      46.896   4.653  15.627  0.00  0.00    +0.000 N 
ATOM     18  C   UNL     1      46.804   4.331  14.298  0.00  0.00    +0.000 C 
ATOM     19  O   UNL     1      47.181   3.244  13.865  0.00  0.00    +0.000 OA
ATOM     20  H   UNL     1      46.818   5.626  15.916  0.00  0.00    +0.000 HD
BRANCH  18  21
ATOM     21  C   UNL     1      46.153   5.320  13.428  0.00  0.00    +0.000 A 
ATOM     22  C   UNL     1      46.809   6.509  13.130  0.00  0.00    +0.000 A 
ATOM     23  S   UNL     1      45.932   7.530  12.083  0.00  0.00    +0.000 S 
ATOM     24  C   UNL     1      44.626   6.440  12.025  0.00  0.00    +0.000 A 
ATOM     25  N   UNL     1      43.505   6.729  11.309  0.00  0.00    +0.000 NA
ATOM     26  C   UNL     1      42.580   5.831  11.382  0.00  0.00    +0.000 A 
ATOM     27  N   UNL     1      42.681   4.663  12.094  0.00  0.00    +0.000 N 
ATOM     28  C   UNL     1      43.816   4.300  12.779  0.00  0.00    +0.000 A 
ATOM     29  O   UNL     1      43.915   3.204  13.313  0.00  0.00    +0.000 OA
ATOM     30  C   UNL     1      44.870   5.300  12.767  0.00  0.00    +0.000 A 
ATOM     31  H   UNL     1      41.934   3.986  12.088  0.00  0.00    +0.000 HD
ENDBRANCH  18  21
ENDBRANCH   1  17
TORSDOF 6
ENDMDL
