MODEL 1
REMARK VINA RESULT:    -7.591      0.000      0.000
REMARK INTER + INTRA:         -11.788
REMARK INTER:                 -10.697
REMARK INTRA:                  -1.091
REMARK UNBOUND:                -1.091
REMARK  Name = 
REMARK  9 active torsions:
REMARK  status: ('A' for Active; 'I' for Inactive)
REMARK    1  A    between atoms: C_1  and  O_2
REMARK    2  A    between atoms: O_2  and  C_3
REMARK    3  A    between atoms: C_10  and  C_11
REMARK    4  A    between atoms: N_13  and  C_14
REMARK    5  A    between atoms: C_14  and  C_15
REMARK    6  A    between atoms: C_18  and  N_19
REMARK    7  A    between atoms: N_19  and  C_20
REMARK    8  A    between atoms: C_20  and  C_21
REMARK    9  A    between atoms: N_25  and  C_26
REMARK                            x       y       z     vdW  Elec       q    Type
REMARK                         _______ _______ _______ _____ _____    ______ ____
ROOT
ATOM      1  C   UNL     1      48.360   6.986  15.194  0.00  0.00    +0.000 C 
ENDROOT
BRANCH   1   2
ATOM      2  C   UNL     1      47.577   6.238  14.144  0.00  0.00    +0.000 A 
ATOM      3  C   UNL     1      47.011   4.992  14.432  0.00  0.00    +0.000 A 
ATOM      4  C   UNL     1      46.138   4.378  13.524  0.00  0.00    +0.000 A 
ATOM      5  C   UNL     1      45.798   4.996  12.315  0.00  0.00    +0.000 A 
ATOM      6  C   UNL     1      46.502   6.150  11.960  0.00  0.00    +0.000 A 
ATOM      7  C   UNL     1      47.369   6.777  12.869  0.00  0.00    +0.000 A 
BRANCH   5   8
ATOM      8  N   UNL     1      44.864   4.467  11.396  0.00  0.00    +0.000 N 
ATOM      9  H   UNL     1      44.615   5.195  10.730  0.00  0.00    +0.000 HD
BRANCH   8  10
ATOM     10  C   UNL     1      45.290   3.229  10.721  0.00  0.00    +0.000 C 
BRANCH  10  11
ATOM     11  C   UNL     1      44.466   2.932   9.448  0.00  0.00    +0.000 C 
ATOM     12  C   UNL     1      44.539   4.042   8.388  0.00  0.00    +0.000 C 
ATOM     13  C   UNL     1      45.955   4.173   7.836  0.00  0.00    +0.000 C 
ATOM     14  C   UNL     1      46.454   2.831   7.293  0.00  0.00    +0.000 C 
ATOM     15  N   UNL     1      46.340   1.750   8.284  0.00  0.00    +0.000 NA
ATOM     16  C   UNL     1      46.792   0.485   7.698  0.00  0.00    +0.000 C 
ATOM     17  C   UNL     1      44.964   1.620   8.801  0.00  0.00    +0.000 C 
ENDBRANCH  10  11
ENDBRANCH   8  10
ENDBRANCH   5   8
ENDBRANCH   1   2
BRANCH   1  20
ATOM     18  C   UNL     1      49.491   5.878  17.080  0.00  0.00    +0.000 C 
ATOM     19  O   UNL     1      48.623   6.250  17.866  0.00  0.00    +0.000 OA
ATOM     20  N   UNL     1      49.427   6.197  15.750  0.00  0.00    +0.000 N 
ATOM     21  H   UNL     1      50.150   5.890  15.117  0.00  0.00    +0.000 HD
BRANCH  18  29
ATOM     22  C   UNL     1      50.192   2.515  17.012  0.00  0.00    +0.000 A 
ATOM     23  N   UNL     1      50.724   1.273  17.071  0.00  0.00    +0.000 NA
ATOM     24  C   UNL     1      51.947   1.151  17.594  0.00  0.00    +0.000 A 
ATOM     25  N   UNL     1      52.715   2.120  18.086  0.00  0.00    +0.000 NA
ATOM     26  C   UNL     1      52.151   3.336  17.998  0.00  0.00    +0.000 A 
ATOM     27  S   UNL     1      52.984   4.692  18.582  0.00  0.00    +0.000 S 
ATOM     28  C   UNL     1      51.714   5.728  18.130  0.00  0.00    +0.000 A 
ATOM     29  C   UNL     1      50.644   5.077  17.528  0.00  0.00    +0.000 A 
ATOM     30  C   UNL     1      50.902   3.639  17.466  0.00  0.00    +0.000 A 
BRANCH  22  32
ATOM     31  C   UNL     1      47.895   2.672  17.438  0.00  0.00    +0.000 C 
ATOM     32  O   UNL     1      48.933   2.651  16.468  0.00  0.00    +0.000 OA
ENDBRANCH  22  32
ENDBRANCH  18  29
ENDBRANCH   1  20
TORSDOF 7
ENDMDL
MODEL 2
REMARK VINA RESULT:    -7.217      2.449      2.926
REMARK INTER + INTRA:         -11.261
REMARK INTER:                  -9.964
REMARK INTRA:                  -1.297
REMARK UNBOUND:                -1.091
REMARK  Name = 
REMARK  9 active torsions:
REMARK  status: ('A' for Active; 'I' for Inactive)
REMARK    1  A    between atoms: C_1  and  O_2
REMARK    2  A    between atoms: O_2  and  C_3
REMARK    3  A    between atoms: C_10  and  C_11
REMARK    4  A    between atoms: N_13  and  C_14
REMARK    5  A    between atoms: C_14  and  C_15
REMARK    6  A    between atoms: C_18  and  N_19
REMARK    7  A    between atoms: N_19  and  C_20
REMARK    8  A    between atoms: C_20  and  C_21
REMARK    9  A    between atoms: N_25  and  C_26
REMARK                            x       y       z     vdW  Elec       q    Type
REMARK                         _______ _______ _______ _____ _____    ______ ____
ROOT
ATOM      1  C   UNL     1      47.560   8.351  13.398  0.00  0.00    +0.000 C 
ENDROOT
BRANCH   1   2
ATOM      2  C   UNL     1      46.839   7.173  12.793  0.00  0.00    +0.000 A 
ATOM      3  C   UNL     1      47.100   5.874  13.240  0.00  0.00    +0.000 A 
ATOM      4  C   UNL     1      46.310   4.799  12.811  0.00  0.00    +0.000 A 
ATOM      5  C   UNL     1      45.234   4.995  11.937  0.00  0.00    +0.000 A 
ATOM      6  C   UNL     1      45.093   6.261  11.361  0.00  0.00    +0.000 A 
ATOM      7  C   UNL     1      45.872   7.344  11.795  0.00  0.00    +0.000 A 
BRANCH   5   8
ATOM      8  N   UNL     1      44.353   3.967  11.530  0.00  0.00    +0.000 N 
ATOM      9  H   UNL     1      43.556   4.390  11.059  0.00  0.00    +0.000 HD
BRANCH   8  10
ATOM     10  C   UNL     1      44.971   2.904  10.718  0.00  0.00    +0.000 C 
BRANCH  10  11
ATOM     11  C   UNL     1      44.318   2.766   9.325  0.00  0.00    +0.000 C 
ATOM     12  C   UNL     1      44.539   3.982   8.412  0.00  0.00    +0.000 C 
ATOM     13  C   UNL     1      46.016   4.140   8.065  0.00  0.00    +0.000 C 
ATOM     14  C   UNL     1      46.570   2.853   7.446  0.00  0.00    +0.000 C 
ATOM     15  N   UNL     1      46.318   1.674   8.289  0.00  0.00    +0.000 NA
ATOM     16  C   UNL     1      46.832   0.470   7.631  0.00  0.00    +0.000 C 
ATOM     17  C   UNL     1      44.886   1.521   8.606  0.00  0.00    +0.000 C 
ENDBRANCH  10  11
ENDBRANCH   8  10
ENDBRANCH   5   8
ENDBRANCH   1   2
BRANCH   1  20
ATOM     18  C   UNL     1      48.880   7.975  15.442  0.00  0.00    +0.000 C 
ATOM     19  O   UNL     1      49.911   7.819  14.791  0.00  0.00    +0.000 OA
ATOM     20  N   UNL     1      47.687   8.244  14.827  0.00  0.00    +0.000 N 
ATOM     21  H   UNL     1      46.848   8.364  15.374  0.00  0.00    +0.000 HD
BRANCH  18  29
ATOM     22  C   UNL     1      48.618   5.333  17.624  0.00  0.00    +0.000 A 
ATOM     23  N   UNL     1      48.577   4.488  18.679  0.00  0.00    +0.000 NA
ATOM     24  C   UNL     1      48.671   5.022  19.900  0.00  0.00    +0.000 A 
ATOM     25  N   UNL     1      48.790   6.309  20.212  0.00  0.00    +0.000 NA
ATOM     26  C   UNL     1      48.837   7.110  19.134  0.00  0.00    +0.000 A 
ATOM     27  S   UNL     1      48.981   8.787  19.340  0.00  0.00    +0.000 S 
ATOM     28  C   UNL     1      48.979   9.043  17.659  0.00  0.00    +0.000 A 
ATOM     29  C   UNL     1      48.876   7.875  16.912  0.00  0.00    +0.000 A 
ATOM     30  C   UNL     1      48.773   6.719  17.801  0.00  0.00    +0.000 A 
BRANCH  22  32
ATOM     31  C   UNL     1      47.562   3.755  16.256  0.00  0.00    +0.000 C 
ATOM     32  O   UNL     1      48.528   4.791  16.361  0.00  0.00    +0.000 OA
ENDBRANCH  22  32
ENDBRANCH  18  29
ENDBRANCH   1  20
TORSDOF 7
ENDMDL
MODEL 3
REMARK VINA RESULT:    -7.203      2.807      4.383
REMARK INTER + INTRA:         -11.242
REMARK INTER:                 -10.068
REMARK INTRA:                  -1.174
REMARK UNBOUND:                -1.091
REMARK  Name = 
REMARK  9 active torsions:
REMARK  status: ('A' for Active; 'I' for Inactive)
REMARK    1  A    between atoms: C_1  and  O_2
REMARK    2  A    between atoms: O_2  and  C_3
REMARK    3  A    between atoms: C_10  and  C_11
REMARK    4  A    between atoms: N_13  and  C_14
REMARK    5  A    between atoms: C_14  and  C_15
REMARK    6  A    between atoms: C_18  and  N_19
REMARK    7  A    between atoms: N_19  and  C_20
REMARK    8  A    between atoms: C_20  and  C_21
REMARK    9  A    between atoms: N_25  and  C_26
REMARK                            x       y       z     vdW  Elec       q    Type
REMARK                         _______ _______ _______ _____ _____    ______ ____
ROOT
ATOM      1  C   UNL     1      48.615   6.754  14.366  0.00  0.00    +0.000 C 
ENDROOT
BRANCH   1   2
ATOM      2  C   UNL     1      47.441   6.187  13.608  0.00  0.00    +0.000 A 
ATOM      3  C   UNL     1      47.040   6.749  12.392  0.00  0.00    +0.000 A 
ATOM      4  C   UNL     1      46.069   6.120  11.601  0.00  0.00    +0.000 A 
ATOM      5  C   UNL     1      45.484   4.912  11.996  0.00  0.00    +0.000 A 
ATOM      6  C   UNL     1      45.760   4.453  13.287  0.00  0.00    +0.000 A 
ATOM      7  C   UNL     1      46.740   5.070  14.080  0.00  0.00    +0.000 A 
BRANCH   5   8
ATOM      8  N   UNL     1      44.561   4.190  11.207  0.00  0.00    +0.000 N 
ATOM      9  H   UNL     1      44.111   4.835  10.561  0.00  0.00    +0.000 HD
BRANCH   8  10
ATOM     10  C   UNL     1      45.121   3.018  10.510  0.00  0.00    +0.000 C 
BRANCH  10  11
ATOM     11  C   UNL     1      44.443   2.759   9.146  0.00  0.00    +0.000 C 
ATOM     12  C   UNL     1      44.724   3.845   8.097  0.00  0.00    +0.000 C 
ATOM     13  C   UNL     1      46.203   3.874   7.725  0.00  0.00    +0.000 C 
ATOM     14  C   UNL     1      46.673   2.494   7.258  0.00  0.00    +0.000 C 
ATOM     15  N   UNL     1      46.364   1.437   8.234  0.00  0.00    +0.000 NA
ATOM     16  C   UNL     1      46.799   0.137   7.718  0.00  0.00    +0.000 C 
ATOM     17  C   UNL     1      44.929   1.407   8.574  0.00  0.00    +0.000 C 
ENDBRANCH  10  11
ENDBRANCH   8  10
ENDBRANCH   5   8
ENDBRANCH   1   2
BRANCH   1  20
ATOM     18  C   UNL     1      49.035   6.303  16.750  0.00  0.00    +0.000 C 
ATOM     19  O   UNL     1      49.961   5.542  16.481  0.00  0.00    +0.000 OA
ATOM     20  N   UNL     1      48.330   6.940  15.763  0.00  0.00    +0.000 N 
ATOM     21  H   UNL     1      47.568   7.558  16.000  0.00  0.00    +0.000 HD
BRANCH  18  29
ATOM     22  C   UNL     1      47.779   9.067  18.360  0.00  0.00    +0.000 A 
ATOM     23  N   UNL     1      47.250   9.976  19.210  0.00  0.00    +0.000 NA
ATOM     24  C   UNL     1      47.051   9.594  20.474  0.00  0.00    +0.000 A 
ATOM     25  N   UNL     1      47.326   8.410  21.013  0.00  0.00    +0.000 NA
ATOM     26  C   UNL     1      47.840   7.536  20.131  0.00  0.00    +0.000 A 
ATOM     27  S   UNL     1      48.258   5.974  20.643  0.00  0.00    +0.000 S 
ATOM     28  C   UNL     1      48.772   5.548  19.079  0.00  0.00    +0.000 A 
ATOM     29  C   UNL     1      48.635   6.566  18.143  0.00  0.00    +0.000 A 
ATOM     30  C   UNL     1      48.091   7.764  18.783  0.00  0.00    +0.000 A 
BRANCH  22  32
ATOM     31  C   UNL     1      49.097  10.316  16.882  0.00  0.00    +0.000 C 
ATOM     32  O   UNL     1      47.983   9.451  17.052  0.00  0.00    +0.000 OA
ENDBRANCH  22  32
ENDBRANCH  18  29
ENDBRANCH   1  20
TORSDOF 7
ENDMDL
MODEL 4
REMARK VINA RESULT:    -6.631      3.410      9.218
REMARK INTER + INTRA:         -10.435
REMARK INTER:                  -8.979
REMARK INTRA:                  -1.456
REMARK UNBOUND:                -1.091
REMARK  Name = 
REMARK  9 active torsions:
REMARK  status: ('A' for Active; 'I' for Inactive)
REMARK    1  A    between atoms: C_1  and  O_2
REMARK    2  A    between atoms: O_2  and  C_3
REMARK    3  A    between atoms: C_10  and  C_11
REMARK    4  A    between atoms: N_13  and  C_14
REMARK    5  A    between atoms: C_14  and  C_15
REMARK    6  A    between atoms: C_18  and  N_19
REMARK    7  A    between atoms: N_19  and  C_20
REMARK    8  A    between atoms: C_20  and  C_21
REMARK    9  A    between atoms: N_25  and  C_26
REMARK                            x       y       z     vdW  Elec       q    Type
REMARK                         _______ _______ _______ _____ _____    ______ ____
ROOT
ATOM      1  C   UNL     1      47.142   3.328  16.995  0.00  0.00    +0.000 C 
ENDROOT
BRANCH   1   2
ATOM      2  C   UNL     1      48.531   3.444  17.572  0.00  0.00    +0.000 A 
ATOM      3  C   UNL     1      49.554   2.594  17.141  0.00  0.00    +0.000 A 
ATOM      4  C   UNL     1      50.879   2.813  17.540  0.00  0.00    +0.000 A 
ATOM      5  C   UNL     1      51.218   3.891  18.367  0.00  0.00    +0.000 A 
ATOM      6  C   UNL     1      50.171   4.624  18.932  0.00  0.00    +0.000 A 
ATOM      7  C   UNL     1      48.843   4.419  18.528  0.00  0.00    +0.000 A 
BRANCH   5   8
ATOM      8  N   UNL     1      52.543   4.211  18.739  0.00  0.00    +0.000 N 
ATOM      9  H   UNL     1      52.836   3.575  19.477  0.00  0.00    +0.000 HD
BRANCH   8  10
ATOM     10  C   UNL     1      53.510   4.243  17.627  0.00  0.00    +0.000 C 
BRANCH  10  11
ATOM     11  C   UNL     1      54.486   5.436  17.724  0.00  0.00    +0.000 C 
ATOM     12  C   UNL     1      54.822   6.076  16.368  0.00  0.00    +0.000 C 
ATOM     13  C   UNL     1      53.585   6.718  15.749  0.00  0.00    +0.000 C 
ATOM     14  C   UNL     1      52.953   7.725  16.715  0.00  0.00    +0.000 C 
ATOM     15  N   UNL     1      52.674   7.135  18.034  0.00  0.00    +0.000 NA
ATOM     16  C   UNL     1      52.110   8.151  18.926  0.00  0.00    +0.000 C 
ATOM     17  C   UNL     1      53.880   6.531  18.632  0.00  0.00    +0.000 C 
ENDBRANCH  10  11
ENDBRANCH   8  10
ENDBRANCH   5   8
ENDBRANCH   1   2
BRANCH   1  20
ATOM     18  C   UNL     1      47.025   4.144  14.675  0.00  0.00    +0.000 C 
ATOM     19  O   UNL     1      47.409   3.063  14.236  0.00  0.00    +0.000 OA
ATOM     20  N   UNL     1      46.865   4.348  16.020  0.00  0.00    +0.000 N 
ATOM     21  H   UNL     1      46.554   5.243  16.365  0.00  0.00    +0.000 HD
BRANCH  18  29
ATOM     22  C   UNL     1      44.309   4.946  12.728  0.00  0.00    +0.000 A 
ATOM     23  N   UNL     1      43.375   5.506  11.926  0.00  0.00    +0.000 NA
ATOM     24  C   UNL     1      43.673   6.680  11.362  0.00  0.00    +0.000 A 
ATOM     25  N   UNL     1      44.802   7.372  11.485  0.00  0.00    +0.000 NA
ATOM     26  C   UNL     1      45.695   6.783  12.298  0.00  0.00    +0.000 A 
ATOM     27  S   UNL     1      47.198   7.520  12.568  0.00  0.00    +0.000 S 
ATOM     28  C   UNL     1      47.680   6.266  13.610  0.00  0.00    +0.000 A 
ATOM     29  C   UNL     1      46.721   5.274  13.779  0.00  0.00    +0.000 A 
ATOM     30  C   UNL     1      45.538   5.579  12.976  0.00  0.00    +0.000 A 
BRANCH  22  32
ATOM     31  C   UNL     1      43.613   2.736  12.393  0.00  0.00    +0.000 C 
ATOM     32  O   UNL     1      44.008   3.738  13.320  0.00  0.00    +0.000 OA
ENDBRANCH  22  32
ENDBRANCH  18  29
ENDBRANCH   1  20
TORSDOF 7
ENDMDL
MODEL 5
REMARK VINA RESULT:    -6.551      2.711      3.604
REMARK INTER + INTRA:         -10.323
REMARK INTER:                  -8.427
REMARK INTRA:                  -1.896
REMARK UNBOUND:                -1.091
REMARK  Name = 
REMARK  9 active torsions:
REMARK  status: ('A' for Active; 'I' for Inactive)
REMARK    1  A    between atoms: C_1  and  O_2
REMARK    2  A    between atoms: O_2  and  C_3
REMARK    3  A    between atoms: C_10  and  C_11
REMARK    4  A    between atoms: N_13  and  C_14
REMARK    5  A    between atoms: C_14  and  C_15
REMARK    6  A    between atoms: C_18  and  N_19
REMARK    7  A    between atoms: N_19  and  C_20
REMARK    8  A    between atoms: C_20  and  C_21
REMARK    9  A    between atoms: N_25  and  C_26
REMARK                            x       y       z     vdW  Elec       q    Type
REMARK                         _______ _______ _______ _____ _____    ______ ____
ROOT
ATOM      1  C   UNL     1      48.010   8.997  14.751  0.00  0.00    +0.000 C 
ENDROOT
BRANCH   1   2
ATOM      2  C   UNL     1      47.339   8.508  13.491  0.00  0.00    +0.000 A 
ATOM      3  C   UNL     1      47.971   7.574  12.665  0.00  0.00    +0.000 A 
ATOM      4  C   UNL     1      47.282   6.985  11.596  0.00  0.00    +0.000 A 
ATOM      5  C   UNL     1      45.945   7.304  11.333  0.00  0.00    +0.000 A 
ATOM      6  C   UNL     1      45.380   8.362  12.050  0.00  0.00    +0.000 A 
ATOM      7  C   UNL     1      46.059   8.948  13.130  0.00  0.00    +0.000 A 
BRANCH   5   8
ATOM      8  N   UNL     1      45.174   6.687  10.322  0.00  0.00    +0.000 N 
ATOM      9  H   UNL     1      45.097   7.328   9.535  0.00  0.00    +0.000 HD
BRANCH   8  10
ATOM     10  C   UNL     1      45.649   5.358   9.901  0.00  0.00    +0.000 C 
BRANCH  10  11
ATOM     11  C   UNL     1      44.510   4.318   9.816  0.00  0.00    +0.000 C 
ATOM     12  C   UNL     1      44.927   2.902  10.242  0.00  0.00    +0.000 C 
ATOM     13  C   UNL     1      45.293   2.865  11.723  0.00  0.00    +0.000 C 
ATOM     14  C   UNL     1      44.144   3.404  12.580  0.00  0.00    +0.000 C 
ATOM     15  N   UNL     1      43.702   4.739  12.148  0.00  0.00    +0.000 NA
ATOM     16  C   UNL     1      42.578   5.185  12.976  0.00  0.00    +0.000 C 
ATOM     17  C   UNL     1      43.335   4.761  10.720  0.00  0.00    +0.000 C 
ENDBRANCH  10  11
ENDBRANCH   8  10
ENDBRANCH   5   8
ENDBRANCH   1   2
BRANCH   1  20
ATOM     18  C   UNL     1      49.072   7.870  16.665  0.00  0.00    +0.000 C 
ATOM     19  O   UNL     1      50.046   8.617  16.612  0.00  0.00    +0.000 OA
ATOM     20  N   UNL     1      48.029   7.999  15.786  0.00  0.00    +0.000 N 
ATOM     21  H   UNL     1      47.239   7.374  15.839  0.00  0.00    +0.000 HD
BRANCH  18  29
ATOM     22  C   UNL     1      48.194   4.551  16.499  0.00  0.00    +0.000 A 
ATOM     23  N   UNL     1      47.938   3.239  16.702  0.00  0.00    +0.000 NA
ATOM     24  C   UNL     1      48.077   2.769  17.945  0.00  0.00    +0.000 A 
ATOM     25  N   UNL     1      48.432   3.451  19.031  0.00  0.00    +0.000 NA
ATOM     26  C   UNL     1      48.686   4.746  18.780  0.00  0.00    +0.000 A 
ATOM     27  S   UNL     1      49.146   5.771  20.050  0.00  0.00    +0.000 S 
ATOM     28  C   UNL     1      49.273   7.099  18.996  0.00  0.00    +0.000 A 
ATOM     29  C   UNL     1      48.978   6.797  17.671  0.00  0.00    +0.000 A 
ATOM     30  C   UNL     1      48.609   5.388  17.549  0.00  0.00    +0.000 A 
BRANCH  22  32
ATOM     31  C   UNL     1      46.830   4.686  14.602  0.00  0.00    +0.000 C 
ATOM     32  O   UNL     1      48.059   5.043  15.219  0.00  0.00    +0.000 OA
ENDBRANCH  22  32
ENDBRANCH  18  29
ENDBRANCH   1  20
TORSDOF 7
ENDMDL
MODEL 6
REMARK VINA RESULT:    -6.472      3.423      8.509
REMARK INTER + INTRA:         -10.212
REMARK INTER:                  -8.579
REMARK INTRA:                  -1.633
REMARK UNBOUND:                -1.091
REMARK  Name = 
REMARK  9 active torsions:
REMARK  status: ('A' for Active; 'I' for Inactive)
REMARK    1  A    between atoms: C_1  and  O_2
REMARK    2  A    between atoms: O_2  and  C_3
REMARK    3  A    between atoms: C_10  and  C_11
REMARK    4  A    between atoms: N_13  and  C_14
REMARK    5  A    between atoms: C_14  and  C_15
REMARK    6  A    between atoms: C_18  and  N_19
REMARK    7  A    between atoms: N_19  and  C_20
REMARK    8  A    between atoms: C_20  and  C_21
REMARK    9  A    between atoms: N_25  and  C_26
REMARK                            x       y       z     vdW  Elec       q    Type
REMARK                         _______ _______ _______ _____ _____    ______ ____
ROOT
ATOM      1  C   UNL     1      48.335   8.145  11.803  0.00  0.00    +0.000 C 
ENDROOT
BRANCH   1   2
ATOM      2  C   UNL     1      48.607   8.012  13.280  0.00  0.00    +0.000 A 
ATOM      3  C   UNL     1      47.960   8.842  14.200  0.00  0.00    +0.000 A 
ATOM      4  C   UNL     1      48.073   8.605  15.577  0.00  0.00    +0.000 A 
ATOM      5  C   UNL     1      48.822   7.530  16.068  0.00  0.00    +0.000 A 
ATOM      6  C   UNL     1      49.604   6.818  15.154  0.00  0.00    +0.000 A 
ATOM      7  C   UNL     1      49.487   7.041  13.774  0.00  0.00    +0.000 A 
BRANCH   5   8
ATOM      8  N   UNL     1      48.910   7.192  17.438  0.00  0.00    +0.000 N 
ATOM      9  H   UNL     1      48.681   8.016  17.991  0.00  0.00    +0.000 HD
BRANCH   8  10
ATOM     10  C   UNL     1      48.111   6.022  17.841  0.00  0.00    +0.000 C 
BRANCH  10  11
ATOM     11  C   UNL     1      48.802   5.180  18.936  0.00  0.00    +0.000 C 
ATOM     12  C   UNL     1      48.489   3.678  18.856  0.00  0.00    +0.000 C 
ATOM     13  C   UNL     1      49.054   3.073  17.574  0.00  0.00    +0.000 C 
ATOM     14  C   UNL     1      50.555   3.349  17.457  0.00  0.00    +0.000 C 
ATOM     15  N   UNL     1      50.871   4.781  17.584  0.00  0.00    +0.000 NA
ATOM     16  C   UNL     1      52.321   4.981  17.505  0.00  0.00    +0.000 C 
ATOM     17  C   UNL     1      50.336   5.353  18.834  0.00  0.00    +0.000 C 
ENDBRANCH  10  11
ENDBRANCH   8  10
ENDBRANCH   5   8
ENDBRANCH   1   2
BRANCH   1  20
ATOM     18  C   UNL     1      46.244   6.932  11.331  0.00  0.00    +0.000 C 
ATOM     19  O   UNL     1      45.569   7.826  11.837  0.00  0.00    +0.000 OA
ATOM     20  N   UNL     1      47.610   7.021  11.274  0.00  0.00    +0.000 N 
ATOM     21  H   UNL     1      48.151   6.277  10.861  0.00  0.00    +0.000 HD
BRANCH  18  29
ATOM     22  C   UNL     1      44.547   4.288  12.723  0.00  0.00    +0.000 A 
ATOM     23  N   UNL     1      43.826   3.178  13.002  0.00  0.00    +0.000 NA
ATOM     24  C   UNL     1      43.471   2.401  11.976  0.00  0.00    +0.000 A 
ATOM     25  N   UNL     1      43.756   2.581  10.689  0.00  0.00    +0.000 NA
ATOM     26  C   UNL     1      44.463   3.700  10.458  0.00  0.00    +0.000 A 
ATOM     27  S   UNL     1      44.923   4.090   8.873  0.00  0.00    +0.000 S 
ATOM     28  C   UNL     1      45.698   5.510   9.396  0.00  0.00    +0.000 A 
ATOM     29  C   UNL     1      45.621   5.722  10.768  0.00  0.00    +0.000 A 
ATOM     30  C   UNL     1      44.894   4.624  11.404  0.00  0.00    +0.000 A 
BRANCH  22  32
ATOM     31  C   UNL     1      46.233   4.861  14.242  0.00  0.00    +0.000 C 
ATOM     32  O   UNL     1      44.913   5.100  13.775  0.00  0.00    +0.000 OA
ENDBRANCH  22  32
ENDBRANCH  18  29
ENDBRANCH   1  20
TORSDOF 7
ENDMDL
MODEL 7
REMARK VINA RESULT:    -6.387      2.417      4.250
REMARK INTER + INTRA:         -10.092
REMARK INTER:                  -8.827
REMARK INTRA:                  -1.266
REMARK UNBOUND:                -1.091
REMARK  Name = 
REMARK  9 active torsions:
REMARK  status: ('A' for Active; 'I' for Inactive)
REMARK    1  A    between atoms: C_1  and  O_2
REMARK    2  A    between atoms: O_2  and  C_3
REMARK    3  A    between atoms: C_10  and  C_11
REMARK    4  A    between atoms: N_13  and  C_14
REMARK    5  A    between atoms: C_14  and  C_15
REMARK    6  A    between atoms: C_18  and  N_19
REMARK    7  A    between atoms: N_19  and  C_20
REMARK    8  A    between atoms: C_20  and  C_21
REMARK    9  A    between atoms: N_25  and  C_26
REMARK                            x       y       z     vdW  Elec       q    Type
REMARK                         _______ _______ _______ _____ _____    ______ ____
ROOT
ATOM      1  C   UNL     1      48.422   3.174  17.923  0.00  0.00    +0.000 C 
ENDROOT
BRANCH   1   2
ATOM      2  C   UNL     1      48.179   4.029  16.705  0.00  0.00    +0.000 A 
ATOM      3  C   UNL     1      47.426   3.540  15.632  0.00  0.00    +0.000 A 
ATOM      4  C   UNL     1      47.049   4.387  14.581  0.00  0.00    +0.000 A 
ATOM      5  C   UNL     1      47.401   5.742  14.580  0.00  0.00    +0.000 A 
ATOM      6  C   UNL     1      48.297   6.176  15.561  0.00  0.00    +0.000 A 
ATOM      7  C   UNL     1      48.670   5.338  16.623  0.00  0.00    +0.000 A 
BRANCH   5   8
ATOM      8  N   UNL     1      46.984   6.663  13.593  0.00  0.00    +0.000 N 
ATOM      9  H   UNL     1      47.545   7.508  13.679  0.00  0.00    +0.000 HD
BRANCH   8  10
ATOM     10  C   UNL     1      46.988   6.140  12.215  0.00  0.00    +0.000 C 
BRANCH  10  11
ATOM     11  C   UNL     1      45.786   6.643  11.386  0.00  0.00    +0.000 C 
ATOM     12  C   UNL     1      45.608   5.915  10.044  0.00  0.00    +0.000 C 
ATOM     13  C   UNL     1      45.260   4.446  10.266  0.00  0.00    +0.000 C 
ATOM     14  C   UNL     1      44.024   4.308  11.158  0.00  0.00    +0.000 C 
ATOM     15  N   UNL     1      44.163   5.045  12.424  0.00  0.00    +0.000 NA
ATOM     16  C   UNL     1      42.938   4.910  13.218  0.00  0.00    +0.000 C 
ATOM     17  C   UNL     1      44.483   6.467  12.200  0.00  0.00    +0.000 C 
ENDBRANCH  10  11
ENDBRANCH   8  10
ENDBRANCH   5   8
ENDBRANCH   1   2
BRANCH   1  20
ATOM     18  C   UNL     1      50.555   2.127  17.280  0.00  0.00    +0.000 C 
ATOM     19  O   UNL     1      50.051   1.629  16.276  0.00  0.00    +0.000 OA
ATOM     20  N   UNL     1      49.819   2.903  18.135  0.00  0.00    +0.000 N 
ATOM     21  H   UNL     1      50.246   3.300  18.958  0.00  0.00    +0.000 HD
BRANCH  18  29
ATOM     22  C   UNL     1      53.112   4.240  18.179  0.00  0.00    +0.000 A 
ATOM     23  N   UNL     1      54.260   4.831  18.582  0.00  0.00    +0.000 NA
ATOM     24  C   UNL     1      55.317   4.044  18.794  0.00  0.00    +0.000 A 
ATOM     25  N   UNL     1      55.385   2.724  18.642  0.00  0.00    +0.000 NA
ATOM     26  C   UNL     1      54.221   2.179  18.250  0.00  0.00    +0.000 A 
ATOM     27  S   UNL     1      54.122   0.504  17.999  0.00  0.00    +0.000 S 
ATOM     28  C   UNL     1      52.480   0.617  17.572  0.00  0.00    +0.000 A 
ATOM     29  C   UNL     1      51.974   1.911  17.615  0.00  0.00    +0.000 A 
ATOM     30  C   UNL     1      53.027   2.848  18.006  0.00  0.00    +0.000 A 
BRANCH  22  32
ATOM     31  C   UNL     1      52.185   5.962  16.893  0.00  0.00    +0.000 C 
ATOM     32  O   UNL     1      52.014   5.044  17.963  0.00  0.00    +0.000 OA
ENDBRANCH  22  32
ENDBRANCH  18  29
ENDBRANCH   1  20
TORSDOF 7
ENDMDL
MODEL 8
REMARK VINA RESULT:    -6.367      1.326      2.142
REMARK INTER + INTRA:         -10.064
REMARK INTER:                  -8.769
REMARK INTRA:                  -1.296
REMARK UNBOUND:                -1.091
REMARK  Name = 
REMARK  9 active torsions:
REMARK  status: ('A' for Active; 'I' for Inactive)
REMARK    1  A    between atoms: C_1  and  O_2
REMARK    2  A    between atoms: O_2  and  C_3
REMARK    3  A    between atoms: C_10  and  C_11
REMARK    4  A    between atoms: N_13  and  C_14
REMARK    5  A    between atoms: C_14  and  C_15
REMARK    6  A    between atoms: C_18  and  N_19
REMARK    7  A    between atoms: N_19  and  C_20
REMARK    8  A    between atoms: C_20  and  C_21
REMARK    9  A    between atoms: N_25  and  C_26
REMARK                            x       y       z     vdW  Elec       q    Type
REMARK                         _______ _______ _______ _____ _____    ______ ____
ROOT
ATOM      1  C   UNL     1      50.036   7.693  15.018  0.00  0.00    +0.000 C 
ENDROOT
BRANCH   1   2
ATOM      2  C   UNL     1      48.838   7.186  14.254  0.00  0.00    +0.000 A 
ATOM      3  C   UNL     1      48.489   7.752  13.024  0.00  0.00    +0.000 A 
ATOM      4  C   UNL     1      47.491   7.170  12.230  0.00  0.00    +0.000 A 
ATOM      5  C   UNL     1      46.827   6.007  12.636  0.00  0.00    +0.000 A 
ATOM      6  C   UNL     1      47.058   5.554  13.939  0.00  0.00    +0.000 A 
ATOM      7  C   UNL     1      48.065   6.123  14.735  0.00  0.00    +0.000 A 
BRANCH   5   8
ATOM      8  N   UNL     1      45.871   5.329  11.847  0.00  0.00    +0.000 N 
ATOM      9  H   UNL     1      44.941   5.598  12.162  0.00  0.00    +0.000 HD
BRANCH   8  10
ATOM     10  C   UNL     1      46.029   5.505  10.392  0.00  0.00    +0.000 C 
BRANCH  10  11
ATOM     11  C   UNL     1      44.743   5.161   9.609  0.00  0.00    +0.000 C 
ATOM     12  C   UNL     1      44.983   4.267   8.382  0.00  0.00    +0.000 C 
ATOM     13  C   UNL     1      45.487   2.891   8.803  0.00  0.00    +0.000 C 
ATOM     14  C   UNL     1      44.526   2.241   9.803  0.00  0.00    +0.000 C 
ATOM     15  N   UNL     1      44.249   3.110  10.957  0.00  0.00    +0.000 NA
ATOM     16  C   UNL     1      43.295   2.456  11.857  0.00  0.00    +0.000 C 
ATOM     17  C   UNL     1      43.747   4.433  10.542  0.00  0.00    +0.000 C 
ENDBRANCH  10  11
ENDBRANCH   8  10
ENDBRANCH   5   8
ENDBRANCH   1   2
BRANCH   1  20
ATOM     18  C   UNL     1      50.773   6.317  16.923  0.00  0.00    +0.000 C 
ATOM     19  O   UNL     1      50.051   6.939  17.699  0.00  0.00    +0.000 OA
ATOM     20  N   UNL     1      50.815   6.627  15.589  0.00  0.00    +0.000 N 
ATOM     21  H   UNL     1      51.417   6.111  14.966  0.00  0.00    +0.000 HD
BRANCH  18  29
ATOM     22  C   UNL     1      50.352   2.910  17.073  0.00  0.00    +0.000 A 
ATOM     23  N   UNL     1      50.460   1.568  17.202  0.00  0.00    +0.000 NA
ATOM     24  C   UNL     1      51.606   1.087  17.691  0.00  0.00    +0.000 A 
ATOM     25  N   UNL     1      52.670   1.780  18.085  0.00  0.00    +0.000 NA
ATOM     26  C   UNL     1      52.522   3.107  17.929  0.00  0.00    +0.000 A 
ATOM     27  S   UNL     1      53.779   4.151  18.386  0.00  0.00    +0.000 S 
ATOM     28  C   UNL     1      52.885   5.515  17.904  0.00  0.00    +0.000 A 
ATOM     29  C   UNL     1      51.630   5.213  17.387  0.00  0.00    +0.000 A 
ATOM     30  C   UNL     1      51.410   3.767  17.420  0.00  0.00    +0.000 A 
BRANCH  22  32
ATOM     31  C   UNL     1      48.062   3.241  17.430  0.00  0.00    +0.000 C 
ATOM     32  O   UNL     1      49.175   3.415  16.564  0.00  0.00    +0.000 OA
ENDBRANCH  22  32
ENDBRANCH  18  29
ENDBRANCH   1  20
TORSDOF 7
ENDMDL
MODEL 9
REMARK VINA RESULT:    -6.342      3.444      8.993
REMARK INTER + INTRA:         -10.028
REMARK INTER:                  -8.541
REMARK INTRA:                  -1.487
REMARK UNBOUND:                -1.091
REMARK  Name = 
REMARK  9 active torsions:
REMARK  status: ('A' for Active; 'I' for Inactive)
REMARK    1  A    between atoms: C_1  and  O_2
REMARK    2  A    between atoms: O_2  and  C_3
REMARK    3  A    between atoms: C_10  and  C_11
REMARK    4  A    between atoms: N_13  and  C_14
REMARK    5  A    between atoms: C_14  and  C_15
REMARK    6  A    between atoms: C_18  and  N_19
REMARK    7  A    between atoms: N_19  and  C_20
REMARK    8  A    between atoms: C_20  and  C_21
REMARK    9  A    between atoms: N_25  and  C_26
REMARK                            x       y       z     vdW  Elec       q    Type
REMARK                         _______ _______ _______ _____ _____    ______ ____
ROOT
ATOM      1  C   UNL     1      49.367   7.881  15.220  0.00  0.00    +0.000 C 
ENDROOT
BRANCH   1   2
ATOM      2  C   UNL     1      49.847   6.837  16.198  0.00  0.00    +0.000 A 
ATOM      3  C   UNL     1      48.932   6.073  16.929  0.00  0.00    +0.000 A 
ATOM      4  C   UNL     1      49.366   4.986  17.700  0.00  0.00    +0.000 A 
ATOM      5  C   UNL     1      50.718   4.628  17.752  0.00  0.00    +0.000 A 
ATOM      6  C   UNL     1      51.639   5.500  17.164  0.00  0.00    +0.000 A 
ATOM      7  C   UNL     1      51.212   6.582  16.380  0.00  0.00    +0.000 A 
BRANCH   5   8
ATOM      8  N   UNL     1      51.207   3.498  18.446  0.00  0.00    +0.000 N 
ATOM      9  H   UNL     1      50.422   3.024  18.888  0.00  0.00    +0.000 HD
BRANCH   8  10
ATOM     10  C   UNL     1      52.019   2.574  17.635  0.00  0.00    +0.000 C 
BRANCH  10  11
ATOM     11  C   UNL     1      53.231   2.012  18.410  0.00  0.00    +0.000 C 
ATOM     12  C   UNL     1      54.487   1.821  17.545  0.00  0.00    +0.000 C 
ATOM     13  C   UNL     1      55.013   3.163  17.047  0.00  0.00    +0.000 C 
ATOM     14  C   UNL     1      55.265   4.118  18.218  0.00  0.00    +0.000 C 
ATOM     15  N   UNL     1      54.084   4.268  19.082  0.00  0.00    +0.000 NA
ATOM     16  C   UNL     1      54.395   5.158  20.204  0.00  0.00    +0.000 C 
ATOM     17  C   UNL     1      53.592   2.967  19.572  0.00  0.00    +0.000 C 
ENDBRANCH  10  11
ENDBRANCH   8  10
ENDBRANCH   5   8
ENDBRANCH   1   2
BRANCH   1  20
ATOM     18  C   UNL     1      48.112   6.793  13.403  0.00  0.00    +0.000 C 
ATOM     19  O   UNL     1      49.149   6.433  12.852  0.00  0.00    +0.000 OA
ATOM     20  N   UNL     1      48.139   7.504  14.573  0.00  0.00    +0.000 N 
ATOM     21  H   UNL     1      47.279   7.797  15.011  0.00  0.00    +0.000 HD
BRANCH  18  29
ATOM     22  C   UNL     1      46.303   3.888  13.093  0.00  0.00    +0.000 A 
ATOM     23  N   UNL     1      45.384   2.917  12.885  0.00  0.00    +0.000 NA
ATOM     24  C   UNL     1      44.233   3.272  12.308  0.00  0.00    +0.000 A 
ATOM     25  N   UNL     1      43.878   4.485  11.893  0.00  0.00    +0.000 NA
ATOM     26  C   UNL     1      44.815   5.418  12.129  0.00  0.00    +0.000 A 
ATOM     27  S   UNL     1      44.537   7.024  11.660  0.00  0.00    +0.000 S 
ATOM     28  C   UNL     1      46.050   7.513  12.263  0.00  0.00    +0.000 A 
ATOM     29  C   UNL     1      46.789   6.482  12.832  0.00  0.00    +0.000 A 
ATOM     30  C   UNL     1      46.052   5.223  12.734  0.00  0.00    +0.000 A 
BRANCH  22  32
ATOM     31  C   UNL     1      47.395   3.397  15.104  0.00  0.00    +0.000 C 
ATOM     32  O   UNL     1      47.491   3.532  13.693  0.00  0.00    +0.000 OA
ENDBRANCH  22  32
ENDBRANCH  18  29
ENDBRANCH   1  20
TORSDOF 7
ENDMDL
