MODEL 1
REMARK VINA RESULT:    -7.872      0.000      0.000
REMARK INTER + INTRA:         -10.969
REMARK INTER:                 -10.173
REMARK INTRA:                  -0.795
REMARK UNBOUND:                -0.795
REMARK  Name = 
REMARK  6 active torsions:
REMARK  status: ('A' for Active; 'I' for Inactive)
REMARK    1  A    between atoms: C_1  and  C_2
REMARK    2  A    between atoms: C_2  and  C_3
REMARK    3  A    between atoms: C_2  and  C_14
REMARK    4  A    between atoms: C_3  and  N_4
REMARK    5  A    between atoms: N_4  and  C_5
REMARK    6  A    between atoms: C_8  and  C_9
REMARK                            x       y       z     vdW  Elec       q    Type
REMARK                         _______ _______ _______ _____ _____    ______ ____
ROOT
ATOM      1  N   UNL     1      43.730   3.366  10.413  0.00  0.00    +0.000 N 
ATOM      2  H   UNL     1      42.797   3.006  10.229  0.00  0.00    +0.000 HD
ENDROOT
BRANCH   1   3
ATOM      3  C   UNL     1      44.624   3.066   9.371  0.00  0.00    +0.000 A 
ATOM      4  C   UNL     1      45.120   1.779   9.121  0.00  0.00    +0.000 A 
ATOM      5  C   UNL     1      46.084   1.544   8.137  0.00  0.00    +0.000 A 
ATOM      6  C   UNL     1      46.598   2.602   7.389  0.00  0.00    +0.000 A 
ATOM      7  C   UNL     1      46.134   3.898   7.634  0.00  0.00    +0.000 A 
ATOM      8  C   UNL     1      45.157   4.122   8.617  0.00  0.00    +0.000 A 
BRANCH   6   9
ATOM      9  C   UNL     1      47.662   2.298   6.397  0.00  0.00    +0.000 C 
ATOM     10  N   UNL     1      47.739   3.087   5.285  0.00  0.00    +0.000 N 
ATOM     11  O   UNL     1      48.430   1.354   6.544  0.00  0.00    +0.000 OA
ATOM     12  H   UNL     1      46.996   3.709   5.004  0.00  0.00    +0.000 HD
ATOM     13  H   UNL     1      48.403   2.795   4.579  0.00  0.00    +0.000 HD
ENDBRANCH   6   9
ENDBRANCH   1   3
BRANCH   1  14
ATOM     14  C   UNL     1      44.181   3.143  11.777  0.00  0.00    +0.000 C 
BRANCH  14  16
ATOM     15  C   UNL     1      42.943   5.189  12.768  0.00  0.00    +0.000 C 
ATOM     16  C   UNL     1      44.215   4.421  12.562  0.00  0.00    +0.000 C 
BRANCH  16  17
ATOM     17  C   UNL     1      45.497   5.163  12.607  0.00  0.00    +0.000 A 
ATOM     18  C   UNL     1      45.851   6.053  11.585  0.00  0.00    +0.000 A 
ATOM     19  C   UNL     1      47.041   6.786  11.659  0.00  0.00    +0.000 A 
ATOM     20  C   UNL     1      47.894   6.634  12.749  0.00  0.00    +0.000 A 
ATOM     21  C   UNL     1      47.568   5.740  13.762  0.00  0.00    +0.000 A 
ATOM     22  C   UNL     1      46.381   5.008  13.688  0.00  0.00    +0.000 A 
ENDBRANCH  16  17
ENDBRANCH  14  16
ENDBRANCH   1  14
TORSDOF 5
ENDMDL
MODEL 2
REMARK VINA RESULT:    -7.859      1.572      2.011
REMARK INTER + INTRA:         -10.952
REMARK INTER:                 -10.119
REMARK INTRA:                  -0.832
REMARK UNBOUND:                -0.795
REMARK  Name = 
REMARK  6 active torsions:
REMARK  status: ('A' for Active; 'I' for Inactive)
REMARK    1  A    between atoms: C_1  and  C_2
REMARK    2  A    between atoms: C_2  and  C_3
REMARK    3  A    between atoms: C_2  and  C_14
REMARK    4  A    between atoms: C_3  and  N_4
REMARK    5  A    between atoms: N_4  and  C_5
REMARK    6  A    between atoms: C_8  and  C_9
REMARK                            x       y       z     vdW  Elec       q    Type
REMARK                         _______ _______ _______ _____ _____    ______ ____
ROOT
ATOM      1  N   UNL     1      43.947   5.079   9.890  0.00  0.00    +0.000 N 
ATOM      2  H   UNL     1      43.054   5.290   9.453  0.00  0.00    +0.000 HD
ENDROOT
BRANCH   1   3
ATOM      3  C   UNL     1      44.639   4.064   9.208  0.00  0.00    +0.000 A 
ATOM      4  C   UNL     1      44.484   2.698   9.484  0.00  0.00    +0.000 A 
ATOM      5  C   UNL     1      45.266   1.729   8.850  0.00  0.00    +0.000 A 
ATOM      6  C   UNL     1      46.248   2.106   7.934  0.00  0.00    +0.000 A 
ATOM      7  C   UNL     1      46.436   3.463   7.656  0.00  0.00    +0.000 A 
ATOM      8  C   UNL     1      45.637   4.428   8.291  0.00  0.00    +0.000 A 
BRANCH   6   9
ATOM      9  C   UNL     1      47.086   1.034   7.335  0.00  0.00    +0.000 C 
ATOM     10  N   UNL     1      46.803  -0.258   7.674  0.00  0.00    +0.000 N 
ATOM     11  O   UNL     1      48.021   1.290   6.585  0.00  0.00    +0.000 OA
ATOM     12  H   UNL     1      46.215  -0.502   8.458  0.00  0.00    +0.000 HD
ATOM     13  H   UNL     1      47.450  -0.958   7.335  0.00  0.00    +0.000 HD
ENDBRANCH   6   9
ENDBRANCH   1   3
BRANCH   1  14
ATOM     14  C   UNL     1      43.879   4.995  11.340  0.00  0.00    +0.000 C 
BRANCH  14  16
ATOM     15  C   UNL     1      45.681   3.968  12.890  0.00  0.00    +0.000 C 
ATOM     16  C   UNL     1      45.245   5.061  11.959  0.00  0.00    +0.000 C 
BRANCH  16  17
ATOM     17  C   UNL     1      45.864   6.398  12.109  0.00  0.00    +0.000 A 
ATOM     18  C   UNL     1      45.144   7.471  12.651  0.00  0.00    +0.000 A 
ATOM     19  C   UNL     1      45.751   8.717  12.834  0.00  0.00    +0.000 A 
ATOM     20  C   UNL     1      47.082   8.911  12.473  0.00  0.00    +0.000 A 
ATOM     21  C   UNL     1      47.806   7.864  11.916  0.00  0.00    +0.000 A 
ATOM     22  C   UNL     1      47.200   6.620  11.733  0.00  0.00    +0.000 A 
ENDBRANCH  16  17
ENDBRANCH  14  16
ENDBRANCH   1  14
TORSDOF 5
ENDMDL
MODEL 3
REMARK VINA RESULT:    -7.157      2.729      6.338
REMARK INTER + INTRA:         -10.044
REMARK INTER:                  -9.378
REMARK INTRA:                  -0.666
REMARK UNBOUND:                -0.795
REMARK  Name = 
REMARK  6 active torsions:
REMARK  status: ('A' for Active; 'I' for Inactive)
REMARK    1  A    between atoms: C_1  and  C_2
REMARK    2  A    between atoms: C_2  and  C_3
REMARK    3  A    between atoms: C_2  and  C_14
REMARK    4  A    between atoms: C_3  and  N_4
REMARK    5  A    between atoms: N_4  and  C_5
REMARK    6  A    between atoms: C_8  and  C_9
REMARK                            x       y       z     vdW  Elec       q    Type
REMARK                         _______ _______ _______ _____ _____    ______ ____
ROOT
ATOM      1  N   UNL     1      43.836   4.609  10.565  0.00  0.00    +0.000 N 
ATOM      2  H   UNL     1      42.963   5.121  10.663  0.00  0.00    +0.000 HD
ENDROOT
BRANCH   1   3
ATOM      3  C   UNL     1      44.825   5.085  11.442  0.00  0.00    +0.000 A 
ATOM      4  C   UNL     1      45.670   6.164  11.147  0.00  0.00    +0.000 A 
ATOM      5  C   UNL     1      46.706   6.539  12.007  0.00  0.00    +0.000 A 
ATOM      6  C   UNL     1      46.940   5.824  13.181  0.00  0.00    +0.000 A 
ATOM      7  C   UNL     1      46.123   4.732  13.488  0.00  0.00    +0.000 A 
ATOM      8  C   UNL     1      45.078   4.370  12.622  0.00  0.00    +0.000 A 
BRANCH   6   9
ATOM      9  C   UNL     1      48.092   6.236  14.026  0.00  0.00    +0.000 C 
ATOM     10  N   UNL     1      47.901   6.290  15.377  0.00  0.00    +0.000 N 
ATOM     11  O   UNL     1      49.171   6.549  13.537  0.00  0.00    +0.000 OA
ATOM     12  H   UNL     1      46.985   6.279  15.801  0.00  0.00    +0.000 HD
ATOM     13  H   UNL     1      48.666   6.671  15.918  0.00  0.00    +0.000 HD
ENDBRANCH   6   9
ENDBRANCH   1   3
BRANCH   1  14
ATOM     14  C   UNL     1      44.216   4.370   9.182  0.00  0.00    +0.000 C 
BRANCH  14  16
ATOM     15  C   UNL     1      44.229   1.914  10.001  0.00  0.00    +0.000 C 
ATOM     16  C   UNL     1      44.564   2.929   8.948  0.00  0.00    +0.000 C 
BRANCH  16  17
ATOM     17  C   UNL     1      45.683   2.637   8.023  0.00  0.00    +0.000 A 
ATOM     18  C   UNL     1      46.344   1.402   8.057  0.00  0.00    +0.000 A 
ATOM     19  C   UNL     1      47.368   1.116   7.147  0.00  0.00    +0.000 A 
ATOM     20  C   UNL     1      47.749   2.060   6.197  0.00  0.00    +0.000 A 
ATOM     21  C   UNL     1      47.118   3.298   6.162  0.00  0.00    +0.000 A 
ATOM     22  C   UNL     1      46.097   3.584   7.070  0.00  0.00    +0.000 A 
ENDBRANCH  16  17
ENDBRANCH  14  16
ENDBRANCH   1  14
TORSDOF 5
ENDMDL
MODEL 4
REMARK VINA RESULT:    -7.136      3.079      5.794
REMARK INTER + INTRA:         -10.017
REMARK INTER:                  -9.044
REMARK INTRA:                  -0.973
REMARK UNBOUND:                -0.795
REMARK  Name = 
REMARK  6 active torsions:
REMARK  status: ('A' for Active; 'I' for Inactive)
REMARK    1  A    between atoms: C_1  and  C_2
REMARK    2  A    between atoms: C_2  and  C_3
REMARK    3  A    between atoms: C_2  and  C_14
REMARK    4  A    between atoms: C_3  and  N_4
REMARK    5  A    between atoms: N_4  and  C_5
REMARK    6  A    between atoms: C_8  and  C_9
REMARK                            x       y       z     vdW  Elec       q    Type
REMARK                         _______ _______ _______ _____ _____    ______ ____
ROOT
ATOM      1  N   UNL     1      43.856   5.503  12.032  0.00  0.00    +0.000 N 
ATOM      2  H   UNL     1      43.249   6.212  12.437  0.00  0.00    +0.000 HD
ENDROOT
BRANCH   1   3
ATOM      3  C   UNL     1      45.213   5.774  12.274  0.00  0.00    +0.000 A 
ATOM      4  C   UNL     1      45.949   5.185  13.312  0.00  0.00    +0.000 A 
ATOM      5  C   UNL     1      47.269   5.559  13.578  0.00  0.00    +0.000 A 
ATOM      6  C   UNL     1      47.884   6.556  12.822  0.00  0.00    +0.000 A 
ATOM      7  C   UNL     1      47.164   7.173  11.794  0.00  0.00    +0.000 A 
ATOM      8  C   UNL     1      45.842   6.782  11.528  0.00  0.00    +0.000 A 
BRANCH   6   9
ATOM      9  C   UNL     1      49.270   6.950  13.188  0.00  0.00    +0.000 C 
ATOM     10  N   UNL     1      50.127   7.275  12.176  0.00  0.00    +0.000 N 
ATOM     11  O   UNL     1      49.651   6.955  14.353  0.00  0.00    +0.000 OA
ATOM     12  H   UNL     1      49.938   7.056  11.208  0.00  0.00    +0.000 HD
ATOM     13  H   UNL     1      51.088   7.439  12.444  0.00  0.00    +0.000 HD
ENDBRANCH   6   9
ENDBRANCH   1   3
BRANCH   1  14
ATOM     14  C   UNL     1      43.474   5.111  10.685  0.00  0.00    +0.000 C 
BRANCH  14  16
ATOM     15  C   UNL     1      43.471   2.664  11.532  0.00  0.00    +0.000 C 
ATOM     16  C   UNL     1      43.743   3.655  10.439  0.00  0.00    +0.000 C 
BRANCH  16  17
ATOM     17  C   UNL     1      44.759   3.310   9.417  0.00  0.00    +0.000 A 
ATOM     18  C   UNL     1      45.140   1.980   9.199  0.00  0.00    +0.000 A 
ATOM     19  C   UNL     1      46.064   1.658   8.199  0.00  0.00    +0.000 A 
ATOM     20  C   UNL     1      46.623   2.660   7.409  0.00  0.00    +0.000 A 
ATOM     21  C   UNL     1      46.271   3.987   7.625  0.00  0.00    +0.000 A 
ATOM     22  C   UNL     1      45.350   4.308   8.623  0.00  0.00    +0.000 A 
ENDBRANCH  16  17
ENDBRANCH  14  16
ENDBRANCH   1  14
TORSDOF 5
ENDMDL
MODEL 5
REMARK VINA RESULT:    -6.975      2.823      6.283
REMARK INTER + INTRA:          -9.809
REMARK INTER:                  -9.428
REMARK INTRA:                  -0.381
REMARK UNBOUND:                -0.795
REMARK  Name = 
REMARK  6 active torsions:
REMARK  status: ('A' for Active; 'I' for Inactive)
REMARK    1  A    between atoms: C_1  and  C_2
REMARK    2  A    between atoms: C_2  and  C_3
REMARK    3  A    between atoms: C_2  and  C_14
REMARK    4  A    between atoms: C_3  and  N_4
REMARK    5  A    between atoms: N_4  and  C_5
REMARK    6  A    between atoms: C_8  and  C_9
REMARK                            x       y       z     vdW  Elec       q    Type
REMARK                         _______ _______ _______ _____ _____    ______ ____
ROOT
ATOM      1  N   UNL     1      43.702   4.919  10.261  0.00  0.00    +0.000 N 
ATOM      2  H   UNL     1      43.562   5.903  10.048  0.00  0.00    +0.000 HD
ENDROOT
BRANCH   1   3
ATOM      3  C   UNL     1      44.456   4.737  11.433  0.00  0.00    +0.000 A 
ATOM      4  C   UNL     1      44.930   5.794  12.223  0.00  0.00    +0.000 A 
ATOM      5  C   UNL     1      45.760   5.571  13.324  0.00  0.00    +0.000 A 
ATOM      6  C   UNL     1      46.161   4.276  13.652  0.00  0.00    +0.000 A 
ATOM      7  C   UNL     1      45.718   3.207  12.868  0.00  0.00    +0.000 A 
ATOM      8  C   UNL     1      44.875   3.441  11.770  0.00  0.00    +0.000 A 
BRANCH   6   9
ATOM      9  C   UNL     1      47.089   4.107  14.801  0.00  0.00    +0.000 C 
ATOM     10  N   UNL     1      47.330   5.196  15.589  0.00  0.00    +0.000 N 
ATOM     11  O   UNL     1      47.651   3.041  15.023  0.00  0.00    +0.000 OA
ATOM     12  H   UNL     1      47.089   6.136  15.312  0.00  0.00    +0.000 HD
ATOM     13  H   UNL     1      48.042   5.081  16.299  0.00  0.00    +0.000 HD
ENDBRANCH   6   9
ENDBRANCH   1   3
BRANCH   1  14
ATOM     14  C   UNL     1      44.053   4.117   9.100  0.00  0.00    +0.000 C 
BRANCH  14  16
ATOM     15  C   UNL     1      46.189   5.545   8.785  0.00  0.00    +0.000 C 
ATOM     16  C   UNL     1      45.520   4.203   8.795  0.00  0.00    +0.000 C 
BRANCH  16  17
ATOM     17  C   UNL     1      46.114   3.117   7.981  0.00  0.00    +0.000 A 
ATOM     18  C   UNL     1      46.740   3.392   6.758  0.00  0.00    +0.000 A 
ATOM     19  C   UNL     1      47.341   2.368   6.019  0.00  0.00    +0.000 A 
ATOM     20  C   UNL     1      47.319   1.056   6.487  0.00  0.00    +0.000 A 
ATOM     21  C   UNL     1      46.685   0.762   7.688  0.00  0.00    +0.000 A 
ATOM     22  C   UNL     1      46.084   1.784   8.425  0.00  0.00    +0.000 A 
ENDBRANCH  16  17
ENDBRANCH  14  16
ENDBRANCH   1  14
TORSDOF 5
ENDMDL
MODEL 6
REMARK VINA RESULT:    -6.357      3.304      6.634
REMARK INTER + INTRA:          -9.011
REMARK INTER:                  -8.816
REMARK INTRA:                  -0.195
REMARK UNBOUND:                -0.795
REMARK  Name = 
REMARK  6 active torsions:
REMARK  status: ('A' for Active; 'I' for Inactive)
REMARK    1  A    between atoms: C_1  and  C_2
REMARK    2  A    between atoms: C_2  and  C_3
REMARK    3  A    between atoms: C_2  and  C_14
REMARK    4  A    between atoms: C_3  and  N_4
REMARK    5  A    between atoms: N_4  and  C_5
REMARK    6  A    between atoms: C_8  and  C_9
REMARK                            x       y       z     vdW  Elec       q    Type
REMARK                         _______ _______ _______ _____ _____    ______ ____
ROOT
ATOM      1  N   UNL     1      45.907   5.671  11.030  0.00  0.00    +0.000 N 
ATOM      2  H   UNL     1      46.455   5.098  10.394  0.00  0.00    +0.000 HD
ENDROOT
BRANCH   1   3
ATOM      3  C   UNL     1      46.425   5.647  12.336  0.00  0.00    +0.000 A 
ATOM      4  C   UNL     1      47.332   6.596  12.829  0.00  0.00    +0.000 A 
ATOM      5  C   UNL     1      47.897   6.477  14.101  0.00  0.00    +0.000 A 
ATOM      6  C   UNL     1      47.587   5.384  14.910  0.00  0.00    +0.000 A 
ATOM      7  C   UNL     1      46.701   4.414  14.434  0.00  0.00    +0.000 A 
ATOM      8  C   UNL     1      46.129   4.549  13.158  0.00  0.00    +0.000 A 
BRANCH   6   9
ATOM      9  C   UNL     1      48.264   5.284  16.230  0.00  0.00    +0.000 C 
ATOM     10  N   UNL     1      47.478   5.159  17.339  0.00  0.00    +0.000 N 
ATOM     11  O   UNL     1      49.484   5.342  16.334  0.00  0.00    +0.000 OA
ATOM     12  H   UNL     1      46.486   5.347  17.331  0.00  0.00    +0.000 HD
ATOM     13  H   UNL     1      47.957   5.196  18.229  0.00  0.00    +0.000 HD
ENDBRANCH   6   9
ENDBRANCH   1   3
BRANCH   1  14
ATOM     14  C   UNL     1      44.471   5.509  10.869  0.00  0.00    +0.000 C 
BRANCH  14  16
ATOM     15  C   UNL     1      43.405   3.196  11.333  0.00  0.00    +0.000 C 
ATOM     16  C   UNL     1      44.122   4.126  10.401  0.00  0.00    +0.000 C 
BRANCH  16  17
ATOM     17  C   UNL     1      44.955   3.537   9.326  0.00  0.00    +0.000 A 
ATOM     18  C   UNL     1      45.533   4.344   8.337  0.00  0.00    +0.000 A 
ATOM     19  C   UNL     1      46.357   3.787   7.354  0.00  0.00    +0.000 A 
ATOM     20  C   UNL     1      46.611   2.417   7.343  0.00  0.00    +0.000 A 
ATOM     21  C   UNL     1      46.031   1.599   8.305  0.00  0.00    +0.000 A 
ATOM     22  C   UNL     1      45.207   2.155   9.285  0.00  0.00    +0.000 A 
ENDBRANCH  16  17
ENDBRANCH  14  16
ENDBRANCH   1  14
TORSDOF 5
ENDMDL
MODEL 7
REMARK VINA RESULT:    -6.297      3.187      6.144
REMARK INTER + INTRA:          -8.933
REMARK INTER:                  -8.196
REMARK INTRA:                  -0.737
REMARK UNBOUND:                -0.795
REMARK  Name = 
REMARK  6 active torsions:
REMARK  status: ('A' for Active; 'I' for Inactive)
REMARK    1  A    between atoms: C_1  and  C_2
REMARK    2  A    between atoms: C_2  and  C_3
REMARK    3  A    between atoms: C_2  and  C_14
REMARK    4  A    between atoms: C_3  and  N_4
REMARK    5  A    between atoms: N_4  and  C_5
REMARK    6  A    between atoms: C_8  and  C_9
REMARK                            x       y       z     vdW  Elec       q    Type
REMARK                         _______ _______ _______ _____ _____    ______ ____
ROOT
ATOM      1  N   UNL     1      45.124   4.342  13.380  0.00  0.00    +0.000 N 
ATOM      2  H   UNL     1      44.191   4.458  13.766  0.00  0.00    +0.000 HD
ENDROOT
BRANCH   1   3
ATOM      3  C   UNL     1      45.778   5.574  13.209  0.00  0.00    +0.000 A 
ATOM      4  C   UNL     1      45.111   6.777  12.940  0.00  0.00    +0.000 A 
ATOM      5  C   UNL     1      45.808   7.959  12.678  0.00  0.00    +0.000 A 
ATOM      6  C   UNL     1      47.202   7.963  12.654  0.00  0.00    +0.000 A 
ATOM      7  C   UNL     1      47.891   6.772  12.900  0.00  0.00    +0.000 A 
ATOM      8  C   UNL     1      47.181   5.592  13.172  0.00  0.00    +0.000 A 
BRANCH   6   9
ATOM      9  C   UNL     1      47.887   9.238  12.315  0.00  0.00    +0.000 C 
ATOM     10  N   UNL     1      47.465  10.374  12.945  0.00  0.00    +0.000 N 
ATOM     11  O   UNL     1      48.779   9.287  11.476  0.00  0.00    +0.000 OA
ATOM     12  H   UNL     1      46.593  10.427  13.451  0.00  0.00    +0.000 HD
ATOM     13  H   UNL     1      47.876  11.240  12.622  0.00  0.00    +0.000 HD
ENDBRANCH   6   9
ENDBRANCH   1   3
BRANCH   1  14
ATOM     14  C   UNL     1      45.185   3.386  12.286  0.00  0.00    +0.000 C 
BRANCH  14  16
ATOM     15  C   UNL     1      43.077   4.294  11.089  0.00  0.00    +0.000 C 
ATOM     16  C   UNL     1      44.530   3.923  11.047  0.00  0.00    +0.000 C 
BRANCH  16  17
ATOM     17  C   UNL     1      45.120   3.546   9.742  0.00  0.00    +0.000 A 
ATOM     18  C   UNL     1      45.593   4.522   8.855  0.00  0.00    +0.000 A 
ATOM     19  C   UNL     1      46.193   4.155   7.646  0.00  0.00    +0.000 A 
ATOM     20  C   UNL     1      46.323   2.811   7.304  0.00  0.00    +0.000 A 
ATOM     21  C   UNL     1      45.841   1.830   8.163  0.00  0.00    +0.000 A 
ATOM     22  C   UNL     1      45.242   2.196   9.369  0.00  0.00    +0.000 A 
ENDBRANCH  16  17
ENDBRANCH  14  16
ENDBRANCH   1  14
TORSDOF 5
ENDMDL
MODEL 8
REMARK VINA RESULT:    -6.106      1.668      2.362
REMARK INTER + INTRA:          -8.687
REMARK INTER:                  -8.139
REMARK INTRA:                  -0.548
REMARK UNBOUND:                -0.795
REMARK  Name = 
REMARK  6 active torsions:
REMARK  status: ('A' for Active; 'I' for Inactive)
REMARK    1  A    between atoms: C_1  and  C_2
REMARK    2  A    between atoms: C_2  and  C_3
REMARK    3  A    between atoms: C_2  and  C_14
REMARK    4  A    between atoms: C_3  and  N_4
REMARK    5  A    between atoms: N_4  and  C_5
REMARK    6  A    between atoms: C_8  and  C_9
REMARK                            x       y       z     vdW  Elec       q    Type
REMARK                         _______ _______ _______ _____ _____    ______ ____
ROOT
ATOM      1  N   UNL     1      43.708   4.462  12.178  0.00  0.00    +0.000 N 
ATOM      2  H   UNL     1      43.637   3.674  12.817  0.00  0.00    +0.000 HD
ENDROOT
BRANCH   1   3
ATOM      3  C   UNL     1      44.264   4.088  10.943  0.00  0.00    +0.000 A 
ATOM      4  C   UNL     1      44.442   2.756  10.543  0.00  0.00    +0.000 A 
ATOM      5  C   UNL     1      45.089   2.431   9.348  0.00  0.00    +0.000 A 
ATOM      6  C   UNL     1      45.601   3.436   8.528  0.00  0.00    +0.000 A 
ATOM      7  C   UNL     1      45.453   4.771   8.915  0.00  0.00    +0.000 A 
ATOM      8  C   UNL     1      44.791   5.088  10.112  0.00  0.00    +0.000 A 
BRANCH   6   9
ATOM      9  C   UNL     1      46.329   3.025   7.299  0.00  0.00    +0.000 C 
ATOM     10  N   UNL     1      46.844   1.761   7.257  0.00  0.00    +0.000 N 
ATOM     11  O   UNL     1      46.495   3.796   6.361  0.00  0.00    +0.000 OA
ATOM     12  H   UNL     1      46.944   1.184   8.080  0.00  0.00    +0.000 HD
ATOM     13  H   UNL     1      47.420   1.543   6.455  0.00  0.00    +0.000 HD
ENDBRANCH   6   9
ENDBRANCH   1   3
BRANCH   1  14
ATOM     14  C   UNL     1      44.209   5.674  12.806  0.00  0.00    +0.000 C 
BRANCH  14  16
ATOM     15  C   UNL     1      46.262   4.683  14.033  0.00  0.00    +0.000 C 
ATOM     16  C   UNL     1      45.695   5.618  13.005  0.00  0.00    +0.000 C 
BRANCH  16  17
ATOM     17  C   UNL     1      46.480   6.821  12.643  0.00  0.00    +0.000 A 
ATOM     18  C   UNL     1      45.929   8.104  12.756  0.00  0.00    +0.000 A 
ATOM     19  C   UNL     1      46.693   9.237  12.458  0.00  0.00    +0.000 A 
ATOM     20  C   UNL     1      48.014   9.104  12.038  0.00  0.00    +0.000 A 
ATOM     21  C   UNL     1      48.571   7.838  11.901  0.00  0.00    +0.000 A 
ATOM     22  C   UNL     1      47.808   6.707  12.197  0.00  0.00    +0.000 A 
ENDBRANCH  16  17
ENDBRANCH  14  16
ENDBRANCH   1  14
TORSDOF 5
ENDMDL
MODEL 9
REMARK VINA RESULT:    -5.730      3.397      5.612
REMARK INTER + INTRA:          -8.200
REMARK INTER:                  -7.629
REMARK INTRA:                  -0.571
REMARK UNBOUND:                -0.795
REMARK  Name = 
REMARK  6 active torsions:
REMARK  status: ('A' for Active; 'I' for Inactive)
REMARK    1  A    between atoms: C_1  and  C_2
REMARK    2  A    between atoms: C_2  and  C_3
REMARK    3  A    between atoms: C_2  and  C_14
REMARK    4  A    between atoms: C_3  and  N_4
REMARK    5  A    between atoms: N_4  and  C_5
REMARK    6  A    between atoms: C_8  and  C_9
REMARK                            x       y       z     vdW  Elec       q    Type
REMARK                         _______ _______ _______ _____ _____    ______ ____
ROOT
ATOM      1  N   UNL     1      47.105   6.837  13.908  0.00  0.00    +0.000 N 
ATOM      2  H   UNL     1      46.470   7.040  14.675  0.00  0.00    +0.000 HD
ENDROOT
BRANCH   1   3
ATOM      3  C   UNL     1      46.487   6.072  12.904  0.00  0.00    +0.000 A 
ATOM      4  C   UNL     1      46.262   6.537  11.601  0.00  0.00    +0.000 A 
ATOM      5  C   UNL     1      45.555   5.780  10.664  0.00  0.00    +0.000 A 
ATOM      6  C   UNL     1      45.028   4.538  11.017  0.00  0.00    +0.000 A 
ATOM      7  C   UNL     1      45.221   4.060  12.316  0.00  0.00    +0.000 A 
ATOM      8  C   UNL     1      45.943   4.825  13.247  0.00  0.00    +0.000 A 
BRANCH   6   9
ATOM      9  C   UNL     1      44.237   3.804   9.994  0.00  0.00    +0.000 C 
ATOM     10  N   UNL     1      44.095   4.381   8.765  0.00  0.00    +0.000 N 
ATOM     11  O   UNL     1      43.699   2.731  10.244  0.00  0.00    +0.000 OA
ATOM     12  H   UNL     1      44.307   5.353   8.590  0.00  0.00    +0.000 HD
ATOM     13  H   UNL     1      43.469   3.912   8.124  0.00  0.00    +0.000 HD
ENDBRANCH   6   9
ENDBRANCH   1   3
BRANCH   1  14
ATOM     14  C   UNL     1      48.433   6.436  14.342  0.00  0.00    +0.000 C 
BRANCH  14  16
ATOM     15  C   UNL     1      49.423   7.773  16.326  0.00  0.00    +0.000 C 
ATOM     16  C   UNL     1      48.608   6.620  15.821  0.00  0.00    +0.000 C 
BRANCH  16  17
ATOM     17  C   UNL     1      48.488   5.417  16.679  0.00  0.00    +0.000 A 
ATOM     18  C   UNL     1      47.668   4.344  16.306  0.00  0.00    +0.000 A 
ATOM     19  C   UNL     1      47.598   3.193  17.097  0.00  0.00    +0.000 A 
ATOM     20  C   UNL     1      48.340   3.100  18.273  0.00  0.00    +0.000 A 
ATOM     21  C   UNL     1      49.143   4.164  18.667  0.00  0.00    +0.000 A 
ATOM     22  C   UNL     1      49.212   5.313  17.879  0.00  0.00    +0.000 A 
ENDBRANCH  16  17
ENDBRANCH  14  16
ENDBRANCH   1  14
TORSDOF 5
ENDMDL
