MODEL 1
REMARK VINA RESULT:    -9.491      0.000      0.000
REMARK INTER + INTRA:         -13.544
REMARK INTER:                 -12.820
REMARK INTRA:                  -0.724
REMARK UNBOUND:                -0.724
REMARK  Name = 
REMARK  9 active torsions:
REMARK  status: ('A' for Active; 'I' for Inactive)
REMARK    1  A    between atoms: C_1  and  C_2
REMARK    2  A    between atoms: C_5  and  N_6
REMARK    3  A    between atoms: N_6  and  C_7
REMARK    4  A    between atoms: C_7  and  C_8
REMARK    5  A    between atoms: C_8  and  C_9
REMARK    6  A    between atoms: C_8  and  C_10
REMARK    7  A    between atoms: C_8  and  C_11
REMARK    8  A    between atoms: N_16  and  C_17
REMARK    9  A    between atoms: C_25  and  C_26
REMARK                            x       y       z     vdW  Elec       q    Type
REMARK                         _______ _______ _______ _____ _____    ______ ____
ROOT
ATOM      1  C   UNL     1      43.753   5.714  11.781  0.00  0.00    +0.000 C 
ATOM      2  C   UNL     1      43.496   7.116  11.190  0.00  0.00    +0.000 C 
ATOM      3  C   UNL     1      42.730   5.460  12.916  0.00  0.00    +0.000 C 
ENDROOT
BRANCH   1   4
ATOM      4  C   UNL     1      45.179   5.635  12.352  0.00  0.00    +0.000 A 
ATOM      5  C   UNL     1      46.191   6.424  11.838  0.00  0.00    +0.000 A 
ATOM      6  C   UNL     1      47.424   6.305  12.429  0.00  0.00    +0.000 A 
ATOM      7  N   UNL     1      47.675   5.477  13.455  0.00  0.00    +0.000 NA
ATOM      8  C   UNL     1      46.662   4.718  13.883  0.00  0.00    +0.000 A 
ATOM      9  N   UNL     1      46.876   3.804  14.919  0.00  0.00    +0.000 N 
ATOM     10  N   UNL     1      45.421   4.768  13.368  0.00  0.00    +0.000 NA
ATOM     11  H   UNL     1      45.958   3.492  15.217  0.00  0.00    +0.000 HD
BRANCH   9  12
ATOM     12  C   UNL     1      47.825   4.022  15.965  0.00  0.00    +0.000 C 
ATOM     13  C   UNL     1      48.424   2.737  16.576  0.00  0.00    +0.000 C 
ATOM     14  C   UNL     1      48.287   3.416  17.954  0.00  0.00    +0.000 C 
ATOM     15  F   UNL     1      47.930   2.609  18.978  0.00  0.00    +0.000 F 
ATOM     16  F   UNL     1      49.370   4.114  18.367  0.00  0.00    +0.000 F 
ATOM     17  C   UNL     1      47.152   4.265  17.334  0.00  0.00    +0.000 C 
ENDBRANCH   9  12
ENDBRANCH   1   4
BRANCH   1  18
ATOM     18  C   UNL     1      43.484   4.624  10.699  0.00  0.00    +0.000 C 
BRANCH  18  19
ATOM     19  N   UNL     1      44.288   4.812   9.487  0.00  0.00    +0.000 N 
ATOM     20  H   UNL     1      44.959   5.578   9.594  0.00  0.00    +0.000 HD
BRANCH  19  25
ATOM     21  C   UNL     1      46.860   0.143   7.528  0.00  0.00    +0.000 C 
ATOM     22  C   UNL     1      46.184   1.420   7.936  0.00  0.00    +0.000 A 
ATOM     23  N   UNL     1      45.322   1.305   8.980  0.00  0.00    +0.000 NA
ATOM     24  C   UNL     1      44.717   2.433   9.424  0.00  0.00    +0.000 A 
ATOM     25  C   UNL     1      44.883   3.703   8.875  0.00  0.00    +0.000 A 
ATOM     26  C   UNL     1      45.778   3.788   7.809  0.00  0.00    +0.000 A 
ATOM     27  C   UNL     1      46.421   2.645   7.305  0.00  0.00    +0.000 A 
BRANCH  27  28
ATOM     28  C   UNL     1      47.367   2.773   6.164  0.00  0.00    +0.000 C 
ATOM     29  N   UNL     1      48.705   2.667   6.437  0.00  0.00    +0.000 N 
ATOM     30  O   UNL     1      46.995   2.979   5.019  0.00  0.00    +0.000 OA
ATOM     31  H   UNL     1      49.091   2.691   7.371  0.00  0.00    +0.000 HD
ATOM     32  H   UNL     1      49.334   2.832   5.660  0.00  0.00    +0.000 HD
ENDBRANCH  27  28
ENDBRANCH  19  25
ENDBRANCH  18  19
ENDBRANCH   1  18
TORSDOF 6
ENDMDL
MODEL 2
REMARK VINA RESULT:    -8.319      2.449      3.119
REMARK INTER + INTRA:         -11.961
REMARK INTER:                 -11.095
REMARK INTRA:                  -0.866
REMARK UNBOUND:                -0.724
REMARK  Name = 
REMARK  9 active torsions:
REMARK  status: ('A' for Active; 'I' for Inactive)
REMARK    1  A    between atoms: C_1  and  C_2
REMARK    2  A    between atoms: C_5  and  N_6
REMARK    3  A    between atoms: N_6  and  C_7
REMARK    4  A    between atoms: C_7  and  C_8
REMARK    5  A    between atoms: C_8  and  C_9
REMARK    6  A    between atoms: C_8  and  C_10
REMARK    7  A    between atoms: C_8  and  C_11
REMARK    8  A    between atoms: N_16  and  C_17
REMARK    9  A    between atoms: C_25  and  C_26
REMARK                            x       y       z     vdW  Elec       q    Type
REMARK                         _______ _______ _______ _____ _____    ______ ____
ROOT
ATOM      1  C   UNL     1      43.826   5.302  11.913  0.00  0.00    +0.000 C 
ATOM      2  C   UNL     1      43.837   6.730  11.329  0.00  0.00    +0.000 C 
ATOM      3  C   UNL     1      42.649   5.185  12.913  0.00  0.00    +0.000 C 
ENDROOT
BRANCH   1   4
ATOM      4  C   UNL     1      45.148   5.021  12.648  0.00  0.00    +0.000 A 
ATOM      5  C   UNL     1      45.635   3.731  12.759  0.00  0.00    +0.000 A 
ATOM      6  C   UNL     1      46.835   3.582  13.407  0.00  0.00    +0.000 A 
ATOM      7  N   UNL     1      47.531   4.606  13.921  0.00  0.00    +0.000 NA
ATOM      8  C   UNL     1      46.990   5.823  13.810  0.00  0.00    +0.000 A 
ATOM      9  N   UNL     1      47.648   6.924  14.366  0.00  0.00    +0.000 N 
ATOM     10  N   UNL     1      45.822   6.067  13.189  0.00  0.00    +0.000 NA
ATOM     11  H   UNL     1      47.185   7.749  13.998  0.00  0.00    +0.000 HD
BRANCH   9  12
ATOM     12  C   UNL     1      49.071   7.009  14.469  0.00  0.00    +0.000 C 
ATOM     13  C   UNL     1      49.587   8.087  15.446  0.00  0.00    +0.000 C 
ATOM     14  C   UNL     1      50.670   8.414  14.397  0.00  0.00    +0.000 C 
ATOM     15  F   UNL     1      50.993   9.719  14.267  0.00  0.00    +0.000 F 
ATOM     16  F   UNL     1      51.833   7.736  14.535  0.00  0.00    +0.000 F 
ATOM     17  C   UNL     1      49.700   7.847  13.334  0.00  0.00    +0.000 C 
ENDBRANCH   9  12
ENDBRANCH   1   4
BRANCH   1  18
ATOM     18  C   UNL     1      43.544   4.267  10.782  0.00  0.00    +0.000 C 
BRANCH  18  19
ATOM     19  N   UNL     1      44.313   4.531   9.562  0.00  0.00    +0.000 N 
ATOM     20  H   UNL     1      44.979   5.296   9.693  0.00  0.00    +0.000 HD
BRANCH  19  25
ATOM     21  C   UNL     1      46.832  -0.018   7.278  0.00  0.00    +0.000 C 
ATOM     22  C   UNL     1      46.175   1.237   7.776  0.00  0.00    +0.000 A 
ATOM     23  N   UNL     1      45.273   1.054   8.776  0.00  0.00    +0.000 NA
ATOM     24  C   UNL     1      44.682   2.155   9.300  0.00  0.00    +0.000 A 
ATOM     25  C   UNL     1      44.900   3.464   8.873  0.00  0.00    +0.000 A 
ATOM     26  C   UNL     1      45.835   3.617   7.848  0.00  0.00    +0.000 A 
ATOM     27  C   UNL     1      46.466   2.506   7.267  0.00  0.00    +0.000 A 
BRANCH  27  28
ATOM     28  C   UNL     1      47.455   2.707   6.173  0.00  0.00    +0.000 C 
ATOM     29  N   UNL     1      48.782   2.695   6.512  0.00  0.00    +0.000 N 
ATOM     30  O   UNL     1      47.126   2.893   5.012  0.00  0.00    +0.000 OA
ATOM     31  H   UNL     1      49.119   2.741   7.464  0.00  0.00    +0.000 HD
ATOM     32  H   UNL     1      49.436   2.909   5.767  0.00  0.00    +0.000 HD
ENDBRANCH  27  28
ENDBRANCH  19  25
ENDBRANCH  18  19
ENDBRANCH   1  18
TORSDOF 6
ENDMDL
MODEL 3
REMARK VINA RESULT:    -7.970      1.639      2.356
REMARK INTER + INTRA:         -11.489
REMARK INTER:                 -10.629
REMARK INTRA:                  -0.860
REMARK UNBOUND:                -0.724
REMARK  Name = 
REMARK  9 active torsions:
REMARK  status: ('A' for Active; 'I' for Inactive)
REMARK    1  A    between atoms: C_1  and  C_2
REMARK    2  A    between atoms: C_5  and  N_6
REMARK    3  A    between atoms: N_6  and  C_7
REMARK    4  A    between atoms: C_7  and  C_8
REMARK    5  A    between atoms: C_8  and  C_9
REMARK    6  A    between atoms: C_8  and  C_10
REMARK    7  A    between atoms: C_8  and  C_11
REMARK    8  A    between atoms: N_16  and  C_17
REMARK    9  A    between atoms: C_25  and  C_26
REMARK                            x       y       z     vdW  Elec       q    Type
REMARK                         _______ _______ _______ _____ _____    ______ ____
ROOT
ATOM      1  C   UNL     1      45.900   6.175  11.963  0.00  0.00    +0.000 C 
ATOM      2  C   UNL     1      47.062   6.620  11.053  0.00  0.00    +0.000 C 
ATOM      3  C   UNL     1      45.224   7.436  12.556  0.00  0.00    +0.000 C 
ENDROOT
BRANCH   1   4
ATOM      4  C   UNL     1      46.431   5.295  13.108  0.00  0.00    +0.000 A 
ATOM      5  C   UNL     1      46.421   3.916  13.003  0.00  0.00    +0.000 A 
ATOM      6  C   UNL     1      46.941   3.216  14.062  0.00  0.00    +0.000 A 
ATOM      7  N   UNL     1      47.441   3.800  15.161  0.00  0.00    +0.000 NA
ATOM      8  C   UNL     1      47.390   5.134  15.215  0.00  0.00    +0.000 A 
ATOM      9  N   UNL     1      47.856   5.796  16.354  0.00  0.00    +0.000 N 
ATOM     10  N   UNL     1      46.903   5.904  14.225  0.00  0.00    +0.000 NA
ATOM     11  H   UNL     1      47.916   6.779  16.108  0.00  0.00    +0.000 HD
BRANCH   9  12
ATOM     12  C   UNL     1      48.922   5.296  17.164  0.00  0.00    +0.000 C 
ATOM     13  C   UNL     1      49.118   6.033  18.506  0.00  0.00    +0.000 C 
ATOM     14  C   UNL     1      50.637   5.938  18.252  0.00  0.00    +0.000 C 
ATOM     15  F   UNL     1      51.369   7.007  18.636  0.00  0.00    +0.000 F 
ATOM     16  F   UNL     1      51.244   4.844  18.766  0.00  0.00    +0.000 F 
ATOM     17  C   UNL     1      50.299   5.857  16.744  0.00  0.00    +0.000 C 
ENDBRANCH   9  12
ENDBRANCH   1   4
BRANCH   1  18
ATOM     18  C   UNL     1      44.808   5.452  11.116  0.00  0.00    +0.000 C 
BRANCH  18  19
ATOM     19  N   UNL     1      45.118   5.433   9.683  0.00  0.00    +0.000 N 
ATOM     20  H   UNL     1      45.793   6.161   9.433  0.00  0.00    +0.000 HD
BRANCH  19  25
ATOM     21  C   UNL     1      46.559   0.321   7.673  0.00  0.00    +0.000 C 
ATOM     22  C   UNL     1      46.180   1.712   8.094  0.00  0.00    +0.000 A 
ATOM     23  N   UNL     1      45.409   1.784   9.210  0.00  0.00    +0.000 NA
ATOM     24  C   UNL     1      45.074   3.016   9.665  0.00  0.00    +0.000 A 
ATOM     25  C   UNL     1      45.432   4.220   9.061  0.00  0.00    +0.000 A 
ATOM     26  C   UNL     1      46.227   4.111   7.920  0.00  0.00    +0.000 A 
ATOM     27  C   UNL     1      46.591   2.856   7.404  0.00  0.00    +0.000 A 
BRANCH  27  28
ATOM     28  C   UNL     1      47.438   2.779   6.183  0.00  0.00    +0.000 C 
ATOM     29  N   UNL     1      48.785   2.605   6.359  0.00  0.00    +0.000 N 
ATOM     30  O   UNL     1      46.980   2.876   5.055  0.00  0.00    +0.000 OA
ATOM     31  H   UNL     1      49.254   2.709   7.249  0.00  0.00    +0.000 HD
ATOM     32  H   UNL     1      49.353   2.630   5.519  0.00  0.00    +0.000 HD
ENDBRANCH  27  28
ENDBRANCH  19  25
ENDBRANCH  18  19
ENDBRANCH   1  18
TORSDOF 6
ENDMDL
MODEL 4
REMARK VINA RESULT:    -7.104      4.548      8.163
REMARK INTER + INTRA:         -10.319
REMARK INTER:                  -8.965
REMARK INTRA:                  -1.354
REMARK UNBOUND:                -0.724
REMARK  Name = 
REMARK  9 active torsions:
REMARK  status: ('A' for Active; 'I' for Inactive)
REMARK    1  A    between atoms: C_1  and  C_2
REMARK    2  A    between atoms: C_5  and  N_6
REMARK    3  A    between atoms: N_6  and  C_7
REMARK    4  A    between atoms: C_7  and  C_8
REMARK    5  A    between atoms: C_8  and  C_9
REMARK    6  A    between atoms: C_8  and  C_10
REMARK    7  A    between atoms: C_8  and  C_11
REMARK    8  A    between atoms: N_16  and  C_17
REMARK    9  A    between atoms: C_25  and  C_26
REMARK                            x       y       z     vdW  Elec       q    Type
REMARK                         _______ _______ _______ _____ _____    ______ ____
ROOT
ATOM      1  C   UNL     1      49.778   8.606  12.461  0.00  0.00    +0.000 C 
ATOM      2  C   UNL     1      49.915  10.105  12.124  0.00  0.00    +0.000 C 
ATOM      3  C   UNL     1      50.382   7.780  11.298  0.00  0.00    +0.000 C 
ENDROOT
BRANCH   1   4
ATOM      4  C   UNL     1      48.294   8.236  12.632  0.00  0.00    +0.000 A 
ATOM      5  C   UNL     1      47.327   9.220  12.721  0.00  0.00    +0.000 A 
ATOM      6  C   UNL     1      46.028   8.795  12.844  0.00  0.00    +0.000 A 
ATOM      7  N   UNL     1      45.673   7.502  12.882  0.00  0.00    +0.000 NA
ATOM      8  C   UNL     1      46.659   6.601  12.826  0.00  0.00    +0.000 A 
ATOM      9  N   UNL     1      46.354   5.239  12.906  0.00  0.00    +0.000 N 
ATOM     10  N   UNL     1      47.959   6.923  12.700  0.00  0.00    +0.000 NA
ATOM     11  H   UNL     1      47.199   4.742  12.642  0.00  0.00    +0.000 HD
BRANCH   9  12
ATOM     12  C   UNL     1      45.132   4.686  12.414  0.00  0.00    +0.000 C 
ATOM     13  C   UNL     1      45.124   3.147  12.281  0.00  0.00    +0.000 C 
ATOM     14  C   UNL     1      44.380   3.341  10.943  0.00  0.00    +0.000 C 
ATOM     15  F   UNL     1      44.711   2.484   9.953  0.00  0.00    +0.000 F 
ATOM     16  F   UNL     1      43.030   3.338  11.026  0.00  0.00    +0.000 F 
ATOM     17  C   UNL     1      45.033   4.742  10.874  0.00  0.00    +0.000 C 
ENDBRANCH   9  12
ENDBRANCH   1   4
BRANCH   1  18
ATOM     18  C   UNL     1      50.625   8.265  13.724  0.00  0.00    +0.000 C 
BRANCH  18  19
ATOM     19  N   UNL     1      49.844   8.309  14.964  0.00  0.00    +0.000 N 
ATOM     20  H   UNL     1      48.906   8.687  14.807  0.00  0.00    +0.000 HD
BRANCH  19  25
ATOM     21  C   UNL     1      50.067   3.504  17.985  0.00  0.00    +0.000 C 
ATOM     22  C   UNL     1      49.905   4.797  17.238  0.00  0.00    +0.000 A 
ATOM     23  N   UNL     1      51.067   5.420  16.910  0.00  0.00    +0.000 NA
ATOM     24  C   UNL     1      50.986   6.568  16.195  0.00  0.00    +0.000 A 
ATOM     25  C   UNL     1      49.800   7.182  15.793  0.00  0.00    +0.000 A 
ATOM     26  C   UNL     1      48.626   6.514  16.141  0.00  0.00    +0.000 A 
ATOM     27  C   UNL     1      48.658   5.327  16.891  0.00  0.00    +0.000 A 
BRANCH  27  28
ATOM     28  C   UNL     1      47.385   4.645  17.247  0.00  0.00    +0.000 C 
ATOM     29  N   UNL     1      46.741   5.061  18.381  0.00  0.00    +0.000 N 
ATOM     30  O   UNL     1      46.915   3.737  16.579  0.00  0.00    +0.000 OA
ATOM     31  H   UNL     1      47.161   5.662  19.077  0.00  0.00    +0.000 HD
ATOM     32  H   UNL     1      45.917   4.534  18.647  0.00  0.00    +0.000 HD
ENDBRANCH  27  28
ENDBRANCH  19  25
ENDBRANCH  18  19
ENDBRANCH   1  18
TORSDOF 6
ENDMDL
MODEL 5
REMARK VINA RESULT:    -6.942      2.519      4.422
REMARK INTER + INTRA:         -10.100
REMARK INTER:                  -9.078
REMARK INTRA:                  -1.022
REMARK UNBOUND:                -0.724
REMARK  Name = 
REMARK  9 active torsions:
REMARK  status: ('A' for Active; 'I' for Inactive)
REMARK    1  A    between atoms: C_1  and  C_2
REMARK    2  A    between atoms: C_5  and  N_6
REMARK    3  A    between atoms: N_6  and  C_7
REMARK    4  A    between atoms: C_7  and  C_8
REMARK    5  A    between atoms: C_8  and  C_9
REMARK    6  A    between atoms: C_8  and  C_10
REMARK    7  A    between atoms: C_8  and  C_11
REMARK    8  A    between atoms: N_16  and  C_17
REMARK    9  A    between atoms: C_25  and  C_26
REMARK                            x       y       z     vdW  Elec       q    Type
REMARK                         _______ _______ _______ _____ _____    ______ ____
ROOT
ATOM      1  C   UNL     1      48.621   8.337  12.318  0.00  0.00    +0.000 C 
ATOM      2  C   UNL     1      49.912   7.815  11.655  0.00  0.00    +0.000 C 
ATOM      3  C   UNL     1      48.412   9.814  11.899  0.00  0.00    +0.000 C 
ENDROOT
BRANCH   1   4
ATOM      4  C   UNL     1      48.741   8.253  13.849  0.00  0.00    +0.000 A 
ATOM      5  C   UNL     1      48.312   9.296  14.649  0.00  0.00    +0.000 A 
ATOM      6  C   UNL     1      48.433   9.120  16.005  0.00  0.00    +0.000 A 
ATOM      7  N   UNL     1      48.937   8.009  16.564  0.00  0.00    +0.000 NA
ATOM      8  C   UNL     1      49.364   7.053  15.734  0.00  0.00    +0.000 A 
ATOM      9  N   UNL     1      49.939   5.891  16.259  0.00  0.00    +0.000 N 
ATOM     10  N   UNL     1      49.282   7.135  14.394  0.00  0.00    +0.000 NA
ATOM     11  H   UNL     1      50.000   5.232  15.490  0.00  0.00    +0.000 HD
BRANCH   9  12
ATOM     12  C   UNL     1      49.561   5.337  17.520  0.00  0.00    +0.000 C 
ATOM     13  C   UNL     1      49.866   3.832  17.685  0.00  0.00    +0.000 C 
ATOM     14  C   UNL     1      48.491   3.705  18.375  0.00  0.00    +0.000 C 
ATOM     15  F   UNL     1      47.800   2.575  18.112  0.00  0.00    +0.000 F 
ATOM     16  F   UNL     1      48.502   3.852  19.719  0.00  0.00    +0.000 F 
ATOM     17  C   UNL     1      48.064   4.961  17.578  0.00  0.00    +0.000 C 
ENDBRANCH   9  12
ENDBRANCH   1   4
BRANCH   1  18
ATOM     18  C   UNL     1      47.389   7.551  11.774  0.00  0.00    +0.000 C 
BRANCH  18  19
ATOM     19  N   UNL     1      46.705   6.774  12.812  0.00  0.00    +0.000 N 
ATOM     20  H   UNL     1      46.297   7.379  13.529  0.00  0.00    +0.000 HD
BRANCH  19  25
ATOM     21  C   UNL     1      43.285   2.365  11.752  0.00  0.00    +0.000 C 
ATOM     22  C   UNL     1      44.168   3.567  11.922  0.00  0.00    +0.000 A 
ATOM     23  N   UNL     1      44.235   4.057  13.188  0.00  0.00    +0.000 NA
ATOM     24  C   UNL     1      45.053   5.113  13.413  0.00  0.00    +0.000 A 
ATOM     25  C   UNL     1      45.813   5.761  12.441  0.00  0.00    +0.000 A 
ATOM     26  C   UNL     1      45.727   5.231  11.153  0.00  0.00    +0.000 A 
ATOM     27  C   UNL     1      44.884   4.144  10.869  0.00  0.00    +0.000 A 
BRANCH  27  28
ATOM     28  C   UNL     1      44.815   3.608   9.483  0.00  0.00    +0.000 C 
ATOM     29  N   UNL     1      44.110   4.333   8.559  0.00  0.00    +0.000 N 
ATOM     30  O   UNL     1      45.345   2.557   9.154  0.00  0.00    +0.000 OA
ATOM     31  H   UNL     1      43.492   5.097   8.797  0.00  0.00    +0.000 HD
ATOM     32  H   UNL     1      44.012   3.913   7.641  0.00  0.00    +0.000 HD
ENDBRANCH  27  28
ENDBRANCH  19  25
ENDBRANCH  18  19
ENDBRANCH   1  18
TORSDOF 6
ENDMDL
MODEL 6
REMARK VINA RESULT:    -6.727      4.295      7.825
REMARK INTER + INTRA:          -9.810
REMARK INTER:                  -8.357
REMARK INTRA:                  -1.453
REMARK UNBOUND:                -0.724
REMARK  Name = 
REMARK  9 active torsions:
REMARK  status: ('A' for Active; 'I' for Inactive)
REMARK    1  A    between atoms: C_1  and  C_2
REMARK    2  A    between atoms: C_5  and  N_6
REMARK    3  A    between atoms: N_6  and  C_7
REMARK    4  A    between atoms: C_7  and  C_8
REMARK    5  A    between atoms: C_8  and  C_9
REMARK    6  A    between atoms: C_8  and  C_10
REMARK    7  A    between atoms: C_8  and  C_11
REMARK    8  A    between atoms: N_16  and  C_17
REMARK    9  A    between atoms: C_25  and  C_26
REMARK                            x       y       z     vdW  Elec       q    Type
REMARK                         _______ _______ _______ _____ _____    ______ ____
ROOT
ATOM      1  C   UNL     1      49.176   6.667  16.939  0.00  0.00    +0.000 C 
ATOM      2  C   UNL     1      50.703   6.507  16.790  0.00  0.00    +0.000 C 
ATOM      3  C   UNL     1      48.824   6.669  18.447  0.00  0.00    +0.000 C 
ENDROOT
BRANCH   1   4
ATOM      4  C   UNL     1      48.452   5.499  16.248  0.00  0.00    +0.000 A 
ATOM      5  C   UNL     1      48.386   4.254  16.848  0.00  0.00    +0.000 A 
ATOM      6  C   UNL     1      47.696   3.281  16.170  0.00  0.00    +0.000 A 
ATOM      7  N   UNL     1      47.103   3.486  14.984  0.00  0.00    +0.000 NA
ATOM      8  C   UNL     1      47.233   4.701  14.443  0.00  0.00    +0.000 A 
ATOM      9  N   UNL     1      46.674   4.959  13.187  0.00  0.00    +0.000 N 
ATOM     10  N   UNL     1      47.886   5.717  15.034  0.00  0.00    +0.000 NA
ATOM     11  H   UNL     1      46.708   5.966  13.063  0.00  0.00    +0.000 HD
BRANCH   9  12
ATOM     12  C   UNL     1      45.486   4.319  12.718  0.00  0.00    +0.000 C 
ATOM     13  C   UNL     1      45.170   4.553  11.225  0.00  0.00    +0.000 C 
ATOM     14  C   UNL     1      43.692   4.710  11.639  0.00  0.00    +0.000 C 
ATOM     15  F   UNL     1      42.985   5.645  10.966  0.00  0.00    +0.000 F 
ATOM     16  F   UNL     1      42.959   3.573  11.613  0.00  0.00    +0.000 F 
ATOM     17  C   UNL     1      44.210   5.129  13.035  0.00  0.00    +0.000 C 
ENDBRANCH   9  12
ENDBRANCH   1   4
BRANCH   1  18
ATOM     18  C   UNL     1      48.730   8.054  16.384  0.00  0.00    +0.000 C 
BRANCH  18  19
ATOM     19  N   UNL     1      49.516   8.484  15.223  0.00  0.00    +0.000 N 
ATOM     20  H   UNL     1      50.175   7.760  14.924  0.00  0.00    +0.000 HD
BRANCH  19  25
ATOM     21  C   UNL     1      47.015  11.329  10.992  0.00  0.00    +0.000 C 
ATOM     22  C   UNL     1      47.616  10.482  12.077  0.00  0.00    +0.000 A 
ATOM     23  N   UNL     1      48.872  10.836  12.452  0.00  0.00    +0.000 NA
ATOM     24  C   UNL     1      49.449  10.137  13.460  0.00  0.00    +0.000 A 
ATOM     25  C   UNL     1      48.867   9.059  14.125  0.00  0.00    +0.000 A 
ATOM     26  C   UNL     1      47.575   8.725  13.720  0.00  0.00    +0.000 A 
ATOM     27  C   UNL     1      46.940   9.412  12.672  0.00  0.00    +0.000 A 
BRANCH  27  28
ATOM     28  C   UNL     1      45.563   9.025  12.265  0.00  0.00    +0.000 C 
ATOM     29  N   UNL     1      44.523   9.755  12.778  0.00  0.00    +0.000 N 
ATOM     30  O   UNL     1      45.335   8.090  11.513  0.00  0.00    +0.000 OA
ATOM     31  H   UNL     1      44.620  10.407  13.545  0.00  0.00    +0.000 HD
ATOM     32  H   UNL     1      43.591   9.428  12.548  0.00  0.00    +0.000 HD
ENDBRANCH  27  28
ENDBRANCH  19  25
ENDBRANCH  18  19
ENDBRANCH   1  18
TORSDOF 6
ENDMDL
MODEL 7
REMARK VINA RESULT:    -6.626      4.521      8.669
REMARK INTER + INTRA:          -9.674
REMARK INTER:                  -8.847
REMARK INTRA:                  -0.826
REMARK UNBOUND:                -0.724
REMARK  Name = 
REMARK  9 active torsions:
REMARK  status: ('A' for Active; 'I' for Inactive)
REMARK    1  A    between atoms: C_1  and  C_2
REMARK    2  A    between atoms: C_5  and  N_6
REMARK    3  A    between atoms: N_6  and  C_7
REMARK    4  A    between atoms: C_7  and  C_8
REMARK    5  A    between atoms: C_8  and  C_9
REMARK    6  A    between atoms: C_8  and  C_10
REMARK    7  A    between atoms: C_8  and  C_11
REMARK    8  A    between atoms: N_16  and  C_17
REMARK    9  A    between atoms: C_25  and  C_26
REMARK                            x       y       z     vdW  Elec       q    Type
REMARK                         _______ _______ _______ _____ _____    ______ ____
ROOT
ATOM      1  C   UNL     1      48.455   8.430  13.022  0.00  0.00    +0.000 C 
ATOM      2  C   UNL     1      48.270   9.809  13.687  0.00  0.00    +0.000 C 
ATOM      3  C   UNL     1      49.528   8.556  11.911  0.00  0.00    +0.000 C 
ENDROOT
BRANCH   1   4
ATOM      4  C   UNL     1      47.129   7.961  12.400  0.00  0.00    +0.000 A 
ATOM      5  C   UNL     1      46.080   8.845  12.222  0.00  0.00    +0.000 A 
ATOM      6  C   UNL     1      44.947   8.342  11.634  0.00  0.00    +0.000 A 
ATOM      7  N   UNL     1      44.822   7.067  11.238  0.00  0.00    +0.000 NA
ATOM      8  C   UNL     1      45.859   6.256  11.469  0.00  0.00    +0.000 A 
ATOM      9  N   UNL     1      45.770   4.906  11.119  0.00  0.00    +0.000 N 
ATOM     10  N   UNL     1      47.011   6.659  12.035  0.00  0.00    +0.000 NA
ATOM     11  H   UNL     1      46.711   4.531  11.186  0.00  0.00    +0.000 HD
BRANCH   9  12
ATOM     12  C   UNL     1      44.997   4.439  10.011  0.00  0.00    +0.000 C 
ATOM     13  C   UNL     1      45.054   2.913   9.778  0.00  0.00    +0.000 C 
ATOM     14  C   UNL     1      45.141   3.222   8.269  0.00  0.00    +0.000 C 
ATOM     15  F   UNL     1      45.947   2.413   7.546  0.00  0.00    +0.000 F 
ATOM     16  F   UNL     1      43.956   3.275   7.619  0.00  0.00    +0.000 F 
ATOM     17  C   UNL     1      45.738   4.593   8.664  0.00  0.00    +0.000 C 
ENDBRANCH   9  12
ENDBRANCH   1   4
BRANCH   1  18
ATOM     18  C   UNL     1      49.019   7.411  14.059  0.00  0.00    +0.000 C 
BRANCH  18  19
ATOM     19  N   UNL     1      48.919   7.890  15.441  0.00  0.00    +0.000 N 
ATOM     20  H   UNL     1      48.230   8.641  15.532  0.00  0.00    +0.000 HD
BRANCH  19  25
ATOM     21  C   UNL     1      48.940   4.319  19.857  0.00  0.00    +0.000 C 
ATOM     22  C   UNL     1      48.850   5.197  18.643  0.00  0.00    +0.000 A 
ATOM     23  N   UNL     1      49.159   6.503  18.853  0.00  0.00    +0.000 NA
ATOM     24  C   UNL     1      49.140   7.335  17.785  0.00  0.00    +0.000 A 
ATOM     25  C   UNL     1      48.798   6.966  16.485  0.00  0.00    +0.000 A 
ATOM     26  C   UNL     1      48.491   5.617  16.301  0.00  0.00    +0.000 A 
ATOM     27  C   UNL     1      48.486   4.718  17.380  0.00  0.00    +0.000 A 
BRANCH  27  28
ATOM     28  C   UNL     1      48.151   3.288  17.146  0.00  0.00    +0.000 C 
ATOM     29  N   UNL     1      46.912   2.857  17.541  0.00  0.00    +0.000 N 
ATOM     30  O   UNL     1      48.934   2.501  16.637  0.00  0.00    +0.000 OA
ATOM     31  H   UNL     1      46.294   3.393  18.136  0.00  0.00    +0.000 HD
ATOM     32  H   UNL     1      46.731   1.864  17.442  0.00  0.00    +0.000 HD
ENDBRANCH  27  28
ENDBRANCH  19  25
ENDBRANCH  18  19
ENDBRANCH   1  18
TORSDOF 6
ENDMDL
MODEL 8
REMARK VINA RESULT:    -6.533      4.734      8.175
REMARK INTER + INTRA:          -9.548
REMARK INTER:                  -8.240
REMARK INTRA:                  -1.308
REMARK UNBOUND:                -0.724
REMARK  Name = 
REMARK  9 active torsions:
REMARK  status: ('A' for Active; 'I' for Inactive)
REMARK    1  A    between atoms: C_1  and  C_2
REMARK    2  A    between atoms: C_5  and  N_6
REMARK    3  A    between atoms: N_6  and  C_7
REMARK    4  A    between atoms: C_7  and  C_8
REMARK    5  A    between atoms: C_8  and  C_9
REMARK    6  A    between atoms: C_8  and  C_10
REMARK    7  A    between atoms: C_8  and  C_11
REMARK    8  A    between atoms: N_16  and  C_17
REMARK    9  A    between atoms: C_25  and  C_26
REMARK                            x       y       z     vdW  Elec       q    Type
REMARK                         _______ _______ _______ _____ _____    ______ ____
ROOT
ATOM      1  C   UNL     1      49.725   9.263  15.417  0.00  0.00    +0.000 C 
ATOM      2  C   UNL     1      48.566   9.787  16.289  0.00  0.00    +0.000 C 
ATOM      3  C   UNL     1      50.581  10.469  14.954  0.00  0.00    +0.000 C 
ENDROOT
BRANCH   1   4
ATOM      4  C   UNL     1      49.170   8.529  14.184  0.00  0.00    +0.000 A 
ATOM      5  C   UNL     1      49.979   8.269  13.093  0.00  0.00    +0.000 A 
ATOM      6  C   UNL     1      49.404   7.584  12.052  0.00  0.00    +0.000 A 
ATOM      7  N   UNL     1      48.127   7.173  12.052  0.00  0.00    +0.000 NA
ATOM      8  C   UNL     1      47.390   7.486  13.122  0.00  0.00    +0.000 A 
ATOM      9  N   UNL     1      46.040   7.123  13.160  0.00  0.00    +0.000 N 
ATOM     10  N   UNL     1      47.867   8.149  14.191  0.00  0.00    +0.000 NA
ATOM     11  H   UNL     1      45.733   7.268  14.116  0.00  0.00    +0.000 HD
BRANCH   9  12
ATOM     12  C   UNL     1      45.532   5.952  12.518  0.00  0.00    +0.000 C 
ATOM     13  C   UNL     1      43.992   5.873  12.437  0.00  0.00    +0.000 C 
ATOM     14  C   UNL     1      44.124   4.377  12.788  0.00  0.00    +0.000 C 
ATOM     15  F   UNL     1      43.167   3.873  13.599  0.00  0.00    +0.000 F 
ATOM     16  F   UNL     1      44.219   3.539  11.730  0.00  0.00    +0.000 F 
ATOM     17  C   UNL     1      45.466   4.736  13.468  0.00  0.00    +0.000 C 
ENDBRANCH   9  12
ENDBRANCH   1   4
BRANCH   1  18
ATOM     18  C   UNL     1      50.667   8.361  16.271  0.00  0.00    +0.000 C 
BRANCH  18  19
ATOM     19  N   UNL     1      49.968   7.684  17.368  0.00  0.00    +0.000 N 
ATOM     20  H   UNL     1      49.029   8.066  17.510  0.00  0.00    +0.000 HD
BRANCH  19  25
ATOM     21  C   UNL     1      50.431   2.024  17.312  0.00  0.00    +0.000 C 
ATOM     22  C   UNL     1      50.194   3.506  17.349  0.00  0.00    +0.000 A 
ATOM     23  N   UNL     1      51.252   4.247  17.769  0.00  0.00    +0.000 NA
ATOM     24  C   UNL     1      51.114   5.595  17.780  0.00  0.00    +0.000 A 
ATOM     25  C   UNL     1      49.958   6.286  17.421  0.00  0.00    +0.000 A 
ATOM     26  C   UNL     1      48.891   5.497  16.990  0.00  0.00    +0.000 A 
ATOM     27  C   UNL     1      48.983   4.096  16.972  0.00  0.00    +0.000 A 
BRANCH  27  28
ATOM     28  C   UNL     1      47.824   3.287  16.509  0.00  0.00    +0.000 C 
ATOM     29  N   UNL     1      46.844   3.004  17.423  0.00  0.00    +0.000 N 
ATOM     30  O   UNL     1      47.728   2.865  15.366  0.00  0.00    +0.000 OA
ATOM     31  H   UNL     1      46.946   3.150  18.419  0.00  0.00    +0.000 HD
ATOM     32  H   UNL     1      46.102   2.390  17.109  0.00  0.00    +0.000 HD
ENDBRANCH  27  28
ENDBRANCH  19  25
ENDBRANCH  18  19
ENDBRANCH   1  18
TORSDOF 6
ENDMDL
