MODEL 1
REMARK VINA RESULT:    -8.346      0.000      0.000
REMARK INTER + INTRA:         -12.595
REMARK INTER:                 -11.517
REMARK INTRA:                  -1.078
REMARK UNBOUND:                -1.078
REMARK  Name = 
REMARK  7 active torsions:
REMARK  status: ('A' for Active; 'I' for Inactive)
REMARK    1  A    between atoms: C_2  and  C_4
REMARK    2  A    between atoms: C_7  and  N_8
REMARK    3  A    between atoms: N_8  and  C_9
REMARK    4  A    between atoms: C_9  and  C_10
REMARK    5  A    between atoms: C_10  and  C_11
REMARK    6  A    between atoms: C_15  and  N_16
REMARK    7  A    between atoms: C_19  and  O_20
REMARK                            x       y       z     vdW  Elec       q    Type
REMARK                         _______ _______ _______ _____ _____    ______ ____
ROOT
ATOM      1  C   UNL     1      43.191   5.418  12.258  0.00  0.00    +0.000 C 
ENDROOT
BRANCH   1   2
ATOM      2  C   UNL     1      44.591   5.253  12.793  0.00  0.00    +0.000 A 
ATOM      3  C   UNL     1      45.098   4.003  13.128  0.00  0.00    +0.000 A 
ATOM      4  N   UNL     1      46.358   3.791  13.558  0.00  0.00    +0.000 NA
ATOM      5  C   UNL     1      47.159   4.881  13.643  0.00  0.00    +0.000 A 
ATOM      6  C   UNL     1      46.790   6.185  13.313  0.00  0.00    +0.000 A 
ATOM      7  C   UNL     1      45.459   6.345  12.906  0.00  0.00    +0.000 A 
BRANCH   6   8
ATOM      8  N   UNL     1      47.657   7.261  13.351  0.00  0.00    +0.000 N 
ATOM      9  C   UNL     1      49.050   7.127  12.935  0.00  0.00    +0.000 C 
ATOM     10  C   UNL     1      49.306   7.962  11.685  0.00  0.00    +0.000 C 
ATOM     11  C   UNL     1      48.816   9.402  11.841  0.00  0.00    +0.000 C 
ATOM     12  C   UNL     1      47.367   9.470  12.323  0.00  0.00    +0.000 C 
ATOM     13  C   UNL     1      47.141   8.611  13.564  0.00  0.00    +0.000 C 
BRANCH  11  14
ATOM     14  O   UNL     1      49.673  10.134  12.718  0.00  0.00    +0.000 OA
ATOM     15  H   UNL     1      50.531   9.683  12.775  0.00  0.00    +0.000 HD
ENDBRANCH  11  14
ENDBRANCH   6   8
ENDBRANCH   1   2
BRANCH   1  16
ATOM     16  C   UNL     1      42.966   4.582  10.993  0.00  0.00    +0.000 C 
BRANCH  16  17
ATOM     17  N   UNL     1      43.841   5.004   9.900  0.00  0.00    +0.000 N 
ATOM     18  H   UNL     1      43.482   5.746   9.304  0.00  0.00    +0.000 HD
BRANCH  17  22
ATOM     19  C   UNL     1      46.245   2.153   7.903  0.00  0.00    +0.000 A 
ATOM     20  C   UNL     1      45.259   1.724   8.791  0.00  0.00    +0.000 A 
ATOM     21  C   UNL     1      44.443   2.660   9.435  0.00  0.00    +0.000 A 
ATOM     22  C   UNL     1      44.565   4.035   9.192  0.00  0.00    +0.000 A 
ATOM     23  C   UNL     1      45.557   4.448   8.292  0.00  0.00    +0.000 A 
ATOM     24  C   UNL     1      46.392   3.519   7.651  0.00  0.00    +0.000 A 
BRANCH  19  26
ATOM     25  N   UNL     1      48.331   1.726   6.720  0.00  0.00    +0.000 N 
ATOM     26  C   UNL     1      47.204   1.195   7.292  0.00  0.00    +0.000 C 
ATOM     27  O   UNL     1      47.005  -0.005   7.302  0.00  0.00    +0.000 OA
ATOM     28  H   UNL     1      49.002   1.065   6.350  0.00  0.00    +0.000 HD
ATOM     29  H   UNL     1      48.637   2.672   6.885  0.00  0.00    +0.000 HD
ENDBRANCH  19  26
ENDBRANCH  17  22
ENDBRANCH  16  17
ENDBRANCH   1  16
TORSDOF 7
ENDMDL
MODEL 2
REMARK VINA RESULT:    -8.274      2.851      3.883
REMARK INTER + INTRA:         -12.496
REMARK INTER:                 -11.696
REMARK INTRA:                  -0.800
REMARK UNBOUND:                -1.078
REMARK  Name = 
REMARK  7 active torsions:
REMARK  status: ('A' for Active; 'I' for Inactive)
REMARK    1  A    between atoms: C_2  and  C_4
REMARK    2  A    between atoms: C_7  and  N_8
REMARK    3  A    between atoms: N_8  and  C_9
REMARK    4  A    between atoms: C_9  and  C_10
REMARK    5  A    between atoms: C_10  and  C_11
REMARK    6  A    between atoms: C_15  and  N_16
REMARK    7  A    between atoms: C_19  and  O_20
REMARK                            x       y       z     vdW  Elec       q    Type
REMARK                         _______ _______ _______ _____ _____    ______ ____
ROOT
ATOM      1  C   UNL     1      45.014   4.516  12.212  0.00  0.00    +0.000 C 
ENDROOT
BRANCH   1   2
ATOM      2  C   UNL     1      46.169   5.145  12.950  0.00  0.00    +0.000 A 
ATOM      3  C   UNL     1      46.857   6.235  12.431  0.00  0.00    +0.000 A 
ATOM      4  N   UNL     1      47.858   6.870  13.072  0.00  0.00    +0.000 NA
ATOM      5  C   UNL     1      48.180   6.402  14.302  0.00  0.00    +0.000 A 
ATOM      6  C   UNL     1      47.555   5.338  14.953  0.00  0.00    +0.000 A 
ATOM      7  C   UNL     1      46.546   4.699  14.222  0.00  0.00    +0.000 A 
BRANCH   6   8
ATOM      8  N   UNL     1      47.870   4.933  16.237  0.00  0.00    +0.000 N 
ATOM      9  C   UNL     1      47.504   3.607  16.725  0.00  0.00    +0.000 C 
ATOM     10  C   UNL     1      48.757   2.783  16.993  0.00  0.00    +0.000 C 
ATOM     11  C   UNL     1      49.767   3.531  17.862  0.00  0.00    +0.000 C 
ATOM     12  C   UNL     1      50.070   4.929  17.321  0.00  0.00    +0.000 C 
ATOM     13  C   UNL     1      48.795   5.720  17.048  0.00  0.00    +0.000 C 
BRANCH  11  14
ATOM     14  O   UNL     1      49.313   3.603  19.214  0.00  0.00    +0.000 OA
ATOM     15  H   UNL     1      49.023   4.510  19.406  0.00  0.00    +0.000 HD
ENDBRANCH  11  14
ENDBRANCH   6   8
ENDBRANCH   1   2
BRANCH   1  16
ATOM     16  C   UNL     1      44.414   5.474  11.177  0.00  0.00    +0.000 C 
BRANCH  16  17
ATOM     17  N   UNL     1      43.789   4.753  10.068  0.00  0.00    +0.000 N 
ATOM     18  H   UNL     1      42.888   4.326  10.267  0.00  0.00    +0.000 HD
BRANCH  17  22
ATOM     19  C   UNL     1      46.420   2.474   7.666  0.00  0.00    +0.000 A 
ATOM     20  C   UNL     1      45.511   1.825   8.500  0.00  0.00    +0.000 A 
ATOM     21  C   UNL     1      44.619   2.572   9.277  0.00  0.00    +0.000 A 
ATOM     22  C   UNL     1      44.590   3.973   9.224  0.00  0.00    +0.000 A 
ATOM     23  C   UNL     1      45.508   4.608   8.376  0.00  0.00    +0.000 A 
ATOM     24  C   UNL     1      46.417   3.869   7.602  0.00  0.00    +0.000 A 
BRANCH  19  26
ATOM     25  N   UNL     1      48.535   2.428   6.456  0.00  0.00    +0.000 N 
ATOM     26  C   UNL     1      47.457   1.716   6.916  0.00  0.00    +0.000 C 
ATOM     27  O   UNL     1      47.361   0.520   6.722  0.00  0.00    +0.000 OA
ATOM     28  H   UNL     1      49.259   1.897   5.989  0.00  0.00    +0.000 HD
ATOM     29  H   UNL     1      48.759   3.355   6.782  0.00  0.00    +0.000 HD
ENDBRANCH  19  26
ENDBRANCH  17  22
ENDBRANCH  16  17
ENDBRANCH   1  16
TORSDOF 7
ENDMDL
MODEL 3
REMARK VINA RESULT:    -7.766      1.321      2.011
REMARK INTER + INTRA:         -11.795
REMARK INTER:                 -10.766
REMARK INTRA:                  -1.029
REMARK UNBOUND:                -1.078
REMARK  Name = 
REMARK  7 active torsions:
REMARK  status: ('A' for Active; 'I' for Inactive)
REMARK    1  A    between atoms: C_2  and  C_4
REMARK    2  A    between atoms: C_7  and  N_8
REMARK    3  A    between atoms: N_8  and  C_9
REMARK    4  A    between atoms: C_9  and  C_10
REMARK    5  A    between atoms: C_10  and  C_11
REMARK    6  A    between atoms: C_15  and  N_16
REMARK    7  A    between atoms: C_19  and  O_20
REMARK                            x       y       z     vdW  Elec       q    Type
REMARK                         _______ _______ _______ _____ _____    ______ ____
ROOT
ATOM      1  C   UNL     1      45.084   3.604  12.389  0.00  0.00    +0.000 C 
ENDROOT
BRANCH   1   2
ATOM      2  C   UNL     1      46.065   4.597  12.959  0.00  0.00    +0.000 A 
ATOM      3  C   UNL     1      46.744   4.349  14.146  0.00  0.00    +0.000 A 
ATOM      4  N   UNL     1      47.671   5.175  14.672  0.00  0.00    +0.000 NA
ATOM      5  C   UNL     1      47.944   6.301  13.969  0.00  0.00    +0.000 A 
ATOM      6  C   UNL     1      47.361   6.659  12.754  0.00  0.00    +0.000 A 
ATOM      7  C   UNL     1      46.382   5.777  12.277  0.00  0.00    +0.000 A 
BRANCH   6   8
ATOM      8  N   UNL     1      47.716   7.784  12.034  0.00  0.00    +0.000 N 
ATOM      9  C   UNL     1      46.941   9.018  12.123  0.00  0.00    +0.000 C 
ATOM     10  C   UNL     1      47.778  10.118  12.766  0.00  0.00    +0.000 C 
ATOM     11  C   UNL     1      49.147  10.265  12.103  0.00  0.00    +0.000 C 
ATOM     12  C   UNL     1      49.885   8.931  11.998  0.00  0.00    +0.000 C 
ATOM     13  C   UNL     1      49.014   7.849  11.367  0.00  0.00    +0.000 C 
BRANCH  11  14
ATOM     14  O   UNL     1      49.021  10.872  10.816  0.00  0.00    +0.000 OA
ATOM     15  H   UNL     1      48.460  10.313  10.254  0.00  0.00    +0.000 HD
ENDBRANCH  11  14
ENDBRANCH   6   8
ENDBRANCH   1   2
BRANCH   1  16
ATOM     16  C   UNL     1      43.881   4.302  11.744  0.00  0.00    +0.000 C 
BRANCH  16  17
ATOM     17  N   UNL     1      43.566   3.736  10.432  0.00  0.00    +0.000 N 
ATOM     18  H   UNL     1      42.824   3.041  10.414  0.00  0.00    +0.000 HD
BRANCH  17  22
ATOM     19  C   UNL     1      46.536   2.751   7.586  0.00  0.00    +0.000 A 
ATOM     20  C   UNL     1      46.223   4.089   7.822  0.00  0.00    +0.000 A 
ATOM     21  C   UNL     1      45.261   4.424   8.781  0.00  0.00    +0.000 A 
ATOM     22  C   UNL     1      44.610   3.444   9.546  0.00  0.00    +0.000 A 
ATOM     23  C   UNL     1      44.941   2.105   9.298  0.00  0.00    +0.000 A 
ATOM     24  C   UNL     1      45.895   1.757   8.328  0.00  0.00    +0.000 A 
BRANCH  19  26
ATOM     25  N   UNL     1      47.386   3.064   5.325  0.00  0.00    +0.000 N 
ATOM     26  C   UNL     1      47.467   2.356   6.496  0.00  0.00    +0.000 C 
ATOM     27  O   UNL     1      48.268   1.452   6.634  0.00  0.00    +0.000 OA
ATOM     28  H   UNL     1      48.056   2.822   4.605  0.00  0.00    +0.000 HD
ATOM     29  H   UNL     1      46.905   3.946   5.249  0.00  0.00    +0.000 HD
ENDBRANCH  19  26
ENDBRANCH  17  22
ENDBRANCH  16  17
ENDBRANCH   1  16
TORSDOF 7
ENDMDL
MODEL 4
REMARK VINA RESULT:    -7.758      2.206      2.671
REMARK INTER + INTRA:         -11.784
REMARK INTER:                 -10.930
REMARK INTRA:                  -0.854
REMARK UNBOUND:                -1.078
REMARK  Name = 
REMARK  7 active torsions:
REMARK  status: ('A' for Active; 'I' for Inactive)
REMARK    1  A    between atoms: C_2  and  C_4
REMARK    2  A    between atoms: C_7  and  N_8
REMARK    3  A    between atoms: N_8  and  C_9
REMARK    4  A    between atoms: C_9  and  C_10
REMARK    5  A    between atoms: C_10  and  C_11
REMARK    6  A    between atoms: C_15  and  N_16
REMARK    7  A    between atoms: C_19  and  O_20
REMARK                            x       y       z     vdW  Elec       q    Type
REMARK                         _______ _______ _______ _____ _____    ______ ____
ROOT
ATOM      1  C   UNL     1      45.679   5.941  11.455  0.00  0.00    +0.000 C 
ENDROOT
BRANCH   1   2
ATOM      2  C   UNL     1      46.267   5.457  12.756  0.00  0.00    +0.000 A 
ATOM      3  C   UNL     1      46.053   4.162  13.213  0.00  0.00    +0.000 A 
ATOM      4  N   UNL     1      46.598   3.660  14.339  0.00  0.00    +0.000 NA
ATOM      5  C   UNL     1      47.412   4.488  15.037  0.00  0.00    +0.000 A 
ATOM      6  C   UNL     1      47.736   5.797  14.680  0.00  0.00    +0.000 A 
ATOM      7  C   UNL     1      47.111   6.272  13.519  0.00  0.00    +0.000 A 
BRANCH   6   8
ATOM      8  N   UNL     1      48.623   6.588  15.385  0.00  0.00    +0.000 N 
ATOM      9  C   UNL     1      48.902   7.962  14.979  0.00  0.00    +0.000 C 
ATOM     10  C   UNL     1      48.401   8.934  16.041  0.00  0.00    +0.000 C 
ATOM     11  C   UNL     1      48.891   8.565  17.441  0.00  0.00    +0.000 C 
ATOM     12  C   UNL     1      48.610   7.102  17.783  0.00  0.00    +0.000 C 
ATOM     13  C   UNL     1      49.109   6.158  16.694  0.00  0.00    +0.000 C 
BRANCH  11  14
ATOM     14  O   UNL     1      50.282   8.856  17.581  0.00  0.00    +0.000 OA
ATOM     15  H   UNL     1      50.385   9.725  18.004  0.00  0.00    +0.000 HD
ENDBRANCH  11  14
ENDBRANCH   6   8
ENDBRANCH   1   2
BRANCH   1  16
ATOM     16  C   UNL     1      44.282   5.358  11.213  0.00  0.00    +0.000 C 
BRANCH  16  17
ATOM     17  N   UNL     1      44.026   5.138   9.789  0.00  0.00    +0.000 N 
ATOM     18  H   UNL     1      43.062   5.256   9.488  0.00  0.00    +0.000 HD
BRANCH  17  22
ATOM     19  C   UNL     1      46.227   2.039   7.935  0.00  0.00    +0.000 A 
ATOM     20  C   UNL     1      45.251   1.722   8.880  0.00  0.00    +0.000 A 
ATOM     21  C   UNL     1      44.501   2.741   9.477  0.00  0.00    +0.000 A 
ATOM     22  C   UNL     1      44.680   4.088   9.132  0.00  0.00    +0.000 A 
ATOM     23  C   UNL     1      45.661   4.386   8.177  0.00  0.00    +0.000 A 
ATOM     24  C   UNL     1      46.430   3.374   7.581  0.00  0.00    +0.000 A 
BRANCH  19  26
ATOM     25  N   UNL     1      46.819  -0.310   7.669  0.00  0.00    +0.000 N 
ATOM     26  C   UNL     1      47.119   0.993   7.367  0.00  0.00    +0.000 C 
ATOM     27  O   UNL     1      48.069   1.276   6.662  0.00  0.00    +0.000 OA
ATOM     28  H   UNL     1      47.401  -1.017   7.239  0.00  0.00    +0.000 HD
ATOM     29  H   UNL     1      45.931  -0.593   8.053  0.00  0.00    +0.000 HD
ENDBRANCH  19  26
ENDBRANCH  17  22
ENDBRANCH  16  17
ENDBRANCH   1  16
TORSDOF 7
ENDMDL
MODEL 5
REMARK VINA RESULT:    -7.014      2.208      2.869
REMARK INTER + INTRA:         -10.757
REMARK INTER:                 -10.038
REMARK INTRA:                  -0.719
REMARK UNBOUND:                -1.078
REMARK  Name = 
REMARK  7 active torsions:
REMARK  status: ('A' for Active; 'I' for Inactive)
REMARK    1  A    between atoms: C_2  and  C_4
REMARK    2  A    between atoms: C_7  and  N_8
REMARK    3  A    between atoms: N_8  and  C_9
REMARK    4  A    between atoms: C_9  and  C_10
REMARK    5  A    between atoms: C_10  and  C_11
REMARK    6  A    between atoms: C_15  and  N_16
REMARK    7  A    between atoms: C_19  and  O_20
REMARK                            x       y       z     vdW  Elec       q    Type
REMARK                         _______ _______ _______ _____ _____    ______ ____
ROOT
ATOM      1  C   UNL     1      45.335   4.848  12.102  0.00  0.00    +0.000 C 
ENDROOT
BRANCH   1   2
ATOM      2  C   UNL     1      45.969   6.123  12.598  0.00  0.00    +0.000 A 
ATOM      3  C   UNL     1      45.373   7.361  12.386  0.00  0.00    +0.000 A 
ATOM      4  N   UNL     1      45.866   8.526  12.854  0.00  0.00    +0.000 NA
ATOM      5  C   UNL     1      47.004   8.449  13.584  0.00  0.00    +0.000 A 
ATOM      6  C   UNL     1      47.689   7.275  13.897  0.00  0.00    +0.000 A 
ATOM      7  C   UNL     1      47.146   6.103  13.354  0.00  0.00    +0.000 A 
BRANCH   6   8
ATOM      8  N   UNL     1      48.812   7.232  14.701  0.00  0.00    +0.000 N 
ATOM      9  C   UNL     1      49.905   8.184  14.528  0.00  0.00    +0.000 C 
ATOM     10  C   UNL     1      50.016   9.084  15.754  0.00  0.00    +0.000 C 
ATOM     11  C   UNL     1      50.060   8.284  17.056  0.00  0.00    +0.000 C 
ATOM     12  C   UNL     1      48.916   7.275  17.152  0.00  0.00    +0.000 C 
ATOM     13  C   UNL     1      48.822   6.403  15.904  0.00  0.00    +0.000 C 
BRANCH  11  14
ATOM     14  O   UNL     1      51.320   7.631  17.205  0.00  0.00    +0.000 OA
ATOM     15  H   UNL     1      51.689   7.844  18.078  0.00  0.00    +0.000 HD
ENDBRANCH  11  14
ENDBRANCH   6   8
ENDBRANCH   1   2
BRANCH   1  16
ATOM     16  C   UNL     1      44.168   5.129  11.149  0.00  0.00    +0.000 C 
BRANCH  16  17
ATOM     17  N   UNL     1      43.796   3.939  10.383  0.00  0.00    +0.000 N 
ATOM     18  H   UNL     1      43.378   3.180  10.915  0.00  0.00    +0.000 HD
BRANCH  17  22
ATOM     19  C   UNL     1      46.571   2.680   7.449  0.00  0.00    +0.000 A 
ATOM     20  C   UNL     1      45.907   1.729   8.224  0.00  0.00    +0.000 A 
ATOM     21  C   UNL     1      44.968   2.137   9.178  0.00  0.00    +0.000 A 
ATOM     22  C   UNL     1      44.646   3.490   9.364  0.00  0.00    +0.000 A 
ATOM     23  C   UNL     1      45.320   4.430   8.573  0.00  0.00    +0.000 A 
ATOM     24  C   UNL     1      46.274   4.033   7.623  0.00  0.00    +0.000 A 
BRANCH  19  26
ATOM     25  N   UNL     1      47.692   2.935   5.302  0.00  0.00    +0.000 N 
ATOM     26  C   UNL     1      47.656   2.289   6.510  0.00  0.00    +0.000 C 
ATOM     27  O   UNL     1      48.478   1.442   6.799  0.00  0.00    +0.000 OA
ATOM     28  H   UNL     1      48.462   2.700   4.688  0.00  0.00    +0.000 HD
ATOM     29  H   UNL     1      47.179   3.783   5.117  0.00  0.00    +0.000 HD
ENDBRANCH  19  26
ENDBRANCH  17  22
ENDBRANCH  16  17
ENDBRANCH   1  16
TORSDOF 7
ENDMDL
MODEL 6
REMARK VINA RESULT:    -6.654      3.646      7.486
REMARK INTER + INTRA:         -10.261
REMARK INTER:                  -9.060
REMARK INTRA:                  -1.201
REMARK UNBOUND:                -1.078
REMARK  Name = 
REMARK  7 active torsions:
REMARK  status: ('A' for Active; 'I' for Inactive)
REMARK    1  A    between atoms: C_2  and  C_4
REMARK    2  A    between atoms: C_7  and  N_8
REMARK    3  A    between atoms: N_8  and  C_9
REMARK    4  A    between atoms: C_9  and  C_10
REMARK    5  A    between atoms: C_10  and  C_11
REMARK    6  A    between atoms: C_15  and  N_16
REMARK    7  A    between atoms: C_19  and  O_20
REMARK                            x       y       z     vdW  Elec       q    Type
REMARK                         _______ _______ _______ _____ _____    ______ ____
ROOT
ATOM      1  C   UNL     1      48.866   8.519  12.159  0.00  0.00    +0.000 C 
ENDROOT
BRANCH   1   2
ATOM      2  C   UNL     1      47.362   8.481  12.067  0.00  0.00    +0.000 A 
ATOM      3  C   UNL     1      46.600   9.641  12.135  0.00  0.00    +0.000 A 
ATOM      4  N   UNL     1      45.259   9.672  12.004  0.00  0.00    +0.000 NA
ATOM      5  C   UNL     1      44.647   8.484  11.778  0.00  0.00    +0.000 A 
ATOM      6  C   UNL     1      45.290   7.252  11.659  0.00  0.00    +0.000 A 
ATOM      7  C   UNL     1      46.679   7.281  11.839  0.00  0.00    +0.000 A 
BRANCH   6   8
ATOM      8  N   UNL     1      44.636   6.071  11.363  0.00  0.00    +0.000 N 
ATOM      9  C   UNL     1      45.360   4.807  11.264  0.00  0.00    +0.000 C 
ATOM     10  C   UNL     1      44.920   3.863  12.377  0.00  0.00    +0.000 C 
ATOM     11  C   UNL     1      43.400   3.728  12.455  0.00  0.00    +0.000 C 
ATOM     12  C   UNL     1      42.702   5.087  12.509  0.00  0.00    +0.000 C 
ATOM     13  C   UNL     1      43.176   6.013  11.393  0.00  0.00    +0.000 C 
BRANCH  11  14
ATOM     14  O   UNL     1      42.905   2.952  11.364  0.00  0.00    +0.000 OA
ATOM     15  H   UNL     1      43.655   2.567  10.880  0.00  0.00    +0.000 HD
ENDBRANCH  11  14
ENDBRANCH   6   8
ENDBRANCH   1   2
BRANCH   1  16
ATOM     16  C   UNL     1      49.407   7.411  13.071  0.00  0.00    +0.000 C 
BRANCH  16  17
ATOM     17  N   UNL     1      48.943   7.569  14.449  0.00  0.00    +0.000 N 
ATOM     18  H   UNL     1      49.390   8.308  14.987  0.00  0.00    +0.000 HD
BRANCH  17  22
ATOM     19  C   UNL     1      47.985   4.279  16.929  0.00  0.00    +0.000 A 
ATOM     20  C   UNL     1      47.384   4.397  15.677  0.00  0.00    +0.000 A 
ATOM     21  C   UNL     1      47.716   5.469  14.840  0.00  0.00    +0.000 A 
ATOM     22  C   UNL     1      48.669   6.427  15.213  0.00  0.00    +0.000 A 
ATOM     23  C   UNL     1      49.267   6.288  16.473  0.00  0.00    +0.000 A 
ATOM     24  C   UNL     1      48.932   5.226  17.327  0.00  0.00    +0.000 A 
BRANCH  19  26
ATOM     25  N   UNL     1      48.314   3.097  19.034  0.00  0.00    +0.000 N 
ATOM     26  C   UNL     1      47.571   3.221  17.888  0.00  0.00    +0.000 C 
ATOM     27  O   UNL     1      46.616   2.500  17.673  0.00  0.00    +0.000 OA
ATOM     28  H   UNL     1      47.996   2.408  19.704  0.00  0.00    +0.000 HD
ATOM     29  H   UNL     1      48.958   3.805  19.349  0.00  0.00    +0.000 HD
ENDBRANCH  19  26
ENDBRANCH  17  22
ENDBRANCH  16  17
ENDBRANCH   1  16
TORSDOF 7
ENDMDL
MODEL 7
REMARK VINA RESULT:    -6.607      3.213      7.992
REMARK INTER + INTRA:         -10.196
REMARK INTER:                  -9.443
REMARK INTRA:                  -0.752
REMARK UNBOUND:                -1.078
REMARK  Name = 
REMARK  7 active torsions:
REMARK  status: ('A' for Active; 'I' for Inactive)
REMARK    1  A    between atoms: C_2  and  C_4
REMARK    2  A    between atoms: C_7  and  N_8
REMARK    3  A    between atoms: N_8  and  C_9
REMARK    4  A    between atoms: C_9  and  C_10
REMARK    5  A    between atoms: C_10  and  C_11
REMARK    6  A    between atoms: C_15  and  N_16
REMARK    7  A    between atoms: C_19  and  O_20
REMARK                            x       y       z     vdW  Elec       q    Type
REMARK                         _______ _______ _______ _____ _____    ______ ____
ROOT
ATOM      1  C   UNL     1      45.255   6.193  12.912  0.00  0.00    +0.000 C 
ENDROOT
BRANCH   1   2
ATOM      2  C   UNL     1      44.768   4.921  12.266  0.00  0.00    +0.000 A 
ATOM      3  C   UNL     1      43.905   4.055  12.926  0.00  0.00    +0.000 A 
ATOM      4  N   UNL     1      43.396   2.933  12.377  0.00  0.00    +0.000 NA
ATOM      5  C   UNL     1      43.756   2.670  11.098  0.00  0.00    +0.000 A 
ATOM      6  C   UNL     1      44.590   3.465  10.311  0.00  0.00    +0.000 A 
ATOM      7  C   UNL     1      45.113   4.597  10.949  0.00  0.00    +0.000 A 
BRANCH   6   8
ATOM      8  N   UNL     1      44.880   3.196   8.987  0.00  0.00    +0.000 N 
ATOM      9  C   UNL     1      45.315   4.251   8.076  0.00  0.00    +0.000 C 
ATOM     10  C   UNL     1      46.752   4.001   7.633  0.00  0.00    +0.000 C 
ATOM     11  C   UNL     1      46.958   2.579   7.113  0.00  0.00    +0.000 C 
ATOM     12  C   UNL     1      46.439   1.526   8.093  0.00  0.00    +0.000 C 
ATOM     13  C   UNL     1      45.006   1.815   8.529  0.00  0.00    +0.000 C 
BRANCH  11  14
ATOM     14  O   UNL     1      46.350   2.417   5.832  0.00  0.00    +0.000 OA
ATOM     15  H   UNL     1      46.484   1.504   5.528  0.00  0.00    +0.000 HD
ENDBRANCH  11  14
ENDBRANCH   6   8
ENDBRANCH   1   2
BRANCH   1  16
ATOM     16  C   UNL     1      46.747   6.120  13.256  0.00  0.00    +0.000 C 
BRANCH  16  17
ATOM     17  N   UNL     1      47.105   4.830  13.845  0.00  0.00    +0.000 N 
ATOM     18  H   UNL     1      46.535   4.037  13.559  0.00  0.00    +0.000 HD
BRANCH  17  22
ATOM     19  C   UNL     1      48.069   4.874  17.963  0.00  0.00    +0.000 A 
ATOM     20  C   UNL     1      47.326   3.816  17.440  0.00  0.00    +0.000 A 
ATOM     21  C   UNL     1      47.027   3.781  16.074  0.00  0.00    +0.000 A 
ATOM     22  C   UNL     1      47.479   4.775  15.194  0.00  0.00    +0.000 A 
ATOM     23  C   UNL     1      48.228   5.828  15.738  0.00  0.00    +0.000 A 
ATOM     24  C   UNL     1      48.523   5.881  17.109  0.00  0.00    +0.000 A 
BRANCH  19  26
ATOM     25  N   UNL     1      48.487   3.839  20.129  0.00  0.00    +0.000 N 
ATOM     26  C   UNL     1      48.306   5.002  19.426  0.00  0.00    +0.000 C 
ATOM     27  O   UNL     1      48.344   6.085  19.976  0.00  0.00    +0.000 OA
ATOM     28  H   UNL     1      48.697   3.936  21.114  0.00  0.00    +0.000 HD
ATOM     29  H   UNL     1      48.683   2.955  19.686  0.00  0.00    +0.000 HD
ENDBRANCH  19  26
ENDBRANCH  17  22
ENDBRANCH  16  17
ENDBRANCH   1  16
TORSDOF 7
ENDMDL
MODEL 8
REMARK VINA RESULT:    -6.528      3.783      7.788
REMARK INTER + INTRA:         -10.087
REMARK INTER:                  -9.127
REMARK INTRA:                  -0.960
REMARK UNBOUND:                -1.078
REMARK  Name = 
REMARK  7 active torsions:
REMARK  status: ('A' for Active; 'I' for Inactive)
REMARK    1  A    between atoms: C_2  and  C_4
REMARK    2  A    between atoms: C_7  and  N_8
REMARK    3  A    between atoms: N_8  and  C_9
REMARK    4  A    between atoms: C_9  and  C_10
REMARK    5  A    between atoms: C_10  and  C_11
REMARK    6  A    between atoms: C_15  and  N_16
REMARK    7  A    between atoms: C_19  and  O_20
REMARK                            x       y       z     vdW  Elec       q    Type
REMARK                         _______ _______ _______ _____ _____    ______ ____
ROOT
ATOM      1  C   UNL     1      48.959   7.550  14.702  0.00  0.00    +0.000 C 
ENDROOT
BRANCH   1   2
ATOM      2  C   UNL     1      47.676   7.513  13.912  0.00  0.00    +0.000 A 
ATOM      3  C   UNL     1      46.954   8.669  13.643  0.00  0.00    +0.000 A 
ATOM      4  N   UNL     1      45.832   8.702  12.896  0.00  0.00    +0.000 NA
ATOM      5  C   UNL     1      45.417   7.521  12.379  0.00  0.00    +0.000 A 
ATOM      6  C   UNL     1      46.058   6.293  12.545  0.00  0.00    +0.000 A 
ATOM      7  C   UNL     1      47.199   6.319  13.358  0.00  0.00    +0.000 A 
BRANCH   6   8
ATOM      8  N   UNL     1      45.639   5.120  11.945  0.00  0.00    +0.000 N 
ATOM      9  C   UNL     1      45.439   3.901  12.722  0.00  0.00    +0.000 C 
ATOM     10  C   UNL     1      43.964   3.515  12.721  0.00  0.00    +0.000 C 
ATOM     11  C   UNL     1      43.375   3.482  11.311  0.00  0.00    +0.000 C 
ATOM     12  C   UNL     1      43.661   4.769  10.537  0.00  0.00    +0.000 C 
ATOM     13  C   UNL     1      45.141   5.136  10.572  0.00  0.00    +0.000 C 
BRANCH  11  14
ATOM     14  O   UNL     1      43.853   2.346  10.591  0.00  0.00    +0.000 OA
ATOM     15  H   UNL     1      44.678   2.034  10.999  0.00  0.00    +0.000 HD
ENDBRANCH  11  14
ENDBRANCH   6   8
ENDBRANCH   1   2
BRANCH   1  16
ATOM     16  C   UNL     1      48.815   8.387  15.978  0.00  0.00    +0.000 C 
BRANCH  16  17
ATOM     17  N   UNL     1      48.396   7.571  17.117  0.00  0.00    +0.000 N 
ATOM     18  H   UNL     1      48.321   8.056  18.008  0.00  0.00    +0.000 HD
BRANCH  17  22
ATOM     19  C   UNL     1      49.881   3.612  17.233  0.00  0.00    +0.000 A 
ATOM     20  C   UNL     1      50.733   4.678  17.524  0.00  0.00    +0.000 A 
ATOM     21  C   UNL     1      50.242   5.988  17.514  0.00  0.00    +0.000 A 
ATOM     22  C   UNL     1      48.894   6.268  17.245  0.00  0.00    +0.000 A 
ATOM     23  C   UNL     1      48.053   5.184  16.959  0.00  0.00    +0.000 A 
ATOM     24  C   UNL     1      48.537   3.867  16.952  0.00  0.00    +0.000 A 
BRANCH  19  26
ATOM     25  N   UNL     1      51.262   1.800  18.096  0.00  0.00    +0.000 N 
ATOM     26  C   UNL     1      50.395   2.221  17.121  0.00  0.00    +0.000 C 
ATOM     27  O   UNL     1      50.059   1.486  16.213  0.00  0.00    +0.000 OA
ATOM     28  H   UNL     1      51.568   0.837  18.041  0.00  0.00    +0.000 HD
ATOM     29  H   UNL     1      51.386   2.290  18.969  0.00  0.00    +0.000 HD
ENDBRANCH  19  26
ENDBRANCH  17  22
ENDBRANCH  16  17
ENDBRANCH   1  16
TORSDOF 7
ENDMDL
MODEL 9
REMARK VINA RESULT:    -6.411      3.502      5.649
REMARK INTER + INTRA:          -9.925
REMARK INTER:                  -8.920
REMARK INTRA:                  -1.005
REMARK UNBOUND:                -1.078
REMARK  Name = 
REMARK  7 active torsions:
REMARK  status: ('A' for Active; 'I' for Inactive)
REMARK    1  A    between atoms: C_2  and  C_4
REMARK    2  A    between atoms: C_7  and  N_8
REMARK    3  A    between atoms: N_8  and  C_9
REMARK    4  A    between atoms: C_9  and  C_10
REMARK    5  A    between atoms: C_10  and  C_11
REMARK    6  A    between atoms: C_15  and  N_16
REMARK    7  A    between atoms: C_19  and  O_20
REMARK                            x       y       z     vdW  Elec       q    Type
REMARK                         _______ _______ _______ _____ _____    ______ ____
ROOT
ATOM      1  C   UNL     1      47.906   7.614  12.205  0.00  0.00    +0.000 C 
ENDROOT
BRANCH   1   2
ATOM      2  C   UNL     1      48.795   7.419  13.406  0.00  0.00    +0.000 A 
ATOM      3  C   UNL     1      49.969   8.144  13.568  0.00  0.00    +0.000 A 
ATOM      4  N   UNL     1      50.772   8.051  14.647  0.00  0.00    +0.000 NA
ATOM      5  C   UNL     1      50.375   7.199  15.622  0.00  0.00    +0.000 A 
ATOM      6  C   UNL     1      49.209   6.432  15.604  0.00  0.00    +0.000 A 
ATOM      7  C   UNL     1      48.436   6.549  14.442  0.00  0.00    +0.000 A 
BRANCH   6   8
ATOM      8  N   UNL     1      48.806   5.624  16.650  0.00  0.00    +0.000 N 
ATOM      9  C   UNL     1      47.642   4.751  16.528  0.00  0.00    +0.000 C 
ATOM     10  C   UNL     1      48.074   3.290  16.591  0.00  0.00    +0.000 C 
ATOM     11  C   UNL     1      48.970   3.003  17.796  0.00  0.00    +0.000 C 
ATOM     12  C   UNL     1      50.141   3.981  17.890  0.00  0.00    +0.000 C 
ATOM     13  C   UNL     1      49.677   5.432  17.807  0.00  0.00    +0.000 C 
BRANCH  11  14
ATOM     14  O   UNL     1      48.209   3.012  19.004  0.00  0.00    +0.000 OA
ATOM     15  H   UNL     1      48.241   3.901  19.395  0.00  0.00    +0.000 HD
ENDBRANCH  11  14
ENDBRANCH   6   8
ENDBRANCH   1   2
BRANCH   1  16
ATOM     16  C   UNL     1      46.727   8.543  12.517  0.00  0.00    +0.000 C 
BRANCH  16  17
ATOM     17  N   UNL     1      45.573   7.801  13.026  0.00  0.00    +0.000 N 
ATOM     18  H   UNL     1      45.431   7.834  14.032  0.00  0.00    +0.000 HD
BRANCH  17  22
ATOM     19  C   UNL     1      44.404   4.045  11.471  0.00  0.00    +0.000 A 
ATOM     20  C   UNL     1      44.551   5.132  10.610  0.00  0.00    +0.000 A 
ATOM     21  C   UNL     1      44.963   6.371  11.114  0.00  0.00    +0.000 A 
ATOM     22  C   UNL     1      45.266   6.551  12.471  0.00  0.00    +0.000 A 
ATOM     23  C   UNL     1      45.117   5.446  13.320  0.00  0.00    +0.000 A 
ATOM     24  C   UNL     1      44.690   4.202  12.829  0.00  0.00    +0.000 A 
BRANCH  19  26
ATOM     25  N   UNL     1      44.438   2.207   9.872  0.00  0.00    +0.000 N 
ATOM     26  C   UNL     1      43.858   2.748  10.990  0.00  0.00    +0.000 C 
ATOM     27  O   UNL     1      42.944   2.186  11.563  0.00  0.00    +0.000 OA
ATOM     28  H   UNL     1      44.094   1.301   9.580  0.00  0.00    +0.000 HD
ATOM     29  H   UNL     1      45.324   2.519   9.508  0.00  0.00    +0.000 HD
ENDBRANCH  19  26
ENDBRANCH  17  22
ENDBRANCH  16  17
ENDBRANCH   1  16
TORSDOF 7
ENDMDL
