MODEL 1
REMARK VINA RESULT:    -7.491      0.000      0.000
REMARK INTER + INTRA:          -9.425
REMARK INTER:                  -8.804
REMARK INTRA:                  -0.621
REMARK UNBOUND:                -0.621
REMARK  Name = 
REMARK  3 active torsions:
REMARK  status: ('A' for Active; 'I' for Inactive)
REMARK    1  A    between atoms: N_6  and  C_7
REMARK    2  A    between atoms: C_7  and  C_8
REMARK    3  A    between atoms: C_12  and  C_13
REMARK                            x       y       z     vdW  Elec       q    Type
REMARK                         _______ _______ _______ _____ _____    ______ ____
ROOT
ATOM      1  C   UNL     1      45.276   5.067  11.624  0.00  0.00    +0.000 A 
ATOM      2  C   UNL     1      45.313   4.075  12.609  0.00  0.00    +0.000 A 
ATOM      3  C   UNL     1      46.267   4.133  13.621  0.00  0.00    +0.000 A 
ATOM      4  C   UNL     1      47.212   5.162  13.638  0.00  0.00    +0.000 A 
ATOM      5  C   UNL     1      47.225   6.161  12.647  0.00  0.00    +0.000 A 
ATOM      6  C   UNL     1      46.222   6.110  11.667  0.00  0.00    +0.000 A 
ENDROOT
BRANCH   5   7
ATOM      7  C   UNL     1      48.392   7.148  12.599  0.00  0.00    +0.000 C 
ATOM      8  C   UNL     1      48.943   7.553  13.979  0.00  0.00    +0.000 C 
ATOM      9  C   UNL     1      48.073   8.611  14.653  0.00  0.00    +0.000 C 
ATOM     10  N   UNL     1      47.944   9.814  13.827  0.00  0.00    +0.000 NA
ATOM     11  C   UNL     1      47.381   9.500  12.514  0.00  0.00    +0.000 C 
ATOM     12  C   UNL     1      48.187   8.433  11.771  0.00  0.00    +0.000 C 
ATOM     13  H   UNL     1      48.858  10.244  13.710  0.00  0.00    +0.000 HD
ENDBRANCH   5   7
BRANCH   1  14
ATOM     14  C   UNL     1      44.246   5.025  10.520  0.00  0.00    +0.000 C 
BRANCH  14  20
ATOM     15 CL   UNL     1      47.904   2.110   5.899  0.00  0.00    +0.000 Cl
ATOM     16  C   UNL     1      46.796   2.585   7.109  0.00  0.00    +0.000 A 
ATOM     17  C   UNL     1      46.301   1.707   8.039  0.00  0.00    +0.000 A 
ATOM     18  N   UNL     1      45.428   2.058   9.015  0.00  0.00    +0.000 NA
ATOM     19  C   UNL     1      45.029   3.339   9.042  0.00  0.00    +0.000 A 
ATOM     20  N   UNL     1      44.114   3.672  10.027  0.00  0.00    +0.000 N 
ATOM     21  N   UNL     1      45.467   4.271   8.180  0.00  0.00    +0.000 NA
ATOM     22  C   UNL     1      46.339   3.873   7.228  0.00  0.00    +0.000 A 
ATOM     23  H   UNL     1      44.140   2.944  10.729  0.00  0.00    +0.000 HD
ENDBRANCH  14  20
ENDBRANCH   1  14
TORSDOF 3
ENDMDL
MODEL 2
REMARK VINA RESULT:    -7.143      4.367      7.676
REMARK INTER + INTRA:          -9.016
REMARK INTER:                  -8.745
REMARK INTRA:                  -0.271
REMARK UNBOUND:                -0.621
REMARK  Name = 
REMARK  3 active torsions:
REMARK  status: ('A' for Active; 'I' for Inactive)
REMARK    1  A    between atoms: N_6  and  C_7
REMARK    2  A    between atoms: C_7  and  C_8
REMARK    3  A    between atoms: C_12  and  C_13
REMARK                            x       y       z     vdW  Elec       q    Type
REMARK                         _______ _______ _______ _____ _____    ______ ____
ROOT
ATOM      1  C   UNL     1      46.760   5.145  13.809  0.00  0.00    +0.000 A 
ATOM      2  C   UNL     1      47.688   6.079  13.337  0.00  0.00    +0.000 A 
ATOM      3  C   UNL     1      47.453   6.751  12.141  0.00  0.00    +0.000 A 
ATOM      4  C   UNL     1      46.307   6.471  11.391  0.00  0.00    +0.000 A 
ATOM      5  C   UNL     1      45.367   5.516  11.819  0.00  0.00    +0.000 A 
ATOM      6  C   UNL     1      45.600   4.889  13.053  0.00  0.00    +0.000 A 
ENDROOT
BRANCH   5   7
ATOM      7  C   UNL     1      44.237   5.107  10.872  0.00  0.00    +0.000 C 
ATOM      8  C   UNL     1      43.070   4.368  11.554  0.00  0.00    +0.000 C 
ATOM      9  C   UNL     1      43.394   2.898  11.806  0.00  0.00    +0.000 C 
ATOM     10  N   UNL     1      43.734   2.197  10.567  0.00  0.00    +0.000 NA
ATOM     11  C   UNL     1      44.869   2.826   9.893  0.00  0.00    +0.000 C 
ATOM     12  C   UNL     1      44.634   4.312   9.612  0.00  0.00    +0.000 C 
ATOM     13  H   UNL     1      42.929   2.198   9.945  0.00  0.00    +0.000 HD
ENDBRANCH   5   7
BRANCH   1  14
ATOM     14  C   UNL     1      46.995   4.409  15.107  0.00  0.00    +0.000 C 
BRANCH  14  20
ATOM     15 CL   UNL     1      52.509   2.920  18.364  0.00  0.00    +0.000 Cl
ATOM     16  C   UNL     1      51.100   3.591  17.671  0.00  0.00    +0.000 A 
ATOM     17  C   UNL     1      50.980   4.929  17.395  0.00  0.00    +0.000 A 
ATOM     18  N   UNL     1      49.877   5.486  16.838  0.00  0.00    +0.000 NA
ATOM     19  C   UNL     1      48.852   4.664  16.565  0.00  0.00    +0.000 A 
ATOM     20  N   UNL     1      47.723   5.257  16.025  0.00  0.00    +0.000 N 
ATOM     21  N   UNL     1      48.882   3.341  16.791  0.00  0.00    +0.000 NA
ATOM     22  C   UNL     1      50.005   2.832  17.344  0.00  0.00    +0.000 A 
ATOM     23  H   UNL     1      47.993   6.163  15.665  0.00  0.00    +0.000 HD
ENDBRANCH  14  20
ENDBRANCH   1  14
TORSDOF 3
ENDMDL
MODEL 3
REMARK VINA RESULT:    -6.398      4.288      7.406
REMARK INTER + INTRA:          -8.141
REMARK INTER:                  -7.884
REMARK INTRA:                  -0.257
REMARK UNBOUND:                -0.621
REMARK  Name = 
REMARK  3 active torsions:
REMARK  status: ('A' for Active; 'I' for Inactive)
REMARK    1  A    between atoms: N_6  and  C_7
REMARK    2  A    between atoms: C_7  and  C_8
REMARK    3  A    between atoms: C_12  and  C_13
REMARK                            x       y       z     vdW  Elec       q    Type
REMARK                         _______ _______ _______ _____ _____    ______ ____
ROOT
ATOM      1  C   UNL     1      46.549   6.780  12.930  0.00  0.00    +0.000 A 
ATOM      2  C   UNL     1      46.414   8.151  12.692  0.00  0.00    +0.000 A 
ATOM      3  C   UNL     1      45.341   8.627  11.944  0.00  0.00    +0.000 A 
ATOM      4  C   UNL     1      44.415   7.734  11.398  0.00  0.00    +0.000 A 
ATOM      5  C   UNL     1      44.535   6.346  11.589  0.00  0.00    +0.000 A 
ATOM      6  C   UNL     1      45.596   5.894  12.391  0.00  0.00    +0.000 A 
ENDROOT
BRANCH   5   7
ATOM      7  C   UNL     1      43.614   5.403  10.813  0.00  0.00    +0.000 C 
ATOM      8  C   UNL     1      42.705   4.528  11.696  0.00  0.00    +0.000 C 
ATOM      9  C   UNL     1      43.452   3.328  12.270  0.00  0.00    +0.000 C 
ATOM     10  N   UNL     1      44.028   2.492  11.215  0.00  0.00    +0.000 NA
ATOM     11  C   UNL     1      44.940   3.258  10.366  0.00  0.00    +0.000 C 
ATOM     12  C   UNL     1      44.274   4.494   9.757  0.00  0.00    +0.000 C 
ATOM     13  H   UNL     1      43.281   2.103  10.645  0.00  0.00    +0.000 HD
ENDBRANCH   5   7
BRANCH   1  14
ATOM     14  C   UNL     1      47.703   6.245  13.744  0.00  0.00    +0.000 C 
BRANCH  14  20
ATOM     15 CL   UNL     1      48.719   4.036  19.853  0.00  0.00    +0.000 Cl
ATOM     16  C   UNL     1      48.332   4.316  18.214  0.00  0.00    +0.000 A 
ATOM     17  C   UNL     1      47.243   3.744  17.607  0.00  0.00    +0.000 A 
ATOM     18  N   UNL     1      46.907   3.955  16.310  0.00  0.00    +0.000 NA
ATOM     19  C   UNL     1      47.710   4.760  15.598  0.00  0.00    +0.000 A 
ATOM     20  N   UNL     1      47.368   4.939  14.268  0.00  0.00    +0.000 N 
ATOM     21  N   UNL     1      48.791   5.371  16.108  0.00  0.00    +0.000 NA
ATOM     22  C   UNL     1      49.082   5.133  17.406  0.00  0.00    +0.000 A 
ATOM     23  H   UNL     1      46.403   4.657  14.157  0.00  0.00    +0.000 HD
ENDBRANCH  14  20
ENDBRANCH   1  14
TORSDOF 3
ENDMDL
MODEL 4
REMARK VINA RESULT:    -5.920      3.957      5.690
REMARK INTER + INTRA:          -7.579
REMARK INTER:                  -7.003
REMARK INTRA:                  -0.576
REMARK UNBOUND:                -0.621
REMARK  Name = 
REMARK  3 active torsions:
REMARK  status: ('A' for Active; 'I' for Inactive)
REMARK    1  A    between atoms: N_6  and  C_7
REMARK    2  A    between atoms: C_7  and  C_8
REMARK    3  A    between atoms: C_12  and  C_13
REMARK                            x       y       z     vdW  Elec       q    Type
REMARK                         _______ _______ _______ _____ _____    ______ ____
ROOT
ATOM      1  C   UNL     1      48.647   6.811  14.621  0.00  0.00    +0.000 A 
ATOM      2  C   UNL     1      49.758   7.650  14.483  0.00  0.00    +0.000 A 
ATOM      3  C   UNL     1      50.812   7.565  15.388  0.00  0.00    +0.000 A 
ATOM      4  C   UNL     1      50.750   6.667  16.458  0.00  0.00    +0.000 A 
ATOM      5  C   UNL     1      49.635   5.830  16.646  0.00  0.00    +0.000 A 
ATOM      6  C   UNL     1      48.609   5.897  15.691  0.00  0.00    +0.000 A 
ENDROOT
BRANCH   5   7
ATOM      7  C   UNL     1      49.528   5.009  17.933  0.00  0.00    +0.000 C 
ATOM      8  C   UNL     1      50.879   4.543  18.507  0.00  0.00    +0.000 C 
ATOM      9  C   UNL     1      51.421   3.321  17.771  0.00  0.00    +0.000 C 
ATOM     10  N   UNL     1      50.480   2.200  17.814  0.00  0.00    +0.000 NA
ATOM     11  C   UNL     1      49.187   2.568  17.239  0.00  0.00    +0.000 C 
ATOM     12  C   UNL     1      48.574   3.798  17.912  0.00  0.00    +0.000 C 
ATOM     13  H   UNL     1      50.350   1.904  18.778  0.00  0.00    +0.000 HD
ENDBRANCH   5   7
BRANCH   1  14
ATOM     14  C   UNL     1      47.496   6.885  13.646  0.00  0.00    +0.000 C 
BRANCH  14  20
ATOM     15 CL   UNL     1      44.216   2.877   9.596  0.00  0.00    +0.000 Cl
ATOM     16  C   UNL     1      44.890   3.779  10.879  0.00  0.00    +0.000 A 
ATOM     17  C   UNL     1      45.054   3.259  12.138  0.00  0.00    +0.000 A 
ATOM     18  N   UNL     1      45.593   3.949  13.172  0.00  0.00    +0.000 NA
ATOM     19  C   UNL     1      45.966   5.215  12.930  0.00  0.00    +0.000 A 
ATOM     20  N   UNL     1      46.487   5.913  14.007  0.00  0.00    +0.000 N 
ATOM     21  N   UNL     1      45.855   5.805  11.729  0.00  0.00    +0.000 NA
ATOM     22  C   UNL     1      45.314   5.075  10.729  0.00  0.00    +0.000 A 
ATOM     23  H   UNL     1      46.760   5.238  14.709  0.00  0.00    +0.000 HD
ENDBRANCH  14  20
ENDBRANCH   1  14
TORSDOF 3
ENDMDL
MODEL 5
REMARK VINA RESULT:    -5.617      4.255      5.405
REMARK INTER + INTRA:          -7.222
REMARK INTER:                  -6.754
REMARK INTRA:                  -0.469
REMARK UNBOUND:                -0.621
REMARK  Name = 
REMARK  3 active torsions:
REMARK  status: ('A' for Active; 'I' for Inactive)
REMARK    1  A    between atoms: N_6  and  C_7
REMARK    2  A    between atoms: C_7  and  C_8
REMARK    3  A    between atoms: C_12  and  C_13
REMARK                            x       y       z     vdW  Elec       q    Type
REMARK                         _______ _______ _______ _____ _____    ______ ____
ROOT
ATOM      1  C   UNL     1      47.768   4.606  16.015  0.00  0.00    +0.000 A 
ATOM      2  C   UNL     1      47.576   3.299  16.473  0.00  0.00    +0.000 A 
ATOM      3  C   UNL     1      48.121   2.899  17.690  0.00  0.00    +0.000 A 
ATOM      4  C   UNL     1      48.891   3.792  18.441  0.00  0.00    +0.000 A 
ATOM      5  C   UNL     1      49.131   5.105  17.998  0.00  0.00    +0.000 A 
ATOM      6  C   UNL     1      48.528   5.500  16.794  0.00  0.00    +0.000 A 
ENDROOT
BRANCH   5   7
ATOM      7  C   UNL     1      50.136   5.975  18.756  0.00  0.00    +0.000 C 
ATOM      8  C   UNL     1      50.114   5.791  20.284  0.00  0.00    +0.000 C 
ATOM      9  C   UNL     1      48.961   6.552  20.935  0.00  0.00    +0.000 C 
ATOM     10  N   UNL     1      49.017   7.983  20.635  0.00  0.00    +0.000 NA
ATOM     11  C   UNL     1      48.995   8.227  19.193  0.00  0.00    +0.000 C 
ATOM     12  C   UNL     1      50.115   7.488  18.456  0.00  0.00    +0.000 C 
ATOM     13  H   UNL     1      49.866   8.380  21.032  0.00  0.00    +0.000 HD
ENDBRANCH   5   7
BRANCH   1  14
ATOM     14  C   UNL     1      47.180   5.060  14.700  0.00  0.00    +0.000 C 
BRANCH  14  20
ATOM     15 CL   UNL     1      44.439   4.269   8.776  0.00  0.00    +0.000 Cl
ATOM     16  C   UNL     1      44.917   4.275  10.415  0.00  0.00    +0.000 A 
ATOM     17  C   UNL     1      44.769   3.181  11.229  0.00  0.00    +0.000 A 
ATOM     18  N   UNL     1      45.147   3.156  12.531  0.00  0.00    +0.000 NA
ATOM     19  C   UNL     1      45.679   4.281  13.031  0.00  0.00    +0.000 A 
ATOM     20  N   UNL     1      46.031   4.245  14.370  0.00  0.00    +0.000 N 
ATOM     21  N   UNL     1      45.873   5.396  12.309  0.00  0.00    +0.000 NA
ATOM     22  C   UNL     1      45.483   5.371  11.015  0.00  0.00    +0.000 A 
ATOM     23  H   UNL     1      46.089   3.274  14.648  0.00  0.00    +0.000 HD
ENDBRANCH  14  20
ENDBRANCH   1  14
TORSDOF 3
ENDMDL
MODEL 6
REMARK VINA RESULT:    -5.572      4.165      5.451
REMARK INTER + INTRA:          -7.170
REMARK INTER:                  -6.718
REMARK INTRA:                  -0.452
REMARK UNBOUND:                -0.621
REMARK  Name = 
REMARK  3 active torsions:
REMARK  status: ('A' for Active; 'I' for Inactive)
REMARK    1  A    between atoms: N_6  and  C_7
REMARK    2  A    between atoms: C_7  and  C_8
REMARK    3  A    between atoms: C_12  and  C_13
REMARK                            x       y       z     vdW  Elec       q    Type
REMARK                         _______ _______ _______ _____ _____    ______ ____
ROOT
ATOM      1  C   UNL     1      47.765   4.643  15.876  0.00  0.00    +0.000 A 
ATOM      2  C   UNL     1      47.495   3.350  16.338  0.00  0.00    +0.000 A 
ATOM      3  C   UNL     1      48.087   2.892  17.512  0.00  0.00    +0.000 A 
ATOM      4  C   UNL     1      48.979   3.707  18.213  0.00  0.00    +0.000 A 
ATOM      5  C   UNL     1      49.299   5.001  17.762  0.00  0.00    +0.000 A 
ATOM      6  C   UNL     1      48.650   5.460  16.606  0.00  0.00    +0.000 A 
ENDROOT
BRANCH   5   7
ATOM      7  C   UNL     1      50.423   5.775  18.453  0.00  0.00    +0.000 C 
ATOM      8  C   UNL     1      51.100   6.840  17.572  0.00  0.00    +0.000 C 
ATOM      9  C   UNL     1      52.113   6.226  16.609  0.00  0.00    +0.000 C 
ATOM     10  N   UNL     1      53.150   5.475  17.318  0.00  0.00    +0.000 NA
ATOM     11  C   UNL     1      52.571   4.414  18.142  0.00  0.00    +0.000 C 
ATOM     12  C   UNL     1      51.530   4.942  19.132  0.00  0.00    +0.000 C 
ATOM     13  H   UNL     1      53.683   6.109  17.909  0.00  0.00    +0.000 HD
ENDBRANCH   5   7
BRANCH   1  14
ATOM     14  C   UNL     1      47.128   5.160  14.608  0.00  0.00    +0.000 C 
BRANCH  14  20
ATOM     15 CL   UNL     1      44.435   4.216   8.684  0.00  0.00    +0.000 Cl
ATOM     16  C   UNL     1      44.891   4.277  10.329  0.00  0.00    +0.000 A 
ATOM     17  C   UNL     1      44.687   3.227  11.188  0.00  0.00    +0.000 A 
ATOM     18  N   UNL     1      45.047   3.245  12.495  0.00  0.00    +0.000 NA
ATOM     19  C   UNL     1      45.618   4.369  12.954  0.00  0.00    +0.000 A 
ATOM     20  N   UNL     1      45.951   4.379  14.298  0.00  0.00    +0.000 N 
ATOM     21  N   UNL     1      45.868   5.441  12.186  0.00  0.00    +0.000 NA
ATOM     22  C   UNL     1      45.494   5.374  10.888  0.00  0.00    +0.000 A 
ATOM     23  H   UNL     1      45.965   3.419  14.619  0.00  0.00    +0.000 HD
ENDBRANCH  14  20
ENDBRANCH   1  14
TORSDOF 3
ENDMDL
MODEL 7
REMARK VINA RESULT:    -5.479      3.752      7.765
REMARK INTER + INTRA:          -7.061
REMARK INTER:                  -6.854
REMARK INTRA:                  -0.207
REMARK UNBOUND:                -0.621
REMARK  Name = 
REMARK  3 active torsions:
REMARK  status: ('A' for Active; 'I' for Inactive)
REMARK    1  A    between atoms: N_6  and  C_7
REMARK    2  A    between atoms: C_7  and  C_8
REMARK    3  A    between atoms: C_12  and  C_13
REMARK                            x       y       z     vdW  Elec       q    Type
REMARK                         _______ _______ _______ _____ _____    ______ ____
ROOT
ATOM      1  C   UNL     1      46.741   6.505  12.872  0.00  0.00    +0.000 A 
ATOM      2  C   UNL     1      46.629   7.890  12.712  0.00  0.00    +0.000 A 
ATOM      3  C   UNL     1      45.542   8.427  12.028  0.00  0.00    +0.000 A 
ATOM      4  C   UNL     1      44.577   7.584  11.469  0.00  0.00    +0.000 A 
ATOM      5  C   UNL     1      44.672   6.185  11.584  0.00  0.00    +0.000 A 
ATOM      6  C   UNL     1      45.749   5.669  12.322  0.00  0.00    +0.000 A 
ENDROOT
BRANCH   5   7
ATOM      7  C   UNL     1      43.703   5.304  10.792  0.00  0.00    +0.000 C 
ATOM      8  C   UNL     1      42.771   4.440  11.662  0.00  0.00    +0.000 C 
ATOM      9  C   UNL     1      43.475   3.194  12.190  0.00  0.00    +0.000 C 
ATOM     10  N   UNL     1      44.004   2.367  11.103  0.00  0.00    +0.000 NA
ATOM     11  C   UNL     1      44.935   3.122  10.264  0.00  0.00    +0.000 C 
ATOM     12  C   UNL     1      44.312   4.401   9.701  0.00  0.00    +0.000 C 
ATOM     13  H   UNL     1      43.234   2.026  10.531  0.00  0.00    +0.000 HD
ENDBRANCH   5   7
BRANCH   1  14
ATOM     14  C   UNL     1      47.910   5.903  13.615  0.00  0.00    +0.000 C 
BRANCH  14  20
ATOM     15 CL   UNL     1      52.140   9.590  17.042  0.00  0.00    +0.000 Cl
ATOM     16  C   UNL     1      50.884   8.607  16.433  0.00  0.00    +0.000 A 
ATOM     17  C   UNL     1      49.599   8.677  16.908  0.00  0.00    +0.000 A 
ATOM     18  N   UNL     1      48.581   7.915  16.438  0.00  0.00    +0.000 NA
ATOM     19  C   UNL     1      48.876   7.041  15.463  0.00  0.00    +0.000 A 
ATOM     20  N   UNL     1      47.829   6.251  15.017  0.00  0.00    +0.000 N 
ATOM     21  N   UNL     1      50.100   6.910  14.929  0.00  0.00    +0.000 NA
ATOM     22  C   UNL     1      51.081   7.694  15.429  0.00  0.00    +0.000 A 
ATOM     23  H   UNL     1      46.966   6.688  15.311  0.00  0.00    +0.000 HD
ENDBRANCH  14  20
ENDBRANCH   1  14
TORSDOF 3
ENDMDL
MODEL 8
REMARK VINA RESULT:    -5.141      3.824      5.440
REMARK INTER + INTRA:          -6.664
REMARK INTER:                  -6.333
REMARK INTRA:                  -0.330
REMARK UNBOUND:                -0.621
REMARK  Name = 
REMARK  3 active torsions:
REMARK  status: ('A' for Active; 'I' for Inactive)
REMARK    1  A    between atoms: N_6  and  C_7
REMARK    2  A    between atoms: C_7  and  C_8
REMARK    3  A    between atoms: C_12  and  C_13
REMARK                            x       y       z     vdW  Elec       q    Type
REMARK                         _______ _______ _______ _____ _____    ______ ____
ROOT
ATOM      1  C   UNL     1      48.020   4.513  16.899  0.00  0.00    +0.000 A 
ATOM      2  C   UNL     1      47.983   3.799  18.102  0.00  0.00    +0.000 A 
ATOM      3  C   UNL     1      48.872   4.114  19.126  0.00  0.00    +0.000 A 
ATOM      4  C   UNL     1      49.827   5.118  18.944  0.00  0.00    +0.000 A 
ATOM      5  C   UNL     1      49.915   5.835  17.738  0.00  0.00    +0.000 A 
ATOM      6  C   UNL     1      48.974   5.536  16.739  0.00  0.00    +0.000 A 
ENDROOT
BRANCH   5   7
ATOM      7  C   UNL     1      51.095   6.783  17.518  0.00  0.00    +0.000 C 
ATOM      8  C   UNL     1      50.859   8.222  18.015  0.00  0.00    +0.000 C 
ATOM      9  C   UNL     1      50.021   9.035  17.033  0.00  0.00    +0.000 C 
ATOM     10  N   UNL     1      50.640   9.092  15.708  0.00  0.00    +0.000 NA
ATOM     11  C   UNL     1      50.849   7.752  15.160  0.00  0.00    +0.000 C 
ATOM     12  C   UNL     1      51.673   6.860  16.090  0.00  0.00    +0.000 C 
ATOM     13  H   UNL     1      51.533   9.574  15.771  0.00  0.00    +0.000 HD
ENDBRANCH   5   7
BRANCH   1  14
ATOM     14  C   UNL     1      47.061   4.190  15.778  0.00  0.00    +0.000 C 
BRANCH  14  20
ATOM     15 CL   UNL     1      43.757   4.386  10.097  0.00  0.00    +0.000 Cl
ATOM     16  C   UNL     1      44.756   4.605  11.464  0.00  0.00    +0.000 A 
ATOM     17  C   UNL     1      45.106   5.848  11.929  0.00  0.00    +0.000 A 
ATOM     18  N   UNL     1      45.890   6.051  13.016  0.00  0.00    +0.000 NA
ATOM     19  C   UNL     1      46.349   4.959  13.647  0.00  0.00    +0.000 A 
ATOM     20  N   UNL     1      47.173   5.187  14.736  0.00  0.00    +0.000 N 
ATOM     21  N   UNL     1      46.053   3.705  13.271  0.00  0.00    +0.000 NA
ATOM     22  C   UNL     1      45.265   3.554  12.184  0.00  0.00    +0.000 A 
ATOM     23  H   UNL     1      47.037   6.146  15.031  0.00  0.00    +0.000 HD
ENDBRANCH  14  20
ENDBRANCH   1  14
TORSDOF 3
ENDMDL
MODEL 9
REMARK VINA RESULT:    -4.626      3.694      7.466
REMARK INTER + INTRA:          -6.058
REMARK INTER:                  -5.841
REMARK INTRA:                  -0.217
REMARK UNBOUND:                -0.621
REMARK  Name = 
REMARK  3 active torsions:
REMARK  status: ('A' for Active; 'I' for Inactive)
REMARK    1  A    between atoms: N_6  and  C_7
REMARK    2  A    between atoms: C_7  and  C_8
REMARK    3  A    between atoms: C_12  and  C_13
REMARK                            x       y       z     vdW  Elec       q    Type
REMARK                         _______ _______ _______ _____ _____    ______ ____
ROOT
ATOM      1  C   UNL     1      47.210   7.111  12.347  0.00  0.00    +0.000 A 
ATOM      2  C   UNL     1      46.830   8.442  12.144  0.00  0.00    +0.000 A 
ATOM      3  C   UNL     1      45.495   8.758  11.907  0.00  0.00    +0.000 A 
ATOM      4  C   UNL     1      44.536   7.744  11.836  0.00  0.00    +0.000 A 
ATOM      5  C   UNL     1      44.885   6.392  12.003  0.00  0.00    +0.000 A 
ATOM      6  C   UNL     1      46.228   6.103  12.293  0.00  0.00    +0.000 A 
ENDROOT
BRANCH   5   7
ATOM      7  C   UNL     1      43.838   5.312  11.724  0.00  0.00    +0.000 C 
ATOM      8  C   UNL     1      43.904   4.099  12.670  0.00  0.00    +0.000 C 
ATOM      9  C   UNL     1      45.014   3.128  12.278  0.00  0.00    +0.000 C 
ATOM     10  N   UNL     1      44.853   2.644  10.905  0.00  0.00    +0.000 NA
ATOM     11  C   UNL     1      44.828   3.752   9.950  0.00  0.00    +0.000 C 
ATOM     12  C   UNL     1      43.748   4.785  10.277  0.00  0.00    +0.000 C 
ATOM     13  H   UNL     1      43.987   2.115  10.832  0.00  0.00    +0.000 HD
ENDBRANCH   5   7
BRANCH   1  14
ATOM     14  C   UNL     1      48.652   6.749  12.611  0.00  0.00    +0.000 C 
BRANCH  14  20
ATOM     15 CL   UNL     1      54.144   9.359  15.112  0.00  0.00    +0.000 Cl
ATOM     16  C   UNL     1      52.781   8.870  14.208  0.00  0.00    +0.000 A 
ATOM     17  C   UNL     1      52.796   8.789  12.839  0.00  0.00    +0.000 A 
ATOM     18  N   UNL     1      51.732   8.396  12.096  0.00  0.00    +0.000 NA
ATOM     19  C   UNL     1      50.608   8.089  12.761  0.00  0.00    +0.000 A 
ATOM     20  N   UNL     1      49.522   7.719  11.984  0.00  0.00    +0.000 N 
ATOM     21  N   UNL     1      50.501   8.128  14.098  0.00  0.00    +0.000 NA
ATOM     22  C   UNL     1      51.591   8.523  14.795  0.00  0.00    +0.000 A 
ATOM     23  H   UNL     1      49.871   7.468  11.068  0.00  0.00    +0.000 HD
ENDBRANCH  14  20
ENDBRANCH   1  14
TORSDOF 3
ENDMDL
