MODEL 1
REMARK VINA RESULT:    -8.204      0.000      0.000
REMARK INTER + INTRA:         -12.504
REMARK INTER:                 -11.561
REMARK INTRA:                  -0.943
REMARK UNBOUND:                -0.943
REMARK  Name = 
REMARK  7 active torsions:
REMARK  status: ('A' for Active; 'I' for Inactive)
REMARK    1  A    between atoms: C_2  and  C_3
REMARK    2  A    between atoms: C_7  and  O_8
REMARK    3  A    between atoms: O_8  and  C_9
REMARK    4  A    between atoms: C_9  and  C_10
REMARK    5  A    between atoms: C_14  and  C_15
REMARK    6  A    between atoms: C_19  and  O_20
REMARK    7  A    between atoms: O_20  and  C_21
REMARK                            x       y       z     vdW  Elec       q    Type
REMARK                         _______ _______ _______ _____ _____    ______ ____
ROOT
ATOM      1  C   UNL     1      45.328   5.166  12.320  0.00  0.00    +0.000 A 
ATOM      2  C   UNL     1      46.060   6.289  11.904  0.00  0.00    +0.000 A 
ATOM      3  C   UNL     1      47.224   6.681  12.566  0.00  0.00    +0.000 A 
ATOM      4  C   UNL     1      47.664   5.973  13.683  0.00  0.00    +0.000 A 
ATOM      5  C   UNL     1      46.974   4.842  14.145  0.00  0.00    +0.000 A 
ATOM      6  C   UNL     1      45.848   4.434  13.409  0.00  0.00    +0.000 A 
ENDROOT
BRANCH   5   7
ATOM      7  C   UNL     1      47.352   4.163  15.406  0.00  0.00    +0.000 A 
ATOM      8  C   UNL     1      46.765   4.484  16.639  0.00  0.00    +0.000 A 
ATOM      9  C   UNL     1      47.169   3.852  17.821  0.00  0.00    +0.000 A 
ATOM     10  C   UNL     1      48.169   2.879  17.796  0.00  0.00    +0.000 A 
ATOM     11  C   UNL     1      48.784   2.556  16.590  0.00  0.00    +0.000 A 
ATOM     12  C   UNL     1      48.371   3.193  15.415  0.00  0.00    +0.000 A 
BRANCH  11  13
ATOM     13  O   UNL     1      49.771   1.629  16.411  0.00  0.00    +0.000 OA
BRANCH  13  14
ATOM     14  C   UNL     1      50.890   1.734  17.269  0.00  0.00    +0.000 C 
ATOM     15  F   UNL     1      51.837   0.850  16.868  0.00  0.00    +0.000 F 
ATOM     16  F   UNL     1      51.415   2.974  17.092  0.00  0.00    +0.000 F 
ENDBRANCH  13  14
ENDBRANCH  11  13
ENDBRANCH   5   7
BRANCH   1  17
ATOM     17  C   UNL     1      43.977   4.805  11.704  0.00  0.00    +0.000 C 
ATOM     18  C   UNL     1      42.736   5.055  12.561  0.00  0.00    +0.000 C 
ATOM     19  C   UNL     1      42.996   5.915  11.373  0.00  0.00    +0.000 C 
BRANCH  17  20
ATOM     20  O   UNL     1      43.877   3.571  10.939  0.00  0.00    +0.000 OA
BRANCH  20  25
ATOM     21  C   UNL     1      45.928   2.119   8.309  0.00  0.00    +0.000 A 
ATOM     22  C   UNL     1      46.185   3.258   7.560  0.00  0.00    +0.000 A 
ATOM     23  N   UNL     1      45.695   4.482   7.862  0.00  0.00    +0.000 NA
ATOM     24  C   UNL     1      44.925   4.566   8.973  0.00  0.00    +0.000 A 
ATOM     25  C   UNL     1      44.645   3.494   9.809  0.00  0.00    +0.000 A 
ATOM     26  C   UNL     1      45.134   2.241   9.452  0.00  0.00    +0.000 A 
BRANCH  21  28
ATOM     27  N   UNL     1      46.910  -0.165   7.597  0.00  0.00    +0.000 NA
ATOM     28  C   UNL     1      46.472   0.863   7.914  0.00  0.00    +0.000 C 
ENDBRANCH  21  28
ENDBRANCH  20  25
ENDBRANCH  17  20
ENDBRANCH   1  17
TORSDOF 7
ENDMDL
MODEL 2
REMARK VINA RESULT:    -8.033      3.442      4.841
REMARK INTER + INTRA:         -12.264
REMARK INTER:                 -11.105
REMARK INTRA:                  -1.158
REMARK UNBOUND:                -0.943
REMARK  Name = 
REMARK  7 active torsions:
REMARK  status: ('A' for Active; 'I' for Inactive)
REMARK    1  A    between atoms: C_2  and  C_3
REMARK    2  A    between atoms: C_7  and  O_8
REMARK    3  A    between atoms: O_8  and  C_9
REMARK    4  A    between atoms: C_9  and  C_10
REMARK    5  A    between atoms: C_14  and  C_15
REMARK    6  A    between atoms: C_19  and  O_20
REMARK    7  A    between atoms: O_20  and  C_21
REMARK                            x       y       z     vdW  Elec       q    Type
REMARK                         _______ _______ _______ _____ _____    ______ ____
ROOT
ATOM      1  C   UNL     1      45.092   5.025  12.282  0.00  0.00    +0.000 A 
ATOM      2  C   UNL     1      45.633   4.029  13.108  0.00  0.00    +0.000 A 
ATOM      3  C   UNL     1      46.867   4.198  13.735  0.00  0.00    +0.000 A 
ATOM      4  C   UNL     1      47.604   5.361  13.522  0.00  0.00    +0.000 A 
ATOM      5  C   UNL     1      47.115   6.393  12.707  0.00  0.00    +0.000 A 
ATOM      6  C   UNL     1      45.835   6.218  12.151  0.00  0.00    +0.000 A 
ENDROOT
BRANCH   5   7
ATOM      7  C   UNL     1      47.943   7.572  12.364  0.00  0.00    +0.000 A 
ATOM      8  C   UNL     1      47.385   8.834  12.107  0.00  0.00    +0.000 A 
ATOM      9  C   UNL     1      48.189   9.922  11.747  0.00  0.00    +0.000 A 
ATOM     10  C   UNL     1      49.573   9.774  11.639  0.00  0.00    +0.000 A 
ATOM     11  C   UNL     1      50.151   8.528  11.867  0.00  0.00    +0.000 A 
ATOM     12  C   UNL     1      49.338   7.449  12.228  0.00  0.00    +0.000 A 
BRANCH  11  13
ATOM     13  O   UNL     1      51.483   8.233  11.799  0.00  0.00    +0.000 OA
BRANCH  13  14
ATOM     14  C   UNL     1      52.053   8.208  10.506  0.00  0.00    +0.000 C 
ATOM     15  F   UNL     1      53.390   8.012  10.617  0.00  0.00    +0.000 F 
ATOM     16  F   UNL     1      51.552   7.119   9.868  0.00  0.00    +0.000 F 
ENDBRANCH  13  14
ENDBRANCH  11  13
ENDBRANCH   5   7
BRANCH   1  17
ATOM     17  C   UNL     1      43.815   4.803  11.471  0.00  0.00    +0.000 C 
ATOM     18  C   UNL     1      42.492   5.148  12.154  0.00  0.00    +0.000 C 
ATOM     19  C   UNL     1      42.993   6.006  11.045  0.00  0.00    +0.000 C 
BRANCH  17  20
ATOM     20  O   UNL     1      43.717   3.601  10.657  0.00  0.00    +0.000 OA
BRANCH  20  25
ATOM     21  C   UNL     1      45.978   2.057   8.261  0.00  0.00    +0.000 A 
ATOM     22  C   UNL     1      46.402   3.188   7.580  0.00  0.00    +0.000 A 
ATOM     23  N   UNL     1      45.962   4.437   7.851  0.00  0.00    +0.000 NA
ATOM     24  C   UNL     1      45.067   4.556   8.861  0.00  0.00    +0.000 A 
ATOM     25  C   UNL     1      44.613   3.491   9.628  0.00  0.00    +0.000 A 
ATOM     26  C   UNL     1      45.058   2.213   9.301  0.00  0.00    +0.000 A 
BRANCH  21  28
ATOM     27  N   UNL     1      46.884  -0.276   7.609  0.00  0.00    +0.000 NA
ATOM     28  C   UNL     1      46.481   0.773   7.904  0.00  0.00    +0.000 C 
ENDBRANCH  21  28
ENDBRANCH  20  25
ENDBRANCH  17  20
ENDBRANCH   1  17
TORSDOF 7
ENDMDL
MODEL 3
REMARK VINA RESULT:    -7.798      4.650      8.057
REMARK INTER + INTRA:         -11.933
REMARK INTER:                 -10.744
REMARK INTRA:                  -1.189
REMARK UNBOUND:                -0.943
REMARK  Name = 
REMARK  7 active torsions:
REMARK  status: ('A' for Active; 'I' for Inactive)
REMARK    1  A    between atoms: C_2  and  C_3
REMARK    2  A    between atoms: C_7  and  O_8
REMARK    3  A    between atoms: O_8  and  C_9
REMARK    4  A    between atoms: C_9  and  C_10
REMARK    5  A    between atoms: C_14  and  C_15
REMARK    6  A    between atoms: C_19  and  O_20
REMARK    7  A    between atoms: O_20  and  C_21
REMARK                            x       y       z     vdW  Elec       q    Type
REMARK                         _______ _______ _______ _____ _____    ______ ____
ROOT
ATOM      1  C   UNL     1      47.148   7.688  12.591  0.00  0.00    +0.000 A 
ATOM      2  C   UNL     1      46.170   8.686  12.712  0.00  0.00    +0.000 A 
ATOM      3  C   UNL     1      44.889   8.513  12.188  0.00  0.00    +0.000 A 
ATOM      4  C   UNL     1      44.568   7.343  11.502  0.00  0.00    +0.000 A 
ATOM      5  C   UNL     1      45.503   6.309  11.350  0.00  0.00    +0.000 A 
ATOM      6  C   UNL     1      46.761   6.489  11.955  0.00  0.00    +0.000 A 
ENDROOT
BRANCH   5   7
ATOM      7  C   UNL     1      45.221   5.122  10.511  0.00  0.00    +0.000 A 
ATOM      8  C   UNL     1      44.498   4.018  10.989  0.00  0.00    +0.000 A 
ATOM      9  C   UNL     1      44.280   2.893  10.185  0.00  0.00    +0.000 A 
ATOM     10  C   UNL     1      44.776   2.846   8.881  0.00  0.00    +0.000 A 
ATOM     11  C   UNL     1      45.515   3.919   8.389  0.00  0.00    +0.000 A 
ATOM     12  C   UNL     1      45.726   5.039   9.201  0.00  0.00    +0.000 A 
BRANCH  11  13
ATOM     13  O   UNL     1      46.061   4.017   7.141  0.00  0.00    +0.000 OA
BRANCH  13  14
ATOM     14  C   UNL     1      46.619   2.832   6.608  0.00  0.00    +0.000 C 
ATOM     15  F   UNL     1      46.778   2.983   5.270  0.00  0.00    +0.000 F 
ATOM     16  F   UNL     1      47.864   2.702   7.136  0.00  0.00    +0.000 F 
ENDBRANCH  13  14
ENDBRANCH  11  13
ENDBRANCH   5   7
BRANCH   1  17
ATOM     17  C   UNL     1      48.597   7.912  13.026  0.00  0.00    +0.000 C 
ATOM     18  C   UNL     1      49.508   8.648  12.043  0.00  0.00    +0.000 C 
ATOM     19  C   UNL     1      49.075   9.328  13.295  0.00  0.00    +0.000 C 
BRANCH  17  20
ATOM     20  O   UNL     1      49.286   6.829  13.710  0.00  0.00    +0.000 OA
BRANCH  20  25
ATOM     21  C   UNL     1      47.967   5.212  16.690  0.00  0.00    +0.000 A 
ATOM     22  C   UNL     1      48.277   6.179  17.635  0.00  0.00    +0.000 A 
ATOM     23  N   UNL     1      48.924   7.330  17.347  0.00  0.00    +0.000 NA
ATOM     24  C   UNL     1      49.261   7.525  16.050  0.00  0.00    +0.000 A 
ATOM     25  C   UNL     1      48.959   6.637  15.025  0.00  0.00    +0.000 A 
ATOM     26  C   UNL     1      48.324   5.445  15.359  0.00  0.00    +0.000 A 
BRANCH  21  28
ATOM     27  N   UNL     1      46.742   3.044  17.389  0.00  0.00    +0.000 NA
ATOM     28  C   UNL     1      47.295   4.018  17.079  0.00  0.00    +0.000 C 
ENDBRANCH  21  28
ENDBRANCH  20  25
ENDBRANCH  17  20
ENDBRANCH   1  17
TORSDOF 7
ENDMDL
MODEL 4
REMARK VINA RESULT:    -7.761      2.089      2.520
REMARK INTER + INTRA:         -11.880
REMARK INTER:                 -11.021
REMARK INTRA:                  -0.859
REMARK UNBOUND:                -0.943
REMARK  Name = 
REMARK  7 active torsions:
REMARK  status: ('A' for Active; 'I' for Inactive)
REMARK    1  A    between atoms: C_2  and  C_3
REMARK    2  A    between atoms: C_7  and  O_8
REMARK    3  A    between atoms: O_8  and  C_9
REMARK    4  A    between atoms: C_9  and  C_10
REMARK    5  A    between atoms: C_14  and  C_15
REMARK    6  A    between atoms: C_19  and  O_20
REMARK    7  A    between atoms: O_20  and  C_21
REMARK                            x       y       z     vdW  Elec       q    Type
REMARK                         _______ _______ _______ _____ _____    ______ ____
ROOT
ATOM      1  C   UNL     1      45.389   5.355  12.301  0.00  0.00    +0.000 A 
ATOM      2  C   UNL     1      46.044   6.494  11.810  0.00  0.00    +0.000 A 
ATOM      3  C   UNL     1      47.202   6.982  12.415  0.00  0.00    +0.000 A 
ATOM      4  C   UNL     1      47.712   6.356  13.551  0.00  0.00    +0.000 A 
ATOM      5  C   UNL     1      47.102   5.213  14.088  0.00  0.00    +0.000 A 
ATOM      6  C   UNL     1      45.980   4.707  13.408  0.00  0.00    +0.000 A 
ENDROOT
BRANCH   5   7
ATOM      7  C   UNL     1      47.553   4.619  15.368  0.00  0.00    +0.000 A 
ATOM      8  C   UNL     1      47.566   3.233  15.590  0.00  0.00    +0.000 A 
ATOM      9  C   UNL     1      47.961   2.701  16.823  0.00  0.00    +0.000 A 
ATOM     10  C   UNL     1      48.356   3.543  17.863  0.00  0.00    +0.000 A 
ATOM     11  C   UNL     1      48.331   4.923  17.677  0.00  0.00    +0.000 A 
ATOM     12  C   UNL     1      47.937   5.443  16.441  0.00  0.00    +0.000 A 
BRANCH  11  13
ATOM     13  O   UNL     1      48.688   5.867  18.598  0.00  0.00    +0.000 OA
BRANCH  13  14
ATOM     14  C   UNL     1      48.724   7.204  18.141  0.00  0.00    +0.000 C 
ATOM     15  F   UNL     1      47.710   7.895  18.718  0.00  0.00    +0.000 F 
ATOM     16  F   UNL     1      49.879   7.753  18.598  0.00  0.00    +0.000 F 
ENDBRANCH  13  14
ENDBRANCH  11  13
ENDBRANCH   5   7
BRANCH   1  17
ATOM     17  C   UNL     1      44.043   4.889  11.746  0.00  0.00    +0.000 C 
ATOM     18  C   UNL     1      42.815   5.112  12.628  0.00  0.00    +0.000 C 
ATOM     19  C   UNL     1      42.992   5.925  11.394  0.00  0.00    +0.000 C 
BRANCH  17  20
ATOM     20  O   UNL     1      43.992   3.615  11.043  0.00  0.00    +0.000 OA
BRANCH  20  25
ATOM     21  C   UNL     1      45.936   2.130   8.352  0.00  0.00    +0.000 A 
ATOM     22  C   UNL     1      46.207   3.267   7.605  0.00  0.00    +0.000 A 
ATOM     23  N   UNL     1      45.758   4.501   7.928  0.00  0.00    +0.000 NA
ATOM     24  C   UNL     1      45.019   4.598   9.059  0.00  0.00    +0.000 A 
ATOM     25  C   UNL     1      44.729   3.527   9.894  0.00  0.00    +0.000 A 
ATOM     26  C   UNL     1      45.175   2.264   9.516  0.00  0.00    +0.000 A 
BRANCH  21  28
ATOM     27  N   UNL     1      46.850  -0.168   7.593  0.00  0.00    +0.000 NA
ATOM     28  C   UNL     1      46.435   0.863   7.934  0.00  0.00    +0.000 C 
ENDBRANCH  21  28
ENDBRANCH  20  25
ENDBRANCH  17  20
ENDBRANCH   1  17
TORSDOF 7
ENDMDL
MODEL 5
REMARK VINA RESULT:    -7.182      1.971      3.160
REMARK INTER + INTRA:         -11.065
REMARK INTER:                 -10.735
REMARK INTRA:                  -0.330
REMARK UNBOUND:                -0.943
REMARK  Name = 
REMARK  7 active torsions:
REMARK  status: ('A' for Active; 'I' for Inactive)
REMARK    1  A    between atoms: C_2  and  C_3
REMARK    2  A    between atoms: C_7  and  O_8
REMARK    3  A    between atoms: O_8  and  C_9
REMARK    4  A    between atoms: C_9  and  C_10
REMARK    5  A    between atoms: C_14  and  C_15
REMARK    6  A    between atoms: C_19  and  O_20
REMARK    7  A    between atoms: O_20  and  C_21
REMARK                            x       y       z     vdW  Elec       q    Type
REMARK                         _______ _______ _______ _____ _____    ______ ____
ROOT
ATOM      1  C   UNL     1      44.859   5.696  11.660  0.00  0.00    +0.000 A 
ATOM      2  C   UNL     1      44.191   6.866  11.271  0.00  0.00    +0.000 A 
ATOM      3  C   UNL     1      44.749   8.126  11.489  0.00  0.00    +0.000 A 
ATOM      4  C   UNL     1      45.979   8.242  12.133  0.00  0.00    +0.000 A 
ATOM      5  C   UNL     1      46.695   7.108  12.544  0.00  0.00    +0.000 A 
ATOM      6  C   UNL     1      46.136   5.854  12.241  0.00  0.00    +0.000 A 
ENDROOT
BRANCH   5   7
ATOM      7  C   UNL     1      47.935   7.220  13.346  0.00  0.00    +0.000 A 
ATOM      8  C   UNL     1      49.037   7.982  12.927  0.00  0.00    +0.000 A 
ATOM      9  C   UNL     1      50.210   8.037  13.687  0.00  0.00    +0.000 A 
ATOM     10  C   UNL     1      50.309   7.335  14.889  0.00  0.00    +0.000 A 
ATOM     11  C   UNL     1      49.240   6.554  15.318  0.00  0.00    +0.000 A 
ATOM     12  C   UNL     1      48.071   6.507  14.551  0.00  0.00    +0.000 A 
BRANCH  11  13
ATOM     13  O   UNL     1      49.191   5.815  16.466  0.00  0.00    +0.000 OA
BRANCH  13  14
ATOM     14  C   UNL     1      48.075   4.958  16.611  0.00  0.00    +0.000 C 
ATOM     15  F   UNL     1      48.452   3.690  16.314  0.00  0.00    +0.000 F 
ATOM     16  F   UNL     1      47.733   4.965  17.925  0.00  0.00    +0.000 F 
ENDBRANCH  13  14
ENDBRANCH  11  13
ENDBRANCH   5   7
BRANCH   1  17
ATOM     17  C   UNL     1      44.205   4.317  11.566  0.00  0.00    +0.000 C 
ATOM     18  C   UNL     1      44.825   3.198  12.402  0.00  0.00    +0.000 C 
ATOM     19  C   UNL     1      43.496   3.752  12.783  0.00  0.00    +0.000 C 
BRANCH  17  20
ATOM     20  O   UNL     1      43.770   3.850  10.258  0.00  0.00    +0.000 OA
BRANCH  20  25
ATOM     21  C   UNL     1      46.110   2.043   8.138  0.00  0.00    +0.000 A 
ATOM     22  C   UNL     1      46.713   3.112   7.494  0.00  0.00    +0.000 A 
ATOM     23  N   UNL     1      46.371   4.404   7.701  0.00  0.00    +0.000 NA
ATOM     24  C   UNL     1      45.390   4.630   8.607  0.00  0.00    +0.000 A 
ATOM     25  C   UNL     1      44.755   3.631   9.333  0.00  0.00    +0.000 A 
ATOM     26  C   UNL     1      45.105   2.310   9.071  0.00  0.00    +0.000 A 
BRANCH  21  28
ATOM     27  N   UNL     1      46.850  -0.382   7.626  0.00  0.00    +0.000 NA
ATOM     28  C   UNL     1      46.520   0.709   7.853  0.00  0.00    +0.000 C 
ENDBRANCH  21  28
ENDBRANCH  20  25
ENDBRANCH  17  20
ENDBRANCH   1  17
TORSDOF 7
ENDMDL
MODEL 6
REMARK VINA RESULT:    -7.141      5.197      8.750
REMARK INTER + INTRA:         -11.006
REMARK INTER:                  -9.970
REMARK INTRA:                  -1.036
REMARK UNBOUND:                -0.943
REMARK  Name = 
REMARK  7 active torsions:
REMARK  status: ('A' for Active; 'I' for Inactive)
REMARK    1  A    between atoms: C_2  and  C_3
REMARK    2  A    between atoms: C_7  and  O_8
REMARK    3  A    between atoms: O_8  and  C_9
REMARK    4  A    between atoms: C_9  and  C_10
REMARK    5  A    between atoms: C_14  and  C_15
REMARK    6  A    between atoms: C_19  and  O_20
REMARK    7  A    between atoms: O_20  and  C_21
REMARK                            x       y       z     vdW  Elec       q    Type
REMARK                         _______ _______ _______ _____ _____    ______ ____
ROOT
ATOM      1  C   UNL     1      47.412   7.558  12.730  0.00  0.00    +0.000 A 
ATOM      2  C   UNL     1      46.534   8.646  12.845  0.00  0.00    +0.000 A 
ATOM      3  C   UNL     1      45.246   8.598  12.312  0.00  0.00    +0.000 A 
ATOM      4  C   UNL     1      44.819   7.467  11.620  0.00  0.00    +0.000 A 
ATOM      5  C   UNL     1      45.651   6.347  11.473  0.00  0.00    +0.000 A 
ATOM      6  C   UNL     1      46.915   6.403  12.087  0.00  0.00    +0.000 A 
ENDROOT
BRANCH   5   7
ATOM      7  C   UNL     1      45.262   5.194  10.628  0.00  0.00    +0.000 A 
ATOM      8  C   UNL     1      44.467   4.142  11.111  0.00  0.00    +0.000 A 
ATOM      9  C   UNL     1      44.147   3.046  10.301  0.00  0.00    +0.000 A 
ATOM     10  C   UNL     1      44.611   2.978   8.987  0.00  0.00    +0.000 A 
ATOM     11  C   UNL     1      45.419   3.997   8.489  0.00  0.00    +0.000 A 
ATOM     12  C   UNL     1      45.731   5.088   9.307  0.00  0.00    +0.000 A 
BRANCH  11  13
ATOM     13  O   UNL     1      45.944   4.067   7.230  0.00  0.00    +0.000 OA
BRANCH  13  14
ATOM     14  C   UNL     1      46.555   2.890   6.741  0.00  0.00    +0.000 C 
ATOM     15  F   UNL     1      46.464   2.876   5.388  0.00  0.00    +0.000 F 
ATOM     16  F   UNL     1      47.877   2.970   7.042  0.00  0.00    +0.000 F 
ENDBRANCH  13  14
ENDBRANCH  11  13
ENDBRANCH   5   7
BRANCH   1  17
ATOM     17  C   UNL     1      48.871   7.641  13.176  0.00  0.00    +0.000 C 
ATOM     18  C   UNL     1      49.901   8.012  12.110  0.00  0.00    +0.000 C 
ATOM     19  C   UNL     1      49.566   8.990  13.181  0.00  0.00    +0.000 C 
BRANCH  17  20
ATOM     20  O   UNL     1      49.370   6.626  14.093  0.00  0.00    +0.000 OA
BRANCH  20  25
ATOM     21  C   UNL     1      49.005   7.971  17.453  0.00  0.00    +0.000 A 
ATOM     22  C   UNL     1      50.330   7.933  17.863  0.00  0.00    +0.000 A 
ATOM     23  N   UNL     1      51.340   7.461  17.098  0.00  0.00    +0.000 NA
ATOM     24  C   UNL     1      51.005   7.023  15.861  0.00  0.00    +0.000 A 
ATOM     25  C   UNL     1      49.717   7.058  15.344  0.00  0.00    +0.000 A 
ATOM     26  C   UNL     1      48.694   7.516  16.169  0.00  0.00    +0.000 A 
BRANCH  21  28
ATOM     27  N   UNL     1      47.181   8.878  19.046  0.00  0.00    +0.000 NA
ATOM     28  C   UNL     1      47.998   8.471  18.327  0.00  0.00    +0.000 C 
ENDBRANCH  21  28
ENDBRANCH  20  25
ENDBRANCH  17  20
ENDBRANCH   1  17
TORSDOF 7
ENDMDL
MODEL 7
REMARK VINA RESULT:    -6.586      4.864      8.260
REMARK INTER + INTRA:         -10.224
REMARK INTER:                  -9.091
REMARK INTRA:                  -1.133
REMARK UNBOUND:                -0.943
REMARK  Name = 
REMARK  7 active torsions:
REMARK  status: ('A' for Active; 'I' for Inactive)
REMARK    1  A    between atoms: C_2  and  C_3
REMARK    2  A    between atoms: C_7  and  O_8
REMARK    3  A    between atoms: O_8  and  C_9
REMARK    4  A    between atoms: C_9  and  C_10
REMARK    5  A    between atoms: C_14  and  C_15
REMARK    6  A    between atoms: C_19  and  O_20
REMARK    7  A    between atoms: O_20  and  C_21
REMARK                            x       y       z     vdW  Elec       q    Type
REMARK                         _______ _______ _______ _____ _____    ______ ____
ROOT
ATOM      1  C   UNL     1      48.809   8.061  13.938  0.00  0.00    +0.000 A 
ATOM      2  C   UNL     1      49.659   8.338  12.857  0.00  0.00    +0.000 A 
ATOM      3  C   UNL     1      49.324   7.961  11.556  0.00  0.00    +0.000 A 
ATOM      4  C   UNL     1      48.140   7.266  11.314  0.00  0.00    +0.000 A 
ATOM      5  C   UNL     1      47.250   6.961  12.354  0.00  0.00    +0.000 A 
ATOM      6  C   UNL     1      47.586   7.422  13.640  0.00  0.00    +0.000 A 
ENDROOT
BRANCH   5   7
ATOM      7  C   UNL     1      46.058   6.110  12.134  0.00  0.00    +0.000 A 
ATOM      8  C   UNL     1      45.270   5.630  13.192  0.00  0.00    +0.000 A 
ATOM      9  C   UNL     1      44.172   4.795  12.957  0.00  0.00    +0.000 A 
ATOM     10  C   UNL     1      43.832   4.423  11.655  0.00  0.00    +0.000 A 
ATOM     11  C   UNL     1      44.610   4.866  10.589  0.00  0.00    +0.000 A 
ATOM     12  C   UNL     1      45.704   5.702  10.836  0.00  0.00    +0.000 A 
BRANCH  11  13
ATOM     13  O   UNL     1      44.401   4.586   9.268  0.00  0.00    +0.000 OA
BRANCH  13  14
ATOM     14  C   UNL     1      44.950   3.373   8.792  0.00  0.00    +0.000 C 
ATOM     15  F   UNL     1      44.137   2.349   9.154  0.00  0.00    +0.000 F 
ATOM     16  F   UNL     1      44.925   3.427   7.435  0.00  0.00    +0.000 F 
ENDBRANCH  13  14
ENDBRANCH  11  13
ENDBRANCH   5   7
BRANCH   1  17
ATOM     17  C   UNL     1      49.220   8.333  15.385  0.00  0.00    +0.000 C 
ATOM     18  C   UNL     1      49.413   9.795  15.787  0.00  0.00    +0.000 C 
ATOM     19  C   UNL     1      48.243   9.036  16.310  0.00  0.00    +0.000 C 
BRANCH  17  20
ATOM     20  O   UNL     1      50.211   7.459  15.994  0.00  0.00    +0.000 OA
BRANCH  20  25
ATOM     21  C   UNL     1      48.352   4.870  17.748  0.00  0.00    +0.000 A 
ATOM     22  C   UNL     1      48.852   5.052  19.029  0.00  0.00    +0.000 A 
ATOM     23  N   UNL     1      49.794   5.969  19.343  0.00  0.00    +0.000 NA
ATOM     24  C   UNL     1      50.242   6.747  18.329  0.00  0.00    +0.000 A 
ATOM     25  C   UNL     1      49.774   6.671  17.024  0.00  0.00    +0.000 A 
ATOM     26  C   UNL     1      48.830   5.693  16.725  0.00  0.00    +0.000 A 
BRANCH  21  28
ATOM     27  N   UNL     1      46.564   3.055  17.300  0.00  0.00    +0.000 NA
ATOM     28  C   UNL     1      47.369   3.871  17.497  0.00  0.00    +0.000 C 
ENDBRANCH  21  28
ENDBRANCH  20  25
ENDBRANCH  17  20
ENDBRANCH   1  17
TORSDOF 7
ENDMDL
MODEL 8
REMARK VINA RESULT:    -6.569      4.484      7.860
REMARK INTER + INTRA:         -10.200
REMARK INTER:                  -8.883
REMARK INTRA:                  -1.318
REMARK UNBOUND:                -0.943
REMARK  Name = 
REMARK  7 active torsions:
REMARK  status: ('A' for Active; 'I' for Inactive)
REMARK    1  A    between atoms: C_2  and  C_3
REMARK    2  A    between atoms: C_7  and  O_8
REMARK    3  A    between atoms: O_8  and  C_9
REMARK    4  A    between atoms: C_9  and  C_10
REMARK    5  A    between atoms: C_14  and  C_15
REMARK    6  A    between atoms: C_19  and  O_20
REMARK    7  A    between atoms: O_20  and  C_21
REMARK                            x       y       z     vdW  Elec       q    Type
REMARK                         _______ _______ _______ _____ _____    ______ ____
ROOT
ATOM      1  C   UNL     1      49.038   7.594  16.559  0.00  0.00    +0.000 A 
ATOM      2  C   UNL     1      50.362   7.824  16.156  0.00  0.00    +0.000 A 
ATOM      3  C   UNL     1      50.748   7.692  14.822  0.00  0.00    +0.000 A 
ATOM      4  C   UNL     1      49.818   7.295  13.863  0.00  0.00    +0.000 A 
ATOM      5  C   UNL     1      48.479   7.051  14.205  0.00  0.00    +0.000 A 
ATOM      6  C   UNL     1      48.112   7.266  15.545  0.00  0.00    +0.000 A 
ENDROOT
BRANCH   5   7
ATOM      7  C   UNL     1      47.515   6.500  13.226  0.00  0.00    +0.000 A 
ATOM      8  C   UNL     1      47.412   6.989  11.914  0.00  0.00    +0.000 A 
ATOM      9  C   UNL     1      46.464   6.475  11.022  0.00  0.00    +0.000 A 
ATOM     10  C   UNL     1      45.597   5.456  11.419  0.00  0.00    +0.000 A 
ATOM     11  C   UNL     1      45.663   4.967  12.721  0.00  0.00    +0.000 A 
ATOM     12  C   UNL     1      46.615   5.487  13.604  0.00  0.00    +0.000 A 
BRANCH  11  13
ATOM     13  O   UNL     1      44.885   3.977  13.251  0.00  0.00    +0.000 OA
BRANCH  13  14
ATOM     14  C   UNL     1      43.492   4.216  13.264  0.00  0.00    +0.000 C 
ATOM     15  F   UNL     1      43.273   5.554  13.288  0.00  0.00    +0.000 F 
ATOM     16  F   UNL     1      42.996   3.762  12.084  0.00  0.00    +0.000 F 
ENDBRANCH  13  14
ENDBRANCH  11  13
ENDBRANCH   5   7
BRANCH   1  17
ATOM     17  C   UNL     1      48.626   7.589  18.031  0.00  0.00    +0.000 C 
ATOM     18  C   UNL     1      48.877   8.870  18.825  0.00  0.00    +0.000 C 
ATOM     19  C   UNL     1      47.482   8.480  18.479  0.00  0.00    +0.000 C 
BRANCH  17  20
ATOM     20  O   UNL     1      48.893   6.393  18.816  0.00  0.00    +0.000 OA
BRANCH  20  25
ATOM     21  C   UNL     1      49.219   3.048  17.425  0.00  0.00    +0.000 A 
ATOM     22  C   UNL     1      47.890   2.793  17.120  0.00  0.00    +0.000 A 
ATOM     23  N   UNL     1      46.883   3.658  17.374  0.00  0.00    +0.000 NA
ATOM     24  C   UNL     1      47.228   4.836  17.945  0.00  0.00    +0.000 A 
ATOM     25  C   UNL     1      48.533   5.201  18.249  0.00  0.00    +0.000 A 
ATOM     26  C   UNL     1      49.543   4.276  18.008  0.00  0.00    +0.000 A 
BRANCH  21  28
ATOM     27  N   UNL     1      51.033   1.281  16.897  0.00  0.00    +0.000 NA
ATOM     28  C   UNL     1      50.221   2.077  17.138  0.00  0.00    +0.000 C 
ENDBRANCH  21  28
ENDBRANCH  20  25
ENDBRANCH  17  20
ENDBRANCH   1  17
TORSDOF 7
ENDMDL
MODEL 9
REMARK VINA RESULT:    -6.345      5.097      9.075
REMARK INTER + INTRA:          -9.886
REMARK INTER:                  -8.829
REMARK INTRA:                  -1.057
REMARK UNBOUND:                -0.943
REMARK  Name = 
REMARK  7 active torsions:
REMARK  status: ('A' for Active; 'I' for Inactive)
REMARK    1  A    between atoms: C_2  and  C_3
REMARK    2  A    between atoms: C_7  and  O_8
REMARK    3  A    between atoms: O_8  and  C_9
REMARK    4  A    between atoms: C_9  and  C_10
REMARK    5  A    between atoms: C_14  and  C_15
REMARK    6  A    between atoms: C_19  and  O_20
REMARK    7  A    between atoms: O_20  and  C_21
REMARK                            x       y       z     vdW  Elec       q    Type
REMARK                         _______ _______ _______ _____ _____    ______ ____
ROOT
ATOM      1  C   UNL     1      47.660   5.114  15.594  0.00  0.00    +0.000 A 
ATOM      2  C   UNL     1      48.515   6.154  15.200  0.00  0.00    +0.000 A 
ATOM      3  C   UNL     1      48.366   6.788  13.967  0.00  0.00    +0.000 A 
ATOM      4  C   UNL     1      47.373   6.370  13.083  0.00  0.00    +0.000 A 
ATOM      5  C   UNL     1      46.487   5.336  13.421  0.00  0.00    +0.000 A 
ATOM      6  C   UNL     1      46.621   4.771  14.702  0.00  0.00    +0.000 A 
ENDROOT
BRANCH   5   7
ATOM      7  C   UNL     1      45.516   4.793  12.443  0.00  0.00    +0.000 A 
ATOM      8  C   UNL     1      44.376   4.074  12.835  0.00  0.00    +0.000 A 
ATOM      9  C   UNL     1      43.496   3.539  11.887  0.00  0.00    +0.000 A 
ATOM     10  C   UNL     1      43.733   3.713  10.523  0.00  0.00    +0.000 A 
ATOM     11  C   UNL     1      44.869   4.403  10.106  0.00  0.00    +0.000 A 
ATOM     12  C   UNL     1      45.740   4.935  11.062  0.00  0.00    +0.000 A 
BRANCH  11  13
ATOM     13  O   UNL     1      45.231   4.651   8.813  0.00  0.00    +0.000 OA
BRANCH  13  14
ATOM     14  C   UNL     1      45.271   3.533   7.948  0.00  0.00    +0.000 C 
ATOM     15  F   UNL     1      45.978   3.859   6.838  0.00  0.00    +0.000 F 
ATOM     16  F   UNL     1      45.971   2.559   8.584  0.00  0.00    +0.000 F 
ENDBRANCH  13  14
ENDBRANCH  11  13
ENDBRANCH   5   7
BRANCH   1  17
ATOM     17  C   UNL     1      47.894   4.310  16.872  0.00  0.00    +0.000 C 
ATOM     18  C   UNL     1      48.190   2.819  16.708  0.00  0.00    +0.000 C 
ATOM     19  C   UNL     1      49.275   3.742  17.144  0.00  0.00    +0.000 C 
BRANCH  17  20
ATOM     20  O   UNL     1      47.041   4.578  18.020  0.00  0.00    +0.000 OA
BRANCH  20  25
ATOM     21  C   UNL     1      47.690   7.769  19.641  0.00  0.00    +0.000 A 
ATOM     22  C   UNL     1      48.439   7.332  20.723  0.00  0.00    +0.000 A 
ATOM     23  N   UNL     1      48.721   6.032  20.965  0.00  0.00    +0.000 NA
ATOM     24  C   UNL     1      48.243   5.135  20.071  0.00  0.00    +0.000 A 
ATOM     25  C   UNL     1      47.520   5.476  18.935  0.00  0.00    +0.000 A 
ATOM     26  C   UNL     1      47.215   6.819  18.734  0.00  0.00    +0.000 A 
BRANCH  21  28
ATOM     27  N   UNL     1      47.206  10.290  19.315  0.00  0.00    +0.000 NA
ATOM     28  C   UNL     1      47.425   9.158  19.466  0.00  0.00    +0.000 C 
ENDBRANCH  21  28
ENDBRANCH  20  25
ENDBRANCH  17  20
ENDBRANCH   1  17
TORSDOF 7
ENDMDL
