MODEL 1
REMARK VINA RESULT:    -8.506      0.000      0.000
REMARK INTER + INTRA:         -12.133
REMARK INTER:                 -11.490
REMARK INTRA:                  -0.643
REMARK UNBOUND:                -0.643
REMARK  Name = 
REMARK  6 active torsions:
REMARK  status: ('A' for Active; 'I' for Inactive)
REMARK    1  A    between atoms: C_2  and  C_4
REMARK    2  A    between atoms: N_8  and  C_9
REMARK    3  A    between atoms: C_9  and  C_10
REMARK    4  A    between atoms: C_10  and  C_11
REMARK    5  A    between atoms: C_15  and  O_16
REMARK    6  A    between atoms: O_16  and  C_17
REMARK                            x       y       z     vdW  Elec       q    Type
REMARK                         _______ _______ _______ _____ _____    ______ ____
ROOT
ATOM      1  C   UNL     1      44.076   4.924  11.909  0.00  0.00    +0.000 C 
ATOM      2  C   UNL     1      43.207   3.776  12.407  0.00  0.00    +0.000 C 
ATOM      3  C   UNL     1      42.828   5.181  12.749  0.00  0.00    +0.000 C 
ENDROOT
BRANCH   1   4
ATOM      4  C   UNL     1      45.451   5.126  12.545  0.00  0.00    +0.000 A 
ATOM      5  C   UNL     1      46.140   6.342  12.421  0.00  0.00    +0.000 A 
ATOM      6  C   UNL     1      47.300   6.594  13.158  0.00  0.00    +0.000 A 
ATOM      7  C   UNL     1      47.801   5.632  14.035  0.00  0.00    +0.000 A 
ATOM      8  C   UNL     1      47.144   4.414  14.168  0.00  0.00    +0.000 A 
ATOM      9  C   UNL     1      46.015   4.152  13.389  0.00  0.00    +0.000 A 
BRANCH   8  10
ATOM     10  O   UNL     1      47.545   3.398  14.979  0.00  0.00    +0.000 OA
BRANCH  10  11
ATOM     11  C   UNL     1      47.635   3.666  16.374  0.00  0.00    +0.000 C 
ATOM     12  F   UNL     1      46.695   4.510  16.845  0.00  0.00    +0.000 F 
ATOM     13  F   UNL     1      47.527   2.498  17.047  0.00  0.00    +0.000 F 
ATOM     14  F   UNL     1      48.852   4.187  16.638  0.00  0.00    +0.000 F 
ENDBRANCH  10  11
ENDBRANCH   8  10
ENDBRANCH   1   4
BRANCH   1  15
ATOM     15  C   UNL     1      44.025   5.184  10.393  0.00  0.00    +0.000 C 
BRANCH  15  20
ATOM     16  C   UNL     1      46.540   2.818   7.465  0.00  0.00    +0.000 C 
ATOM     17  C   UNL     1      45.933   1.769   8.043  0.00  0.00    +0.000 C 
ATOM     18  C   UNL     1      45.028   1.755   9.162  0.00  0.00    +0.000 C 
ATOM     19  C   UNL     1      44.535   2.822   9.796  0.00  0.00    +0.000 C 
ATOM     20  N   UNL     1      44.704   4.169   9.542  0.00  0.00    +0.000 N 
ATOM     21  C   UNL     1      45.619   4.654   8.614  0.00  0.00    +0.000 C 
ATOM     22  N   UNL     1      46.430   4.165   7.736  0.00  0.00    +0.000 NA
BRANCH  16  24
ATOM     23  N   UNL     1      47.482   3.256   5.282  0.00  0.00    +0.000 N 
ATOM     24  C   UNL     1      47.523   2.431   6.369  0.00  0.00    +0.000 C 
ATOM     25  O   UNL     1      48.310   1.494   6.430  0.00  0.00    +0.000 OA
ATOM     26  H   UNL     1      48.133   3.117   4.525  0.00  0.00    +0.000 HD
ATOM     27  H   UNL     1      46.844   4.043   5.295  0.00  0.00    +0.000 HD
ENDBRANCH  16  24
ENDBRANCH  15  20
ENDBRANCH   1  15
TORSDOF 6
ENDMDL
MODEL 2
REMARK VINA RESULT:    -7.792      4.565      7.690
REMARK INTER + INTRA:         -11.169
REMARK INTER:                 -11.125
REMARK INTRA:                  -0.043
REMARK UNBOUND:                -0.643
REMARK  Name = 
REMARK  6 active torsions:
REMARK  status: ('A' for Active; 'I' for Inactive)
REMARK    1  A    between atoms: C_2  and  C_4
REMARK    2  A    between atoms: N_8  and  C_9
REMARK    3  A    between atoms: C_9  and  C_10
REMARK    4  A    between atoms: C_10  and  C_11
REMARK    5  A    between atoms: C_15  and  O_16
REMARK    6  A    between atoms: O_16  and  C_17
REMARK                            x       y       z     vdW  Elec       q    Type
REMARK                         _______ _______ _______ _____ _____    ______ ____
ROOT
ATOM      1  C   UNL     1      45.522   6.056  11.602  0.00  0.00    +0.000 C 
ATOM      2  C   UNL     1      44.734   7.333  11.332  0.00  0.00    +0.000 C 
ATOM      3  C   UNL     1      44.412   6.516  12.542  0.00  0.00    +0.000 C 
ENDROOT
BRANCH   1   4
ATOM      4  C   UNL     1      45.276   4.845  10.703  0.00  0.00    +0.000 A 
ATOM      5  C   UNL     1      44.534   3.743  11.152  0.00  0.00    +0.000 A 
ATOM      6  C   UNL     1      44.145   2.727  10.276  0.00  0.00    +0.000 A 
ATOM      7  C   UNL     1      44.494   2.788   8.927  0.00  0.00    +0.000 A 
ATOM      8  C   UNL     1      45.240   3.863   8.458  0.00  0.00    +0.000 A 
ATOM      9  C   UNL     1      45.667   4.848   9.351  0.00  0.00    +0.000 A 
BRANCH   8  10
ATOM     10  O   UNL     1      45.650   4.024   7.170  0.00  0.00    +0.000 OA
BRANCH  10  11
ATOM     11  C   UNL     1      46.647   3.134   6.681  0.00  0.00    +0.000 C 
ATOM     12  F   UNL     1      46.390   1.828   6.901  0.00  0.00    +0.000 F 
ATOM     13  F   UNL     1      46.775   3.318   5.347  0.00  0.00    +0.000 F 
ATOM     14  F   UNL     1      47.827   3.444   7.259  0.00  0.00    +0.000 F 
ENDBRANCH  10  11
ENDBRANCH   8  10
ENDBRANCH   1   4
BRANCH   1  15
ATOM     15  C   UNL     1      46.990   6.260  12.019  0.00  0.00    +0.000 C 
BRANCH  15  20
ATOM     16  C   UNL     1      47.567   4.325  16.070  0.00  0.00    +0.000 C 
ATOM     17  C   UNL     1      48.269   5.442  16.322  0.00  0.00    +0.000 C 
ATOM     18  C   UNL     1      48.600   6.519  15.427  0.00  0.00    +0.000 C 
ATOM     19  C   UNL     1      48.182   6.660  14.166  0.00  0.00    +0.000 C 
ATOM     20  N   UNL     1      47.321   5.881  13.419  0.00  0.00    +0.000 N 
ATOM     21  C   UNL     1      46.853   4.645  13.851  0.00  0.00    +0.000 C 
ATOM     22  N   UNL     1      46.926   3.922  14.919  0.00  0.00    +0.000 NA
BRANCH  16  24
ATOM     23  N   UNL     1      48.698   3.254  17.919  0.00  0.00    +0.000 N 
ATOM     24  C   UNL     1      47.518   3.354  17.241  0.00  0.00    +0.000 C 
ATOM     25  O   UNL     1      46.526   2.724  17.590  0.00  0.00    +0.000 OA
ATOM     26  H   UNL     1      48.753   2.678  18.745  0.00  0.00    +0.000 HD
ATOM     27  H   UNL     1      49.479   3.825  17.618  0.00  0.00    +0.000 HD
ENDBRANCH  16  24
ENDBRANCH  15  20
ENDBRANCH   1  15
TORSDOF 6
ENDMDL
MODEL 3
REMARK VINA RESULT:    -7.249      4.286      7.516
REMARK INTER + INTRA:         -10.435
REMARK INTER:                 -10.029
REMARK INTRA:                  -0.407
REMARK UNBOUND:                -0.643
REMARK  Name = 
REMARK  6 active torsions:
REMARK  status: ('A' for Active; 'I' for Inactive)
REMARK    1  A    between atoms: C_2  and  C_4
REMARK    2  A    between atoms: N_8  and  C_9
REMARK    3  A    between atoms: C_9  and  C_10
REMARK    4  A    between atoms: C_10  and  C_11
REMARK    5  A    between atoms: C_15  and  O_16
REMARK    6  A    between atoms: O_16  and  C_17
REMARK                            x       y       z     vdW  Elec       q    Type
REMARK                         _______ _______ _______ _____ _____    ______ ____
ROOT
ATOM      1  C   UNL     1      46.206   7.193  12.429  0.00  0.00    +0.000 C 
ATOM      2  C   UNL     1      46.200   8.510  11.663  0.00  0.00    +0.000 C 
ATOM      3  C   UNL     1      45.768   8.495  13.094  0.00  0.00    +0.000 C 
ENDROOT
BRANCH   1   4
ATOM      4  C   UNL     1      45.149   6.145  12.085  0.00  0.00    +0.000 A 
ATOM      5  C   UNL     1      44.065   5.894  12.941  0.00  0.00    +0.000 A 
ATOM      6  C   UNL     1      43.000   5.083  12.542  0.00  0.00    +0.000 A 
ATOM      7  C   UNL     1      42.996   4.499  11.275  0.00  0.00    +0.000 A 
ATOM      8  C   UNL     1      44.063   4.721  10.412  0.00  0.00    +0.000 A 
ATOM      9  C   UNL     1      45.146   5.492  10.839  0.00  0.00    +0.000 A 
BRANCH   8  10
ATOM     10  O   UNL     1      44.175   4.195   9.162  0.00  0.00    +0.000 OA
BRANCH  10  11
ATOM     11  C   UNL     1      44.863   2.956   9.029  0.00  0.00    +0.000 C 
ATOM     12  F   UNL     1      44.145   1.977   8.440  0.00  0.00    +0.000 F 
ATOM     13  F   UNL     1      45.981   3.158   8.294  0.00  0.00    +0.000 F 
ATOM     14  F   UNL     1      45.240   2.535  10.255  0.00  0.00    +0.000 F 
ENDBRANCH  10  11
ENDBRANCH   8  10
ENDBRANCH   1   4
BRANCH   1  15
ATOM     15  C   UNL     1      47.598   6.620  12.749  0.00  0.00    +0.000 C 
BRANCH  15  20
ATOM     16  C   UNL     1      47.671   4.338  16.658  0.00  0.00    +0.000 C 
ATOM     17  C   UNL     1      48.455   5.356  17.049  0.00  0.00    +0.000 C 
ATOM     18  C   UNL     1      48.957   6.457  16.271  0.00  0.00    +0.000 C 
ATOM     19  C   UNL     1      48.654   6.734  15.000  0.00  0.00    +0.000 C 
ATOM     20  N   UNL     1      47.782   6.105  14.133  0.00  0.00    +0.000 N 
ATOM     21  C   UNL     1      47.164   4.895  14.428  0.00  0.00    +0.000 C 
ATOM     22  N   UNL     1      47.085   4.090  15.436  0.00  0.00    +0.000 NA
BRANCH  16  24
ATOM     23  N   UNL     1      48.289   3.403  18.800  0.00  0.00    +0.000 N 
ATOM     24  C   UNL     1      47.437   3.293  17.739  0.00  0.00    +0.000 C 
ATOM     25  O   UNL     1      46.562   2.435  17.710  0.00  0.00    +0.000 OA
ATOM     26  H   UNL     1      48.179   2.792  19.594  0.00  0.00    +0.000 HD
ATOM     27  H   UNL     1      48.968   4.154  18.798  0.00  0.00    +0.000 HD
ENDBRANCH  16  24
ENDBRANCH  15  20
ENDBRANCH   1  15
TORSDOF 6
ENDMDL
MODEL 4
REMARK VINA RESULT:    -6.849      4.518      6.928
REMARK INTER + INTRA:          -9.895
REMARK INTER:                  -9.845
REMARK INTRA:                  -0.050
REMARK UNBOUND:                -0.643
REMARK  Name = 
REMARK  6 active torsions:
REMARK  status: ('A' for Active; 'I' for Inactive)
REMARK    1  A    between atoms: C_2  and  C_4
REMARK    2  A    between atoms: N_8  and  C_9
REMARK    3  A    between atoms: C_9  and  C_10
REMARK    4  A    between atoms: C_10  and  C_11
REMARK    5  A    between atoms: C_15  and  O_16
REMARK    6  A    between atoms: O_16  and  C_17
REMARK                            x       y       z     vdW  Elec       q    Type
REMARK                         _______ _______ _______ _____ _____    ______ ____
ROOT
ATOM      1  C   UNL     1      44.138   4.378  11.545  0.00  0.00    +0.000 C 
ATOM      2  C   UNL     1      43.075   5.470  11.599  0.00  0.00    +0.000 C 
ATOM      3  C   UNL     1      42.666   4.042  11.767  0.00  0.00    +0.000 C 
ENDROOT
BRANCH   1   4
ATOM      4  C   UNL     1      44.777   4.050  10.197  0.00  0.00    +0.000 A 
ATOM      5  C   UNL     1      45.307   5.058   9.377  0.00  0.00    +0.000 A 
ATOM      6  C   UNL     1      46.060   4.746   8.242  0.00  0.00    +0.000 A 
ATOM      7  C   UNL     1      46.298   3.416   7.898  0.00  0.00    +0.000 A 
ATOM      8  C   UNL     1      45.773   2.397   8.686  0.00  0.00    +0.000 A 
ATOM      9  C   UNL     1      44.980   2.719   9.789  0.00  0.00    +0.000 A 
BRANCH   8  10
ATOM     10  O   UNL     1      45.927   1.067   8.444  0.00  0.00    +0.000 OA
BRANCH  10  11
ATOM     11  C   UNL     1      46.804   0.687   7.389  0.00  0.00    +0.000 C 
ATOM     12  F   UNL     1      46.472   1.180   6.178  0.00  0.00    +0.000 F 
ATOM     13  F   UNL     1      48.052   1.114   7.689  0.00  0.00    +0.000 F 
ATOM     14  F   UNL     1      46.832  -0.660   7.312  0.00  0.00    +0.000 F 
ENDBRANCH  10  11
ENDBRANCH   8  10
ENDBRANCH   1   4
BRANCH   1  15
ATOM     15  C   UNL     1      45.105   4.337  12.742  0.00  0.00    +0.000 C 
BRANCH  15  20
ATOM     16  C   UNL     1      48.478   7.319  13.203  0.00  0.00    +0.000 C 
ATOM     17  C   UNL     1      47.481   8.215  13.114  0.00  0.00    +0.000 C 
ATOM     18  C   UNL     1      46.084   7.985  12.859  0.00  0.00    +0.000 C 
ATOM     19  C   UNL     1      45.482   6.797  12.750  0.00  0.00    +0.000 C 
ATOM     20  N   UNL     1      45.992   5.522  12.895  0.00  0.00    +0.000 N 
ATOM     21  C   UNL     1      47.352   5.261  13.021  0.00  0.00    +0.000 C 
ATOM     22  N   UNL     1      48.443   5.944  13.133  0.00  0.00    +0.000 NA
BRANCH  16  24
ATOM     23  N   UNL     1      50.570   7.426  14.411  0.00  0.00    +0.000 N 
ATOM     24  C   UNL     1      49.854   7.948  13.372  0.00  0.00    +0.000 C 
ATOM     25  O   UNL     1      50.321   8.822  12.651  0.00  0.00    +0.000 OA
ATOM     26  H   UNL     1      51.515   7.737  14.572  0.00  0.00    +0.000 HD
ATOM     27  H   UNL     1      50.158   6.677  14.954  0.00  0.00    +0.000 HD
ENDBRANCH  16  24
ENDBRANCH  15  20
ENDBRANCH   1  15
TORSDOF 6
ENDMDL
MODEL 5
REMARK VINA RESULT:    -6.818      4.724      7.027
REMARK INTER + INTRA:          -9.853
REMARK INTER:                  -9.701
REMARK INTRA:                  -0.152
REMARK UNBOUND:                -0.643
REMARK  Name = 
REMARK  6 active torsions:
REMARK  status: ('A' for Active; 'I' for Inactive)
REMARK    1  A    between atoms: C_2  and  C_4
REMARK    2  A    between atoms: N_8  and  C_9
REMARK    3  A    between atoms: C_9  and  C_10
REMARK    4  A    between atoms: C_10  and  C_11
REMARK    5  A    between atoms: C_15  and  O_16
REMARK    6  A    between atoms: O_16  and  C_17
REMARK                            x       y       z     vdW  Elec       q    Type
REMARK                         _______ _______ _______ _____ _____    ______ ____
ROOT
ATOM      1  C   UNL     1      43.839   5.408  11.683  0.00  0.00    +0.000 C 
ATOM      2  C   UNL     1      43.146   6.642  11.116  0.00  0.00    +0.000 C 
ATOM      3  C   UNL     1      42.328   5.590  11.794  0.00  0.00    +0.000 C 
ENDROOT
BRANCH   1   4
ATOM      4  C   UNL     1      44.391   4.370  10.707  0.00  0.00    +0.000 A 
ATOM      5  C   UNL     1      44.078   3.008  10.839  0.00  0.00    +0.000 A 
ATOM      6  C   UNL     1      44.419   2.088   9.844  0.00  0.00    +0.000 A 
ATOM      7  C   UNL     1      45.084   2.510   8.693  0.00  0.00    +0.000 A 
ATOM      8  C   UNL     1      45.416   3.851   8.543  0.00  0.00    +0.000 A 
ATOM      9  C   UNL     1      45.117   4.753   9.565  0.00  0.00    +0.000 A 
BRANCH   8  10
ATOM     10  O   UNL     1      46.075   4.375   7.474  0.00  0.00    +0.000 OA
BRANCH  10  11
ATOM     11  C   UNL     1      46.718   3.466   6.586  0.00  0.00    +0.000 C 
ATOM     12  F   UNL     1      45.971   2.399   6.239  0.00  0.00    +0.000 F 
ATOM     13  F   UNL     1      47.056   4.129   5.457  0.00  0.00    +0.000 F 
ATOM     14  F   UNL     1      47.855   3.025   7.166  0.00  0.00    +0.000 F 
ENDBRANCH  10  11
ENDBRANCH   8  10
ENDBRANCH   1   4
BRANCH   1  15
ATOM     15  C   UNL     1      44.717   5.654  12.923  0.00  0.00    +0.000 C 
BRANCH  15  20
ATOM     16  C   UNL     1      48.461   8.112  12.266  0.00  0.00    +0.000 C 
ATOM     17  C   UNL     1      47.624   9.142  12.470  0.00  0.00    +0.000 C 
ATOM     18  C   UNL     1      46.198   9.121  12.662  0.00  0.00    +0.000 C 
ATOM     19  C   UNL     1      45.428   8.034  12.767  0.00  0.00    +0.000 C 
ATOM     20  N   UNL     1      45.769   6.696  12.772  0.00  0.00    +0.000 N 
ATOM     21  C   UNL     1      47.050   6.241  12.479  0.00  0.00    +0.000 C 
ATOM     22  N   UNL     1      48.209   6.758  12.237  0.00  0.00    +0.000 NA
BRANCH  16  24
ATOM     23  N   UNL     1      50.827   7.736  12.595  0.00  0.00    +0.000 N 
ATOM     24  C   UNL     1      49.897   8.534  11.991  0.00  0.00    +0.000 C 
ATOM     25  O   UNL     1      50.230   9.475  11.280  0.00  0.00    +0.000 OA
ATOM     26  H   UNL     1      51.807   7.899  12.429  0.00  0.00    +0.000 HD
ATOM     27  H   UNL     1      50.504   6.944  13.138  0.00  0.00    +0.000 HD
ENDBRANCH  16  24
ENDBRANCH  15  20
ENDBRANCH   1  15
TORSDOF 6
ENDMDL
MODEL 6
REMARK VINA RESULT:    -6.688      2.222      3.968
REMARK INTER + INTRA:          -9.678
REMARK INTER:                  -8.865
REMARK INTRA:                  -0.813
REMARK UNBOUND:                -0.643
REMARK  Name = 
REMARK  6 active torsions:
REMARK  status: ('A' for Active; 'I' for Inactive)
REMARK    1  A    between atoms: C_2  and  C_4
REMARK    2  A    between atoms: N_8  and  C_9
REMARK    3  A    between atoms: C_9  and  C_10
REMARK    4  A    between atoms: C_10  and  C_11
REMARK    5  A    between atoms: C_15  and  O_16
REMARK    6  A    between atoms: O_16  and  C_17
REMARK                            x       y       z     vdW  Elec       q    Type
REMARK                         _______ _______ _______ _____ _____    ______ ____
ROOT
ATOM      1  C   UNL     1      47.791   7.797  13.019  0.00  0.00    +0.000 C 
ATOM      2  C   UNL     1      48.428   8.929  12.222  0.00  0.00    +0.000 C 
ATOM      3  C   UNL     1      48.713   7.512  11.837  0.00  0.00    +0.000 C 
ENDROOT
BRANCH   1   4
ATOM      4  C   UNL     1      48.299   7.528  14.436  0.00  0.00    +0.000 A 
ATOM      5  C   UNL     1      48.402   8.560  15.381  0.00  0.00    +0.000 A 
ATOM      6  C   UNL     1      48.678   8.287  16.723  0.00  0.00    +0.000 A 
ATOM      7  C   UNL     1      48.863   6.973  17.151  0.00  0.00    +0.000 A 
ATOM      8  C   UNL     1      48.778   5.933  16.233  0.00  0.00    +0.000 A 
ATOM      9  C   UNL     1      48.552   6.220  14.885  0.00  0.00    +0.000 A 
BRANCH   8  10
ATOM     10  O   UNL     1      48.952   4.616  16.530  0.00  0.00    +0.000 OA
BRANCH  10  11
ATOM     11  C   UNL     1      47.801   3.779  16.512  0.00  0.00    +0.000 C 
ATOM     12  F   UNL     1      47.531   3.222  15.314  0.00  0.00    +0.000 F 
ATOM     13  F   UNL     1      47.976   2.783  17.409  0.00  0.00    +0.000 F 
ATOM     14  F   UNL     1      46.730   4.506  16.900  0.00  0.00    +0.000 F 
ENDBRANCH  10  11
ENDBRANCH   8  10
ENDBRANCH   1   4
BRANCH   1  15
ATOM     15  C   UNL     1      46.271   7.634  12.840  0.00  0.00    +0.000 C 
BRANCH  15  20
ATOM     16  C   UNL     1      45.009   4.011  10.439  0.00  0.00    +0.000 C 
ATOM     17  C   UNL     1      44.946   3.433  11.650  0.00  0.00    +0.000 C 
ATOM     18  C   UNL     1      45.312   3.980  12.929  0.00  0.00    +0.000 C 
ATOM     19  C   UNL     1      45.706   5.233  13.173  0.00  0.00    +0.000 C 
ATOM     20  N   UNL     1      45.821   6.314  12.321  0.00  0.00    +0.000 N 
ATOM     21  C   UNL     1      45.690   6.207  10.941  0.00  0.00    +0.000 C 
ATOM     22  N   UNL     1      45.380   5.290  10.086  0.00  0.00    +0.000 NA
BRANCH  16  24
ATOM     23  N   UNL     1      44.327   3.730   8.136  0.00  0.00    +0.000 N 
ATOM     24  C   UNL     1      44.641   3.078   9.294  0.00  0.00    +0.000 C 
ATOM     25  O   UNL     1      44.640   1.854   9.357  0.00  0.00    +0.000 OA
ATOM     26  H   UNL     1      44.123   3.199   7.304  0.00  0.00    +0.000 HD
ATOM     27  H   UNL     1      44.381   4.741   8.121  0.00  0.00    +0.000 HD
ENDBRANCH  16  24
ENDBRANCH  15  20
ENDBRANCH   1  15
TORSDOF 6
ENDMDL
MODEL 7
REMARK VINA RESULT:    -6.276      4.151      6.071
REMARK INTER + INTRA:          -9.121
REMARK INTER:                  -8.000
REMARK INTRA:                  -1.121
REMARK UNBOUND:                -0.643
REMARK  Name = 
REMARK  6 active torsions:
REMARK  status: ('A' for Active; 'I' for Inactive)
REMARK    1  A    between atoms: C_2  and  C_4
REMARK    2  A    between atoms: N_8  and  C_9
REMARK    3  A    between atoms: C_9  and  C_10
REMARK    4  A    between atoms: C_10  and  C_11
REMARK    5  A    between atoms: C_15  and  O_16
REMARK    6  A    between atoms: O_16  and  C_17
REMARK                            x       y       z     vdW  Elec       q    Type
REMARK                         _______ _______ _______ _____ _____    ______ ____
ROOT
ATOM      1  C   UNL     1      49.667   8.026  14.806  0.00  0.00    +0.000 C 
ATOM      2  C   UNL     1      49.430   9.532  14.784  0.00  0.00    +0.000 C 
ATOM      3  C   UNL     1      50.832   9.012  14.809  0.00  0.00    +0.000 C 
ENDROOT
BRANCH   1   4
ATOM      4  C   UNL     1      49.345   7.257  16.087  0.00  0.00    +0.000 A 
ATOM      5  C   UNL     1      48.627   7.855  17.134  0.00  0.00    +0.000 A 
ATOM      6  C   UNL     1      48.165   7.101  18.216  0.00  0.00    +0.000 A 
ATOM      7  C   UNL     1      48.415   5.730  18.278  0.00  0.00    +0.000 A 
ATOM      8  C   UNL     1      49.134   5.116  17.260  0.00  0.00    +0.000 A 
ATOM      9  C   UNL     1      49.635   5.886  16.208  0.00  0.00    +0.000 A 
BRANCH   8  10
ATOM     10  O   UNL     1      49.450   3.793  17.218  0.00  0.00    +0.000 OA
BRANCH  10  11
ATOM     11  C   UNL     1      48.435   2.887  16.800  0.00  0.00    +0.000 C 
ATOM     12  F   UNL     1      47.594   3.378  15.866  0.00  0.00    +0.000 F 
ATOM     13  F   UNL     1      49.024   1.779  16.295  0.00  0.00    +0.000 F 
ATOM     14  F   UNL     1      47.711   2.518  17.879  0.00  0.00    +0.000 F 
ENDBRANCH  10  11
ENDBRANCH   8  10
ENDBRANCH   1   4
BRANCH   1  15
ATOM     15  C   UNL     1      49.318   7.282  13.505  0.00  0.00    +0.000 C 
BRANCH  15  20
ATOM     16  C   UNL     1      45.115   5.651  13.093  0.00  0.00    +0.000 C 
ATOM     17  C   UNL     1      44.827   6.923  12.776  0.00  0.00    +0.000 C 
ATOM     18  C   UNL     1      45.693   8.072  12.785  0.00  0.00    +0.000 C 
ATOM     19  C   UNL     1      47.007   8.074  13.029  0.00  0.00    +0.000 C 
ATOM     20  N   UNL     1      47.869   7.025  13.278  0.00  0.00    +0.000 N 
ATOM     21  C   UNL     1      47.434   5.722  13.493  0.00  0.00    +0.000 C 
ATOM     22  N   UNL     1      46.314   5.078  13.458  0.00  0.00    +0.000 NA
BRANCH  16  24
ATOM     23  N   UNL     1      42.712   5.385  13.082  0.00  0.00    +0.000 N 
ATOM     24  C   UNL     1      43.907   4.725  13.074  0.00  0.00    +0.000 C 
ATOM     25  O   UNL     1      43.960   3.501  13.030  0.00  0.00    +0.000 OA
ATOM     26  H   UNL     1      41.853   4.862  13.015  0.00  0.00    +0.000 HD
ATOM     27  H   UNL     1      42.719   6.398  13.077  0.00  0.00    +0.000 HD
ENDBRANCH  16  24
ENDBRANCH  15  20
ENDBRANCH   1  15
TORSDOF 6
ENDMDL
MODEL 8
REMARK VINA RESULT:    -6.193      3.909      5.561
REMARK INTER + INTRA:          -9.009
REMARK INTER:                  -8.192
REMARK INTRA:                  -0.817
REMARK UNBOUND:                -0.643
REMARK  Name = 
REMARK  6 active torsions:
REMARK  status: ('A' for Active; 'I' for Inactive)
REMARK    1  A    between atoms: C_2  and  C_4
REMARK    2  A    between atoms: N_8  and  C_9
REMARK    3  A    between atoms: C_9  and  C_10
REMARK    4  A    between atoms: C_10  and  C_11
REMARK    5  A    between atoms: C_15  and  O_16
REMARK    6  A    between atoms: O_16  and  C_17
REMARK                            x       y       z     vdW  Elec       q    Type
REMARK                         _______ _______ _______ _____ _____    ______ ____
ROOT
ATOM      1  C   UNL     1      49.068   7.789  14.380  0.00  0.00    +0.000 C 
ATOM      2  C   UNL     1      48.076   8.877  14.777  0.00  0.00    +0.000 C 
ATOM      3  C   UNL     1      49.459   9.264  14.362  0.00  0.00    +0.000 C 
ENDROOT
BRANCH   1   4
ATOM      4  C   UNL     1      49.635   6.886  15.475  0.00  0.00    +0.000 A 
ATOM      5  C   UNL     1      51.000   6.907  15.803  0.00  0.00    +0.000 A 
ATOM      6  C   UNL     1      51.484   6.231  16.925  0.00  0.00    +0.000 A 
ATOM      7  C   UNL     1      50.614   5.514  17.746  0.00  0.00    +0.000 A 
ATOM      8  C   UNL     1      49.260   5.467  17.438  0.00  0.00    +0.000 A 
ATOM      9  C   UNL     1      48.793   6.104  16.286  0.00  0.00    +0.000 A 
BRANCH   8  10
ATOM     10  O   UNL     1      48.321   4.791  18.154  0.00  0.00    +0.000 OA
BRANCH  10  11
ATOM     11  C   UNL     1      48.097   3.425  17.822  0.00  0.00    +0.000 C 
ATOM     12  F   UNL     1      48.904   2.944  16.855  0.00  0.00    +0.000 F 
ATOM     13  F   UNL     1      48.277   2.675  18.933  0.00  0.00    +0.000 F 
ATOM     14  F   UNL     1      46.815   3.280  17.424  0.00  0.00    +0.000 F 
ENDBRANCH  10  11
ENDBRANCH   8  10
ENDBRANCH   1   4
BRANCH   1  15
ATOM     15  C   UNL     1      48.770   7.075  13.050  0.00  0.00    +0.000 C 
BRANCH  15  20
ATOM     16  C   UNL     1      44.481   6.079  12.000  0.00  0.00    +0.000 C 
ATOM     17  C   UNL     1      44.688   5.047  12.834  0.00  0.00    +0.000 C 
ATOM     18  C   UNL     1      45.902   4.656  13.500  0.00  0.00    +0.000 C 
ATOM     19  C   UNL     1      47.062   5.319  13.488  0.00  0.00    +0.000 C 
ATOM     20  N   UNL     1      47.394   6.526  12.906  0.00  0.00    +0.000 N 
ATOM     21  C   UNL     1      46.547   7.205  12.038  0.00  0.00    +0.000 C 
ATOM     22  N   UNL     1      45.341   7.077  11.594  0.00  0.00    +0.000 NA
BRANCH  16  24
ATOM     23  N   UNL     1      42.645   7.368  11.097  0.00  0.00    +0.000 N 
ATOM     24  C   UNL     1      43.084   6.110  11.397  0.00  0.00    +0.000 C 
ATOM     25  O   UNL     1      42.397   5.122  11.162  0.00  0.00    +0.000 OA
ATOM     26  H   UNL     1      41.754   7.491  10.642  0.00  0.00    +0.000 HD
ATOM     27  H   UNL     1      43.265   8.150  11.270  0.00  0.00    +0.000 HD
ENDBRANCH  16  24
ENDBRANCH  15  20
ENDBRANCH   1  15
TORSDOF 6
ENDMDL
MODEL 9
REMARK VINA RESULT:    -6.080      4.784      7.636
REMARK INTER + INTRA:          -8.856
REMARK INTER:                  -8.131
REMARK INTRA:                  -0.725
REMARK UNBOUND:                -0.643
REMARK  Name = 
REMARK  6 active torsions:
REMARK  status: ('A' for Active; 'I' for Inactive)
REMARK    1  A    between atoms: C_2  and  C_4
REMARK    2  A    between atoms: N_8  and  C_9
REMARK    3  A    between atoms: C_9  and  C_10
REMARK    4  A    between atoms: C_10  and  C_11
REMARK    5  A    between atoms: C_15  and  O_16
REMARK    6  A    between atoms: O_16  and  C_17
REMARK                            x       y       z     vdW  Elec       q    Type
REMARK                         _______ _______ _______ _____ _____    ______ ____
ROOT
ATOM      1  C   UNL     1      48.152   7.659  13.013  0.00  0.00    +0.000 C 
ATOM      2  C   UNL     1      49.322   6.850  12.464  0.00  0.00    +0.000 C 
ATOM      3  C   UNL     1      49.113   8.251  11.986  0.00  0.00    +0.000 C 
ENDROOT
BRANCH   1   4
ATOM      4  C   UNL     1      46.738   7.284  12.573  0.00  0.00    +0.000 A 
ATOM      5  C   UNL     1      45.835   8.256  12.116  0.00  0.00    +0.000 A 
ATOM      6  C   UNL     1      44.617   7.895  11.534  0.00  0.00    +0.000 A 
ATOM      7  C   UNL     1      44.271   6.551  11.400  0.00  0.00    +0.000 A 
ATOM      8  C   UNL     1      45.142   5.568  11.856  0.00  0.00    +0.000 A 
ATOM      9  C   UNL     1      46.334   5.939  12.481  0.00  0.00    +0.000 A 
BRANCH   8  10
ATOM     10  O   UNL     1      44.907   4.229  11.791  0.00  0.00    +0.000 OA
BRANCH  10  11
ATOM     11  C   UNL     1      43.647   3.758  12.255  0.00  0.00    +0.000 C 
ATOM     12  F   UNL     1      42.628   3.937  11.389  0.00  0.00    +0.000 F 
ATOM     13  F   UNL     1      43.748   2.436  12.518  0.00  0.00    +0.000 F 
ATOM     14  F   UNL     1      43.345   4.391  13.410  0.00  0.00    +0.000 F 
ENDBRANCH  10  11
ENDBRANCH   8  10
ENDBRANCH   1   4
BRANCH   1  15
ATOM     15  C   UNL     1      48.275   8.084  14.487  0.00  0.00    +0.000 C 
BRANCH  15  20
ATOM     16  C   UNL     1      49.355   4.531  17.077  0.00  0.00    +0.000 C 
ATOM     17  C   UNL     1      50.492   5.220  17.264  0.00  0.00    +0.000 C 
ATOM     18  C   UNL     1      50.909   6.455  16.654  0.00  0.00    +0.000 C 
ATOM     19  C   UNL     1      50.182   7.219  15.833  0.00  0.00    +0.000 C 
ATOM     20  N   UNL     1      48.879   7.075  15.400  0.00  0.00    +0.000 N 
ATOM     21  C   UNL     1      48.123   5.933  15.643  0.00  0.00    +0.000 C 
ATOM     22  N   UNL     1      48.254   4.831  16.304  0.00  0.00    +0.000 NA
BRANCH  16  24
ATOM     23  N   UNL     1      48.548   3.225  18.944  0.00  0.00    +0.000 N 
ATOM     24  C   UNL     1      49.315   3.201  17.815  0.00  0.00    +0.000 C 
ATOM     25  O   UNL     1      49.881   2.177  17.450  0.00  0.00    +0.000 OA
ATOM     26  H   UNL     1      48.412   2.378  19.474  0.00  0.00    +0.000 HD
ATOM     27  H   UNL     1      48.066   4.083  19.183  0.00  0.00    +0.000 HD
ENDBRANCH  16  24
ENDBRANCH  15  20
ENDBRANCH   1  15
TORSDOF 6
ENDMDL
