MODEL 1
REMARK VINA RESULT:    -7.267      0.000      0.000
REMARK INTER + INTRA:         -12.927
REMARK INTER:                 -11.303
REMARK INTRA:                  -1.624
REMARK UNBOUND:                -1.624
REMARK  Name = 
REMARK  10 active torsions:
REMARK  status: ('A' for Active; 'I' for Inactive)
REMARK    1  A    between atoms: C_2  and  C_3
REMARK    2  A    between atoms: C_3  and  C_4
REMARK    3  A    between atoms: C_4  and  N_5
REMARK    4  A    between atoms: C_4  and  C_20
REMARK    5  A    between atoms: N_5  and  C_6
REMARK    6  A    between atoms: C_6  and  C_7
REMARK    7  A    between atoms: C_10  and  C_11
REMARK    8  A    between atoms: C_11  and  N_12
REMARK    9  A    between atoms: N_12  and  C_13
REMARK   10  A    between atoms: N_30  and  O_31
REMARK                            x       y       z     vdW  Elec       q    Type
REMARK                         _______ _______ _______ _____ _____    ______ ____
ROOT
ATOM      1  C   UNL     1      48.381   5.940  16.619  0.00  0.00    +0.000 C 
ENDROOT
BRANCH   1   2
ATOM      2  C   UNL     1      49.647   6.419  17.325  0.00  0.00    +0.000 A 
ATOM      3  C   UNL     1      50.938   6.213  16.861  0.00  0.00    +0.000 A 
ATOM      4  S   UNL     1      52.151   6.756  17.933  0.00  0.00    +0.000 S 
ATOM      5  C   UNL     1      50.996   7.343  19.037  0.00  0.00    +0.000 A 
ATOM      6  N   UNL     1      51.379   7.931  20.202  0.00  0.00    +0.000 NA
ATOM      7  C   UNL     1      50.398   8.327  20.942  0.00  0.00    +0.000 A 
ATOM      8  N   UNL     1      49.070   8.191  20.622  0.00  0.00    +0.000 N 
ATOM      9  C   UNL     1      48.636   7.630  19.437  0.00  0.00    +0.000 A 
ATOM     10  O   UNL     1      47.448   7.594  19.145  0.00  0.00    +0.000 OA
ATOM     11  C   UNL     1      49.704   7.130  18.589  0.00  0.00    +0.000 A 
ATOM     12  H   UNL     1      48.353   8.555  21.231  0.00  0.00    +0.000 HD
ENDBRANCH   1   2
BRANCH   1  13
ATOM     13  N   UNL     1      48.724   5.706  15.179  0.00  0.00    +0.000 NA
ATOM     14  H   UNL     1      49.714   5.947  15.063  0.00  0.00    +0.000 HD
BRANCH  13  15
ATOM     15  C   UNL     1      47.941   6.621  14.342  0.00  0.00    +0.000 C 
BRANCH  15  16
ATOM     16  C   UNL     1      46.853   6.057  13.463  0.00  0.00    +0.000 A 
ATOM     17  C   UNL     1      46.585   6.582  12.195  0.00  0.00    +0.000 A 
ATOM     18  C   UNL     1      45.834   5.842  11.275  0.00  0.00    +0.000 A 
ATOM     19  C   UNL     1      45.340   4.572  11.610  0.00  0.00    +0.000 A 
ATOM     20  C   UNL     1      45.585   4.066  12.890  0.00  0.00    +0.000 A 
ATOM     21  C   UNL     1      46.329   4.801  13.806  0.00  0.00    +0.000 A 
BRANCH  19  22
ATOM     22  C   UNL     1      44.483   3.785  10.657  0.00  0.00    +0.000 C 
BRANCH  22  23
ATOM     23  N   UNL     1      45.086   2.517  10.239  0.00  0.00    +0.000 NA
ATOM     24  H   UNL     1      44.769   1.799  10.886  0.00  0.00    +0.000 HD
BRANCH  23  25
ATOM     25  C   UNL     1      44.652   2.157   8.902  0.00  0.00    +0.000 C 
ATOM     26  C   UNL     1      44.860   3.228   7.834  0.00  0.00    +0.000 C 
ATOM     27  C   UNL     1      46.357   3.196   7.606  0.00  0.00    +0.000 C 
ATOM     28  C   UNL     1      46.717   1.737   7.836  0.00  0.00    +0.000 C 
ATOM     29  N   UNL     1      45.545   1.102   8.456  0.00  0.00    +0.000 NA
ATOM     30  H   UNL     1      45.837   0.540   9.248  0.00  0.00    +0.000 HD
ENDBRANCH  23  25
ENDBRANCH  22  23
ENDBRANCH  19  22
ENDBRANCH  15  16
ENDBRANCH  13  15
ENDBRANCH   1  13
BRANCH   1  31
ATOM     31  C   UNL     1      47.783   4.664  17.266  0.00  0.00    +0.000 C 
BRANCH  31  33
ATOM     32  N   UNL     1      49.303   2.941  18.131  0.00  0.00    +0.000 N 
ATOM     33  C   UNL     1      48.537   3.366  17.072  0.00  0.00    +0.000 C 
ATOM     34  N   UNL     1      48.545   2.788  15.909  0.00  0.00    +0.000 NA
ATOM     35  H   UNL     1      49.647   3.659  18.757  0.00  0.00    +0.000 HD
ATOM     36  H   UNL     1      50.028   2.304  17.810  0.00  0.00    +0.000 HD
BRANCH  34  37
ATOM     37  O   UNL     1      49.421   1.689  15.923  0.00  0.00    +0.000 OA
ATOM     38  H   UNL     1      50.011   1.908  16.666  0.00  0.00    +0.000 HD
ENDBRANCH  34  37
ENDBRANCH  31  33
ENDBRANCH   1  31
TORSDOF 10
ENDMDL
MODEL 2
REMARK VINA RESULT:    -7.249      2.419      3.956
REMARK INTER + INTRA:         -12.899
REMARK INTER:                 -10.898
REMARK INTRA:                  -2.001
REMARK UNBOUND:                -1.624
REMARK  Name = 
REMARK  10 active torsions:
REMARK  status: ('A' for Active; 'I' for Inactive)
REMARK    1  A    between atoms: C_2  and  C_3
REMARK    2  A    between atoms: C_3  and  C_4
REMARK    3  A    between atoms: C_4  and  N_5
REMARK    4  A    between atoms: C_4  and  C_20
REMARK    5  A    between atoms: N_5  and  C_6
REMARK    6  A    between atoms: C_6  and  C_7
REMARK    7  A    between atoms: C_10  and  C_11
REMARK    8  A    between atoms: C_11  and  N_12
REMARK    9  A    between atoms: N_12  and  C_13
REMARK   10  A    between atoms: N_30  and  O_31
REMARK                            x       y       z     vdW  Elec       q    Type
REMARK                         _______ _______ _______ _____ _____    ______ ____
ROOT
ATOM      1  C   UNL     1      48.524   7.421  14.336  0.00  0.00    +0.000 C 
ENDROOT
BRANCH   1   2
ATOM      2  C   UNL     1      48.782   6.797  15.706  0.00  0.00    +0.000 A 
ATOM      3  C   UNL     1      49.579   7.360  16.693  0.00  0.00    +0.000 A 
ATOM      4  S   UNL     1      49.778   6.367  18.068  0.00  0.00    +0.000 S 
ATOM      5  C   UNL     1      48.758   5.167  17.421  0.00  0.00    +0.000 A 
ATOM      6  N   UNL     1      48.508   4.019  18.107  0.00  0.00    +0.000 NA
ATOM      7  C   UNL     1      47.719   3.200  17.497  0.00  0.00    +0.000 A 
ATOM      8  N   UNL     1      47.155   3.425  16.266  0.00  0.00    +0.000 N 
ATOM      9  C   UNL     1      47.354   4.588  15.549  0.00  0.00    +0.000 A 
ATOM     10  O   UNL     1      46.775   4.793  14.490  0.00  0.00    +0.000 OA
ATOM     11  C   UNL     1      48.270   5.524  16.177  0.00  0.00    +0.000 A 
ATOM     12  H   UNL     1      46.517   2.756  15.861  0.00  0.00    +0.000 HD
ENDBRANCH   1   2
BRANCH   1  13
ATOM     13  N   UNL     1      47.188   8.097  14.388  0.00  0.00    +0.000 NA
ATOM     14  H   UNL     1      46.526   7.424  14.789  0.00  0.00    +0.000 HD
BRANCH  13  15
ATOM     15  C   UNL     1      46.746   8.398  13.023  0.00  0.00    +0.000 C 
BRANCH  15  16
ATOM     16  C   UNL     1      45.969   7.355  12.260  0.00  0.00    +0.000 A 
ATOM     17  C   UNL     1      46.551   6.611  11.228  0.00  0.00    +0.000 A 
ATOM     18  C   UNL     1      45.939   5.434  10.783  0.00  0.00    +0.000 A 
ATOM     19  C   UNL     1      44.740   4.987  11.358  0.00  0.00    +0.000 A 
ATOM     20  C   UNL     1      44.147   5.752  12.367  0.00  0.00    +0.000 A 
ATOM     21  C   UNL     1      44.752   6.923  12.809  0.00  0.00    +0.000 A 
BRANCH  19  22
ATOM     22  C   UNL     1      44.038   3.756  10.856  0.00  0.00    +0.000 C 
BRANCH  22  23
ATOM     23  N   UNL     1      44.952   2.709  10.396  0.00  0.00    +0.000 NA
ATOM     24  H   UNL     1      44.905   1.945  11.066  0.00  0.00    +0.000 HD
BRANCH  23  25
ATOM     25  C   UNL     1      44.546   2.206   9.095  0.00  0.00    +0.000 C 
ATOM     26  C   UNL     1      44.558   3.232   7.964  0.00  0.00    +0.000 C 
ATOM     27  C   UNL     1      46.035   3.418   7.688  0.00  0.00    +0.000 C 
ATOM     28  C   UNL     1      46.624   2.048   7.985  0.00  0.00    +0.000 C 
ATOM     29  N   UNL     1      45.582   1.278   8.678  0.00  0.00    +0.000 NA
ATOM     30  H   UNL     1      45.978   0.815   9.489  0.00  0.00    +0.000 HD
ENDBRANCH  23  25
ENDBRANCH  22  23
ENDBRANCH  19  22
ENDBRANCH  15  16
ENDBRANCH  13  15
ENDBRANCH   1  13
BRANCH   1  31
ATOM     31  C   UNL     1      49.637   8.413  13.912  0.00  0.00    +0.000 C 
BRANCH  31  33
ATOM     32  N   UNL     1      51.968   8.084  13.216  0.00  0.00    +0.000 N 
ATOM     33  C   UNL     1      50.642   7.936  12.886  0.00  0.00    +0.000 C 
ATOM     34  N   UNL     1      50.238   7.544  11.716  0.00  0.00    +0.000 NA
ATOM     35  H   UNL     1      52.192   8.831  13.863  0.00  0.00    +0.000 HD
ATOM     36  H   UNL     1      52.543   8.091  12.377  0.00  0.00    +0.000 HD
BRANCH  34  37
ATOM     37  O   UNL     1      51.343   7.291  10.885  0.00  0.00    +0.000 OA
ATOM     38  H   UNL     1      50.978   6.648  10.250  0.00  0.00    +0.000 HD
ENDBRANCH  34  37
ENDBRANCH  31  33
ENDBRANCH   1  31
TORSDOF 10
ENDMDL
MODEL 3
REMARK VINA RESULT:    -7.192      2.227      3.462
REMARK INTER + INTRA:         -12.810
REMARK INTER:                 -12.148
REMARK INTRA:                  -0.662
REMARK UNBOUND:                -1.624
REMARK  Name = 
REMARK  10 active torsions:
REMARK  status: ('A' for Active; 'I' for Inactive)
REMARK    1  A    between atoms: C_2  and  C_3
REMARK    2  A    between atoms: C_3  and  C_4
REMARK    3  A    between atoms: C_4  and  N_5
REMARK    4  A    between atoms: C_4  and  C_20
REMARK    5  A    between atoms: N_5  and  C_6
REMARK    6  A    between atoms: C_6  and  C_7
REMARK    7  A    between atoms: C_10  and  C_11
REMARK    8  A    between atoms: C_11  and  N_12
REMARK    9  A    between atoms: N_12  and  C_13
REMARK   10  A    between atoms: N_30  and  O_31
REMARK                            x       y       z     vdW  Elec       q    Type
REMARK                         _______ _______ _______ _____ _____    ______ ____
ROOT
ATOM      1  C   UNL     1      49.835   5.663  17.639  0.00  0.00    +0.000 C 
ENDROOT
BRANCH   1   2
ATOM      2  C   UNL     1      51.092   4.892  18.035  0.00  0.00    +0.000 A 
ATOM      3  C   UNL     1      52.176   5.437  18.709  0.00  0.00    +0.000 A 
ATOM      4  S   UNL     1      53.485   4.358  18.898  0.00  0.00    +0.000 S 
ATOM      5  C   UNL     1      52.632   3.097  18.137  0.00  0.00    +0.000 A 
ATOM      6  N   UNL     1      53.202   1.874  17.962  0.00  0.00    +0.000 NA
ATOM      7  C   UNL     1      52.442   1.016  17.370  0.00  0.00    +0.000 A 
ATOM      8  N   UNL     1      51.163   1.268  16.939  0.00  0.00    +0.000 N 
ATOM      9  C   UNL     1      50.533   2.482  17.124  0.00  0.00    +0.000 A 
ATOM     10  O   UNL     1      49.365   2.652  16.799  0.00  0.00    +0.000 OA
ATOM     11  C   UNL     1      51.365   3.495  17.749  0.00  0.00    +0.000 A 
ATOM     12  H   UNL     1      50.609   0.540  16.514  0.00  0.00    +0.000 HD
ENDBRANCH   1   2
BRANCH   1  13
ATOM     13  N   UNL     1      49.394   5.157  16.300  0.00  0.00    +0.000 NA
ATOM     14  H   UNL     1      50.217   4.741  15.850  0.00  0.00    +0.000 HD
BRANCH  13  15
ATOM     15  C   UNL     1      48.961   6.291  15.475  0.00  0.00    +0.000 C 
BRANCH  15  16
ATOM     16  C   UNL     1      47.798   6.107  14.534  0.00  0.00    +0.000 A 
ATOM     17  C   UNL     1      47.540   7.009  13.496  0.00  0.00    +0.000 A 
ATOM     18  C   UNL     1      46.693   6.642  12.444  0.00  0.00    +0.000 A 
ATOM     19  C   UNL     1      46.092   5.374  12.416  0.00  0.00    +0.000 A 
ATOM     20  C   UNL     1      46.329   4.489  13.472  0.00  0.00    +0.000 A 
ATOM     21  C   UNL     1      47.168   4.852  14.519  0.00  0.00    +0.000 A 
BRANCH  19  22
ATOM     22  C   UNL     1      45.136   4.982  11.324  0.00  0.00    +0.000 C 
BRANCH  22  23
ATOM     23  N   UNL     1      45.147   3.549  11.024  0.00  0.00    +0.000 NA
ATOM     24  H   UNL     1      44.806   3.060  11.848  0.00  0.00    +0.000 HD
BRANCH  23  25
ATOM     25  C   UNL     1      44.263   3.249   9.912  0.00  0.00    +0.000 C 
ATOM     26  C   UNL     1      44.560   4.001   8.617  0.00  0.00    +0.000 C 
ATOM     27  C   UNL     1      45.812   3.318   8.106  0.00  0.00    +0.000 C 
ATOM     28  C   UNL     1      45.644   1.880   8.572  0.00  0.00    +0.000 C 
ATOM     29  N   UNL     1      44.536   1.873   9.537  0.00  0.00    +0.000 NA
ATOM     30  H   UNL     1      44.797   1.337  10.358  0.00  0.00    +0.000 HD
ENDBRANCH  23  25
ENDBRANCH  22  23
ENDBRANCH  19  22
ENDBRANCH  15  16
ENDBRANCH  13  15
ENDBRANCH   1  13
BRANCH   1  31
ATOM     31  C   UNL     1      48.700   5.532  18.688  0.00  0.00    +0.000 C 
BRANCH  31  33
ATOM     32  N   UNL     1      48.193   3.291  19.552  0.00  0.00    +0.000 N 
ATOM     33  C   UNL     1      47.859   4.275  18.651  0.00  0.00    +0.000 C 
ATOM     34  N   UNL     1      46.972   4.115  17.716  0.00  0.00    +0.000 NA
ATOM     35  H   UNL     1      49.157   3.269  19.859  0.00  0.00    +0.000 HD
ATOM     36  H   UNL     1      47.850   2.388  19.232  0.00  0.00    +0.000 HD
BRANCH  34  37
ATOM     37  O   UNL     1      46.422   2.823  17.790  0.00  0.00    +0.000 OA
ATOM     38  H   UNL     1      45.587   2.928  17.299  0.00  0.00    +0.000 HD
ENDBRANCH  34  37
ENDBRANCH  31  33
ENDBRANCH   1  31
TORSDOF 10
ENDMDL
MODEL 4
REMARK VINA RESULT:    -7.050      2.077      2.526
REMARK INTER + INTRA:         -12.590
REMARK INTER:                 -10.789
REMARK INTRA:                  -1.800
REMARK UNBOUND:                -1.624
REMARK  Name = 
REMARK  10 active torsions:
REMARK  status: ('A' for Active; 'I' for Inactive)
REMARK    1  A    between atoms: C_2  and  C_3
REMARK    2  A    between atoms: C_3  and  C_4
REMARK    3  A    between atoms: C_4  and  N_5
REMARK    4  A    between atoms: C_4  and  C_20
REMARK    5  A    between atoms: N_5  and  C_6
REMARK    6  A    between atoms: C_6  and  C_7
REMARK    7  A    between atoms: C_10  and  C_11
REMARK    8  A    between atoms: C_11  and  N_12
REMARK    9  A    between atoms: N_12  and  C_13
REMARK   10  A    between atoms: N_30  and  O_31
REMARK                            x       y       z     vdW  Elec       q    Type
REMARK                         _______ _______ _______ _____ _____    ______ ____
ROOT
ATOM      1  C   UNL     1      48.719   6.734  17.029  0.00  0.00    +0.000 C 
ENDROOT
BRANCH   1   2
ATOM      2  C   UNL     1      49.970   7.606  17.117  0.00  0.00    +0.000 A 
ATOM      3  C   UNL     1      49.965   8.987  17.259  0.00  0.00    +0.000 A 
ATOM      4  S   UNL     1      51.518   9.693  17.200  0.00  0.00    +0.000 S 
ATOM      5  C   UNL     1      52.267   8.173  17.039  0.00  0.00    +0.000 A 
ATOM      6  N   UNL     1      53.619   8.069  16.925  0.00  0.00    +0.000 NA
ATOM      7  C   UNL     1      54.048   6.857  16.810  0.00  0.00    +0.000 A 
ATOM      8  N   UNL     1      53.250   5.740  16.800  0.00  0.00    +0.000 N 
ATOM      9  C   UNL     1      51.878   5.795  16.945  0.00  0.00    +0.000 A 
ATOM     10  O   UNL     1      51.201   4.777  17.011  0.00  0.00    +0.000 OA
ATOM     11  C   UNL     1      51.343   7.143  17.036  0.00  0.00    +0.000 A 
ATOM     12  H   UNL     1      53.655   4.818  16.742  0.00  0.00    +0.000 HD
ENDBRANCH   1   2
BRANCH   1  13
ATOM     13  N   UNL     1      48.875   5.833  15.843  0.00  0.00    +0.000 NA
ATOM     14  H   UNL     1      49.872   5.602  15.769  0.00  0.00    +0.000 HD
BRANCH  13  15
ATOM     15  C   UNL     1      48.497   6.564  14.629  0.00  0.00    +0.000 C 
BRANCH  15  16
ATOM     16  C   UNL     1      47.311   6.088  13.829  0.00  0.00    +0.000 A 
ATOM     17  C   UNL     1      46.923   6.716  12.641  0.00  0.00    +0.000 A 
ATOM     18  C   UNL     1      46.063   6.063  11.751  0.00  0.00    +0.000 A 
ATOM     19  C   UNL     1      45.578   4.777  12.037  0.00  0.00    +0.000 A 
ATOM     20  C   UNL     1      45.944   4.167  13.241  0.00  0.00    +0.000 A 
ATOM     21  C   UNL     1      46.796   4.817  14.127  0.00  0.00    +0.000 A 
BRANCH  19  22
ATOM     22  C   UNL     1      44.609   4.081  11.122  0.00  0.00    +0.000 C 
BRANCH  22  23
ATOM     23  N   UNL     1      45.099   2.797  10.618  0.00  0.00    +0.000 NA
ATOM     24  H   UNL     1      44.854   2.085  11.303  0.00  0.00    +0.000 HD
BRANCH  23  25
ATOM     25  C   UNL     1      44.464   2.462   9.357  0.00  0.00    +0.000 C 
ATOM     26  C   UNL     1      44.677   3.467   8.228  0.00  0.00    +0.000 C 
ATOM     27  C   UNL     1      46.119   3.230   7.829  0.00  0.00    +0.000 C 
ATOM     28  C   UNL     1      46.313   1.743   8.077  0.00  0.00    +0.000 C 
ATOM     29  N   UNL     1      45.153   1.286   8.855  0.00  0.00    +0.000 NA
ATOM     30  H   UNL     1      45.463   0.711   9.631  0.00  0.00    +0.000 HD
ENDBRANCH  23  25
ENDBRANCH  22  23
ENDBRANCH  19  22
ENDBRANCH  15  16
ENDBRANCH  13  15
ENDBRANCH   1  13
BRANCH   1  31
ATOM     31  C   UNL     1      48.469   5.918  18.323  0.00  0.00    +0.000 C 
BRANCH  31  33
ATOM     32  N   UNL     1      48.859   3.494  18.355  0.00  0.00    +0.000 N 
ATOM     33  C   UNL     1      47.948   4.507  18.166  0.00  0.00    +0.000 C 
ATOM     34  N   UNL     1      46.737   4.306  17.740  0.00  0.00    +0.000 NA
ATOM     35  H   UNL     1      49.829   3.719  18.169  0.00  0.00    +0.000 HD
ATOM     36  H   UNL     1      48.546   2.645  17.891  0.00  0.00    +0.000 HD
BRANCH  34  37
ATOM     37  O   UNL     1      46.522   2.932  17.531  0.00  0.00    +0.000 OA
ATOM     38  H   UNL     1      47.294   2.684  16.993  0.00  0.00    +0.000 HD
ENDBRANCH  34  37
ENDBRANCH  31  33
ENDBRANCH   1  31
TORSDOF 10
ENDMDL
MODEL 5
REMARK VINA RESULT:    -7.003      1.569      2.096
REMARK INTER + INTRA:         -12.517
REMARK INTER:                 -10.930
REMARK INTRA:                  -1.586
REMARK UNBOUND:                -1.624
REMARK  Name = 
REMARK  10 active torsions:
REMARK  status: ('A' for Active; 'I' for Inactive)
REMARK    1  A    between atoms: C_2  and  C_3
REMARK    2  A    between atoms: C_3  and  C_4
REMARK    3  A    between atoms: C_4  and  N_5
REMARK    4  A    between atoms: C_4  and  C_20
REMARK    5  A    between atoms: N_5  and  C_6
REMARK    6  A    between atoms: C_6  and  C_7
REMARK    7  A    between atoms: C_10  and  C_11
REMARK    8  A    between atoms: C_11  and  N_12
REMARK    9  A    between atoms: N_12  and  C_13
REMARK   10  A    between atoms: N_30  and  O_31
REMARK                            x       y       z     vdW  Elec       q    Type
REMARK                         _______ _______ _______ _____ _____    ______ ____
ROOT
ATOM      1  C   UNL     1      48.194   5.554  17.448  0.00  0.00    +0.000 C 
ENDROOT
BRANCH   1   2
ATOM      2  C   UNL     1      48.522   6.777  18.301  0.00  0.00    +0.000 A 
ATOM      3  C   UNL     1      47.579   7.609  18.886  0.00  0.00    +0.000 A 
ATOM      4  S   UNL     1      48.250   8.967  19.675  0.00  0.00    +0.000 S 
ATOM      5  C   UNL     1      49.836   8.464  19.315  0.00  0.00    +0.000 A 
ATOM      6  N   UNL     1      50.909   9.204  19.705  0.00  0.00    +0.000 NA
ATOM      7  C   UNL     1      52.049   8.705  19.364  0.00  0.00    +0.000 A 
ATOM      8  N   UNL     1      52.214   7.532  18.670  0.00  0.00    +0.000 N 
ATOM      9  C   UNL     1      51.158   6.733  18.282  0.00  0.00    +0.000 A 
ATOM     10  O   UNL     1      51.341   5.653  17.733  0.00  0.00    +0.000 OA
ATOM     11  C   UNL     1      49.850   7.276  18.607  0.00  0.00    +0.000 A 
ATOM     12  H   UNL     1      53.137   7.180  18.466  0.00  0.00    +0.000 HD
ENDBRANCH   1   2
BRANCH   1  13
ATOM     13  N   UNL     1      49.043   5.618  16.215  0.00  0.00    +0.000 NA
ATOM     14  H   UNL     1      49.918   6.086  16.476  0.00  0.00    +0.000 HD
BRANCH  13  15
ATOM     15  C   UNL     1      48.373   6.452  15.211  0.00  0.00    +0.000 C 
BRANCH  15  16
ATOM     16  C   UNL     1      47.652   5.783  14.069  0.00  0.00    +0.000 A 
ATOM     17  C   UNL     1      46.995   4.558  14.228  0.00  0.00    +0.000 A 
ATOM     18  C   UNL     1      46.057   4.137  13.279  0.00  0.00    +0.000 A 
ATOM     19  C   UNL     1      45.767   4.931  12.158  0.00  0.00    +0.000 A 
ATOM     20  C   UNL     1      46.450   6.139  11.988  0.00  0.00    +0.000 A 
ATOM     21  C   UNL     1      47.384   6.557  12.929  0.00  0.00    +0.000 A 
BRANCH  19  22
ATOM     22  C   UNL     1      44.805   4.471  11.098  0.00  0.00    +0.000 C 
BRANCH  22  23
ATOM     23  N   UNL     1      44.961   3.060  10.739  0.00  0.00    +0.000 NA
ATOM     24  H   UNL     1      44.510   2.507  11.464  0.00  0.00    +0.000 HD
BRANCH  23  25
ATOM     25  C   UNL     1      44.311   2.776   9.472  0.00  0.00    +0.000 C 
ATOM     26  C   UNL     1      44.757   3.643   8.298  0.00  0.00    +0.000 C 
ATOM     27  C   UNL     1      46.134   3.100   7.976  0.00  0.00    +0.000 C 
ATOM     28  C   UNL     1      46.018   1.623   8.318  0.00  0.00    +0.000 C 
ATOM     29  N   UNL     1      44.766   1.457   9.070  0.00  0.00    +0.000 NA
ATOM     30  H   UNL     1      44.930   0.884   9.890  0.00  0.00    +0.000 HD
ENDBRANCH  23  25
ENDBRANCH  22  23
ENDBRANCH  19  22
ENDBRANCH  15  16
ENDBRANCH  13  15
ENDBRANCH   1  13
BRANCH   1  31
ATOM     31  C   UNL     1      48.412   4.220  18.208  0.00  0.00    +0.000 C 
BRANCH  31  33
ATOM     32  N   UNL     1      50.497   2.949  17.950  0.00  0.00    +0.000 N 
ATOM     33  C   UNL     1      49.209   3.141  17.508  0.00  0.00    +0.000 C 
ATOM     34  N   UNL     1      48.718   2.548  16.462  0.00  0.00    +0.000 NA
ATOM     35  H   UNL     1      50.953   3.748  18.372  0.00  0.00    +0.000 HD
ATOM     36  H   UNL     1      51.055   2.500  17.228  0.00  0.00    +0.000 HD
BRANCH  34  37
ATOM     37  O   UNL     1      49.682   1.698  15.893  0.00  0.00    +0.000 OA
ATOM     38  H   UNL     1      49.131   1.013  15.475  0.00  0.00    +0.000 HD
ENDBRANCH  34  37
ENDBRANCH  31  33
ENDBRANCH   1  31
TORSDOF 10
ENDMDL
MODEL 6
REMARK VINA RESULT:    -6.647      2.375      3.767
REMARK INTER + INTRA:         -11.962
REMARK INTER:                 -10.272
REMARK INTRA:                  -1.690
REMARK UNBOUND:                -1.624
REMARK  Name = 
REMARK  10 active torsions:
REMARK  status: ('A' for Active; 'I' for Inactive)
REMARK    1  A    between atoms: C_2  and  C_3
REMARK    2  A    between atoms: C_3  and  C_4
REMARK    3  A    between atoms: C_4  and  N_5
REMARK    4  A    between atoms: C_4  and  C_20
REMARK    5  A    between atoms: N_5  and  C_6
REMARK    6  A    between atoms: C_6  and  C_7
REMARK    7  A    between atoms: C_10  and  C_11
REMARK    8  A    between atoms: C_11  and  N_12
REMARK    9  A    between atoms: N_12  and  C_13
REMARK   10  A    between atoms: N_30  and  O_31
REMARK                            x       y       z     vdW  Elec       q    Type
REMARK                         _______ _______ _______ _____ _____    ______ ____
ROOT
ATOM      1  C   UNL     1      49.372   7.601  15.820  0.00  0.00    +0.000 C 
ENDROOT
BRANCH   1   2
ATOM      2  C   UNL     1      49.181   7.373  17.318  0.00  0.00    +0.000 A 
ATOM      3  C   UNL     1      49.224   8.370  18.282  0.00  0.00    +0.000 A 
ATOM      4  S   UNL     1      49.101   7.788  19.883  0.00  0.00    +0.000 S 
ATOM      5  C   UNL     1      48.925   6.182  19.347  0.00  0.00    +0.000 A 
ATOM      6  N   UNL     1      48.784   5.161  20.236  0.00  0.00    +0.000 NA
ATOM      7  C   UNL     1      48.661   3.998  19.690  0.00  0.00    +0.000 A 
ATOM      8  N   UNL     1      48.665   3.763  18.337  0.00  0.00    +0.000 N 
ATOM      9  C   UNL     1      48.773   4.770  17.399  0.00  0.00    +0.000 A 
ATOM     10  O   UNL     1      48.694   4.537  16.200  0.00  0.00    +0.000 OA
ATOM     11  C   UNL     1      48.956   6.094  17.967  0.00  0.00    +0.000 A 
ATOM     12  H   UNL     1      48.528   2.831  17.976  0.00  0.00    +0.000 HD
ENDBRANCH   1   2
BRANCH   1  13
ATOM     13  N   UNL     1      48.032   7.468  15.165  0.00  0.00    +0.000 NA
ATOM     14  H   UNL     1      47.501   6.774  15.702  0.00  0.00    +0.000 HD
BRANCH  13  15
ATOM     15  C   UNL     1      48.208   6.941  13.808  0.00  0.00    +0.000 C 
BRANCH  15  16
ATOM     16  C   UNL     1      47.033   6.297  13.116  0.00  0.00    +0.000 A 
ATOM     17  C   UNL     1      46.651   6.661  11.820  0.00  0.00    +0.000 A 
ATOM     18  C   UNL     1      45.805   5.828  11.079  0.00  0.00    +0.000 A 
ATOM     19  C   UNL     1      45.327   4.626  11.624  0.00  0.00    +0.000 A 
ATOM     20  C   UNL     1      45.687   4.283  12.930  0.00  0.00    +0.000 A 
ATOM     21  C   UNL     1      46.526   5.111  13.668  0.00  0.00    +0.000 A 
BRANCH  19  22
ATOM     22  C   UNL     1      44.372   3.745  10.866  0.00  0.00    +0.000 C 
BRANCH  22  23
ATOM     23  N   UNL     1      44.977   2.499  10.391  0.00  0.00    +0.000 NA
ATOM     24  H   UNL     1      44.661   1.752  11.004  0.00  0.00    +0.000 HD
BRANCH  23  25
ATOM     25  C   UNL     1      44.544   2.200   9.038  0.00  0.00    +0.000 C 
ATOM     26  C   UNL     1      44.710   3.334   8.030  0.00  0.00    +0.000 C 
ATOM     27  C   UNL     1      46.206   3.361   7.791  0.00  0.00    +0.000 C 
ATOM     28  C   UNL     1      46.612   1.904   7.938  0.00  0.00    +0.000 C 
ATOM     29  N   UNL     1      45.465   1.200   8.529  0.00  0.00    +0.000 NA
ATOM     30  H   UNL     1      45.780   0.604   9.287  0.00  0.00    +0.000 HD
ENDBRANCH  23  25
ENDBRANCH  22  23
ENDBRANCH  19  22
ENDBRANCH  15  16
ENDBRANCH  13  15
ENDBRANCH   1  13
BRANCH   1  31
ATOM     31  C   UNL     1      50.016   8.975  15.503  0.00  0.00    +0.000 C 
BRANCH  31  33
ATOM     32  N   UNL     1      48.270  10.648  15.928  0.00  0.00    +0.000 N 
ATOM     33  C   UNL     1      49.105  10.072  14.999  0.00  0.00    +0.000 C 
ATOM     34  N   UNL     1      49.043  10.332  13.728  0.00  0.00    +0.000 NA
ATOM     35  H   UNL     1      48.011  10.072  16.720  0.00  0.00    +0.000 HD
ATOM     36  H   UNL     1      47.474  11.082  15.468  0.00  0.00    +0.000 HD
BRANCH  34  37
ATOM     37  O   UNL     1      48.031  11.275  13.477  0.00  0.00    +0.000 OA
ATOM     38  H   UNL     1      47.393  10.756  12.956  0.00  0.00    +0.000 HD
ENDBRANCH  34  37
ENDBRANCH  31  33
ENDBRANCH   1  31
TORSDOF 10
ENDMDL
MODEL 7
REMARK VINA RESULT:    -6.593      2.769      3.603
REMARK INTER + INTRA:         -11.878
REMARK INTER:                  -9.883
REMARK INTRA:                  -1.995
REMARK UNBOUND:                -1.624
REMARK  Name = 
REMARK  10 active torsions:
REMARK  status: ('A' for Active; 'I' for Inactive)
REMARK    1  A    between atoms: C_2  and  C_3
REMARK    2  A    between atoms: C_3  and  C_4
REMARK    3  A    between atoms: C_4  and  N_5
REMARK    4  A    between atoms: C_4  and  C_20
REMARK    5  A    between atoms: N_5  and  C_6
REMARK    6  A    between atoms: C_6  and  C_7
REMARK    7  A    between atoms: C_10  and  C_11
REMARK    8  A    between atoms: C_11  and  N_12
REMARK    9  A    between atoms: N_12  and  C_13
REMARK   10  A    between atoms: N_30  and  O_31
REMARK                            x       y       z     vdW  Elec       q    Type
REMARK                         _______ _______ _______ _____ _____    ______ ____
ROOT
ATOM      1  C   UNL     1      48.607   6.061  17.098  0.00  0.00    +0.000 C 
ENDROOT
BRANCH   1   2
ATOM      2  C   UNL     1      49.580   6.317  18.247  0.00  0.00    +0.000 A 
ATOM      3  C   UNL     1      49.464   7.349  19.167  0.00  0.00    +0.000 A 
ATOM      4  S   UNL     1      50.774   7.452  20.257  0.00  0.00    +0.000 S 
ATOM      5  C   UNL     1      51.521   6.081  19.579  0.00  0.00    +0.000 A 
ATOM      6  N   UNL     1      52.712   5.627  20.056  0.00  0.00    +0.000 NA
ATOM      7  C   UNL     1      53.162   4.582  19.448  0.00  0.00    +0.000 A 
ATOM      8  N   UNL     1      52.529   3.947  18.408  0.00  0.00    +0.000 N 
ATOM      9  C   UNL     1      51.305   4.352  17.913  0.00  0.00    +0.000 A 
ATOM     10  O   UNL     1      50.728   3.719  17.038  0.00  0.00    +0.000 OA
ATOM     11  C   UNL     1      50.778   5.552  18.539  0.00  0.00    +0.000 A 
ATOM     12  H   UNL     1      52.919   3.111  18.000  0.00  0.00    +0.000 HD
ENDBRANCH   1   2
BRANCH   1  13
ATOM     13  N   UNL     1      49.414   5.897  15.846  0.00  0.00    +0.000 NA
ATOM     14  H   UNL     1      50.383   5.722  16.134  0.00  0.00    +0.000 HD
BRANCH  13  15
ATOM     15  C   UNL     1      49.393   7.154  15.090  0.00  0.00    +0.000 C 
BRANCH  15  16
ATOM     16  C   UNL     1      48.400   7.314  13.967  0.00  0.00    +0.000 A 
ATOM     17  C   UNL     1      48.212   6.319  13.002  0.00  0.00    +0.000 A 
ATOM     18  C   UNL     1      47.067   6.331  12.198  0.00  0.00    +0.000 A 
ATOM     19  C   UNL     1      46.099   7.337  12.344  0.00  0.00    +0.000 A 
ATOM     20  C   UNL     1      46.308   8.346  13.288  0.00  0.00    +0.000 A 
ATOM     21  C   UNL     1      47.446   8.337  14.087  0.00  0.00    +0.000 A 
BRANCH  19  22
ATOM     22  C   UNL     1      44.890   7.400  11.452  0.00  0.00    +0.000 C 
BRANCH  22  23
ATOM     23  N   UNL     1      44.588   6.132  10.786  0.00  0.00    +0.000 NA
ATOM     24  H   UNL     1      45.277   5.451  11.096  0.00  0.00    +0.000 HD
BRANCH  23  25
ATOM     25  C   UNL     1      43.268   5.655  11.159  0.00  0.00    +0.000 C 
ATOM     26  C   UNL     1      43.062   4.147  11.052  0.00  0.00    +0.000 C 
ATOM     27  C   UNL     1      43.843   3.611  12.235  0.00  0.00    +0.000 C 
ATOM     28  C   UNL     1      43.695   4.706  13.279  0.00  0.00    +0.000 C 
ATOM     29  N   UNL     1      43.145   5.881  12.588  0.00  0.00    +0.000 NA
ATOM     30  H   UNL     1      43.665   6.711  12.852  0.00  0.00    +0.000 HD
ENDBRANCH  23  25
ENDBRANCH  22  23
ENDBRANCH  19  22
ENDBRANCH  15  16
ENDBRANCH  13  15
ENDBRANCH   1  13
BRANCH   1  31
ATOM     31  C   UNL     1      47.701   4.828  17.346  0.00  0.00    +0.000 C 
BRANCH  31  33
ATOM     32  N   UNL     1      48.239   2.705  16.235  0.00  0.00    +0.000 N 
ATOM     33  C   UNL     1      47.503   3.866  16.194  0.00  0.00    +0.000 C 
ATOM     34  N   UNL     1      46.778   4.215  15.175  0.00  0.00    +0.000 NA
ATOM     35  H   UNL     1      49.114   2.743  16.743  0.00  0.00    +0.000 HD
ATOM     36  H   UNL     1      48.331   2.311  15.302  0.00  0.00    +0.000 HD
BRANCH  34  37
ATOM     37  O   UNL     1      46.856   3.235  14.170  0.00  0.00    +0.000 OA
ATOM     38  H   UNL     1      47.364   2.531  14.610  0.00  0.00    +0.000 HD
ENDBRANCH  34  37
ENDBRANCH  31  33
ENDBRANCH   1  31
TORSDOF 10
ENDMDL
MODEL 8
REMARK VINA RESULT:    -6.566      3.413      8.417
REMARK INTER + INTRA:         -11.836
REMARK INTER:                 -10.199
REMARK INTRA:                  -1.637
REMARK UNBOUND:                -1.624
REMARK  Name = 
REMARK  10 active torsions:
REMARK  status: ('A' for Active; 'I' for Inactive)
REMARK    1  A    between atoms: C_2  and  C_3
REMARK    2  A    between atoms: C_3  and  C_4
REMARK    3  A    between atoms: C_4  and  N_5
REMARK    4  A    between atoms: C_4  and  C_20
REMARK    5  A    between atoms: N_5  and  C_6
REMARK    6  A    between atoms: C_6  and  C_7
REMARK    7  A    between atoms: C_10  and  C_11
REMARK    8  A    between atoms: C_11  and  N_12
REMARK    9  A    between atoms: N_12  and  C_13
REMARK   10  A    between atoms: N_30  and  O_31
REMARK                            x       y       z     vdW  Elec       q    Type
REMARK                         _______ _______ _______ _____ _____    ______ ____
ROOT
ATOM      1  C   UNL     1      46.033   5.473  12.386  0.00  0.00    +0.000 C 
ENDROOT
BRANCH   1   2
ATOM      2  C   UNL     1      46.089   6.999  12.353  0.00  0.00    +0.000 A 
ATOM      3  C   UNL     1      44.978   7.831  12.320  0.00  0.00    +0.000 A 
ATOM      4  S   UNL     1      45.362   9.487  12.160  0.00  0.00    +0.000 S 
ATOM      5  C   UNL     1      47.032   9.163  12.187  0.00  0.00    +0.000 A 
ATOM      6  N   UNL     1      47.941  10.170  12.077  0.00  0.00    +0.000 NA
ATOM      7  C   UNL     1      49.170   9.779  12.112  0.00  0.00    +0.000 A 
ATOM      8  N   UNL     1      49.575   8.474  12.249  0.00  0.00    +0.000 N 
ATOM      9  C   UNL     1      48.690   7.425  12.397  0.00  0.00    +0.000 A 
ATOM     10  O   UNL     1      49.081   6.282  12.596  0.00  0.00    +0.000 OA
ATOM     11  C   UNL     1      47.291   7.811  12.321  0.00  0.00    +0.000 A 
ATOM     12  H   UNL     1      50.554   8.242  12.305  0.00  0.00    +0.000 HD
ENDBRANCH   1   2
BRANCH   1  13
ATOM     13  N   UNL     1      45.736   5.059  13.795  0.00  0.00    +0.000 NA
ATOM     14  H   UNL     1      45.706   5.915  14.360  0.00  0.00    +0.000 HD
BRANCH  13  15
ATOM     15  C   UNL     1      46.839   4.232  14.297  0.00  0.00    +0.000 C 
BRANCH  15  16
ATOM     16  C   UNL     1      47.435   4.551  15.645  0.00  0.00    +0.000 A 
ATOM     17  C   UNL     1      47.416   3.628  16.695  0.00  0.00    +0.000 A 
ATOM     18  C   UNL     1      48.264   3.801  17.796  0.00  0.00    +0.000 A 
ATOM     19  C   UNL     1      49.137   4.898  17.861  0.00  0.00    +0.000 A 
ATOM     20  C   UNL     1      49.129   5.834  16.823  0.00  0.00    +0.000 A 
ATOM     21  C   UNL     1      48.285   5.664  15.731  0.00  0.00    +0.000 A 
BRANCH  19  22
ATOM     22  C   UNL     1      50.015   5.133  19.060  0.00  0.00    +0.000 C 
BRANCH  22  23
ATOM     23  N   UNL     1      50.848   3.981  19.409  0.00  0.00    +0.000 NA
ATOM     24  H   UNL     1      50.246   3.161  19.429  0.00  0.00    +0.000 HD
BRANCH  23  25
ATOM     25  C   UNL     1      51.880   3.770  18.410  0.00  0.00    +0.000 C 
ATOM     26  C   UNL     1      52.925   4.878  18.303  0.00  0.00    +0.000 C 
ATOM     27  C   UNL     1      53.765   4.675  19.547  0.00  0.00    +0.000 C 
ATOM     28  C   UNL     1      53.723   3.170  19.758  0.00  0.00    +0.000 C 
ATOM     29  N   UNL     1      52.672   2.645  18.875  0.00  0.00    +0.000 NA
ATOM     30  H   UNL     1      52.083   1.997  19.387  0.00  0.00    +0.000 HD
ENDBRANCH  23  25
ENDBRANCH  22  23
ENDBRANCH  19  22
ENDBRANCH  15  16
ENDBRANCH  13  15
ENDBRANCH   1  13
BRANCH   1  31
ATOM     31  C   UNL     1      44.987   4.892  11.400  0.00  0.00    +0.000 C 
BRANCH  31  33
ATOM     32  N   UNL     1      44.929   2.576  10.588  0.00  0.00    +0.000 N 
ATOM     33  C   UNL     1      44.576   3.449  11.590  0.00  0.00    +0.000 C 
ATOM     34  N   UNL     1      43.815   3.118  12.589  0.00  0.00    +0.000 NA
ATOM     35  H   UNL     1      45.040   2.973   9.662  0.00  0.00    +0.000 HD
ATOM     36  H   UNL     1      44.328   1.756  10.605  0.00  0.00    +0.000 HD
BRANCH  34  37
ATOM     37  O   UNL     1      43.442   1.766  12.483  0.00  0.00    +0.000 OA
ATOM     38  H   UNL     1      42.995   1.610  13.334  0.00  0.00    +0.000 HD
ENDBRANCH  34  37
ENDBRANCH  31  33
ENDBRANCH   1  31
TORSDOF 10
ENDMDL
MODEL 9
REMARK VINA RESULT:    -6.560      1.994      2.676
REMARK INTER + INTRA:         -11.827
REMARK INTER:                  -9.902
REMARK INTRA:                  -1.925
REMARK UNBOUND:                -1.624
REMARK  Name = 
REMARK  10 active torsions:
REMARK  status: ('A' for Active; 'I' for Inactive)
REMARK    1  A    between atoms: C_2  and  C_3
REMARK    2  A    between atoms: C_3  and  C_4
REMARK    3  A    between atoms: C_4  and  N_5
REMARK    4  A    between atoms: C_4  and  C_20
REMARK    5  A    between atoms: N_5  and  C_6
REMARK    6  A    between atoms: C_6  and  C_7
REMARK    7  A    between atoms: C_10  and  C_11
REMARK    8  A    between atoms: C_11  and  N_12
REMARK    9  A    between atoms: N_12  and  C_13
REMARK   10  A    between atoms: N_30  and  O_31
REMARK                            x       y       z     vdW  Elec       q    Type
REMARK                         _______ _______ _______ _____ _____    ______ ____
ROOT
ATOM      1  C   UNL     1      48.636   6.110  17.225  0.00  0.00    +0.000 C 
ENDROOT
BRANCH   1   2
ATOM      2  C   UNL     1      49.384   6.881  18.311  0.00  0.00    +0.000 A 
ATOM      3  C   UNL     1      50.319   6.326  19.173  0.00  0.00    +0.000 A 
ATOM      4  S   UNL     1      50.890   7.411  20.362  0.00  0.00    +0.000 S 
ATOM      5  C   UNL     1      49.952   8.684  19.733  0.00  0.00    +0.000 A 
ATOM      6  N   UNL     1      49.971   9.917  20.310  0.00  0.00    +0.000 NA
ATOM      7  C   UNL     1      49.212  10.784  19.730  0.00  0.00    +0.000 A 
ATOM      8  N   UNL     1      48.437  10.533  18.625  0.00  0.00    +0.000 N 
ATOM      9  C   UNL     1      48.411   9.309  17.988  0.00  0.00    +0.000 A 
ATOM     10  O   UNL     1      47.771   9.138  16.958  0.00  0.00    +0.000 OA
ATOM     11  C   UNL     1      49.218   8.286  18.630  0.00  0.00    +0.000 A 
ATOM     12  H   UNL     1      47.893  11.269  18.199  0.00  0.00    +0.000 HD
ENDBRANCH   1   2
BRANCH   1  13
ATOM     13  N   UNL     1      49.591   5.874  16.095  0.00  0.00    +0.000 NA
ATOM     14  H   UNL     1      50.539   5.963  16.479  0.00  0.00    +0.000 HD
BRANCH  13  15
ATOM     15  C   UNL     1      49.418   6.926  15.088  0.00  0.00    +0.000 C 
BRANCH  15  16
ATOM     16  C   UNL     1      48.401   6.728  13.993  0.00  0.00    +0.000 A 
ATOM     17  C   UNL     1      47.538   5.627  13.979  0.00  0.00    +0.000 A 
ATOM     18  C   UNL     1      46.393   5.644  13.173  0.00  0.00    +0.000 A 
ATOM     19  C   UNL     1      46.099   6.756  12.370  0.00  0.00    +0.000 A 
ATOM     20  C   UNL     1      46.982   7.840  12.364  0.00  0.00    +0.000 A 
ATOM     21  C   UNL     1      48.121   7.824  13.163  0.00  0.00    +0.000 A 
BRANCH  19  22
ATOM     22  C   UNL     1      44.906   6.771  11.455  0.00  0.00    +0.000 C 
BRANCH  22  23
ATOM     23  N   UNL     1      43.811   5.912  11.908  0.00  0.00    +0.000 NA
ATOM     24  H   UNL     1      43.053   6.518  12.214  0.00  0.00    +0.000 HD
BRANCH  23  25
ATOM     25  C   UNL     1      43.325   5.080  10.822  0.00  0.00    +0.000 C 
ATOM     26  C   UNL     1      44.402   4.346  10.027  0.00  0.00    +0.000 C 
ATOM     27  C   UNL     1      44.840   3.251  10.977  0.00  0.00    +0.000 C 
ATOM     28  C   UNL     1      43.569   2.919  11.742  0.00  0.00    +0.000 C 
ATOM     29  N   UNL     1      42.602   3.985  11.443  0.00  0.00    +0.000 NA
ATOM     30  H   UNL     1      42.163   4.303  12.300  0.00  0.00    +0.000 HD
ENDBRANCH  23  25
ENDBRANCH  22  23
ENDBRANCH  19  22
ENDBRANCH  15  16
ENDBRANCH  13  15
ENDBRANCH   1  13
BRANCH   1  31
ATOM     31  C   UNL     1      48.041   4.775  17.742  0.00  0.00    +0.000 C 
BRANCH  31  33
ATOM     32  N   UNL     1      49.786   3.077  18.052  0.00  0.00    +0.000 N 
ATOM     33  C   UNL     1      48.713   3.494  17.300  0.00  0.00    +0.000 C 
ATOM     34  N   UNL     1      48.357   2.925  16.188  0.00  0.00    +0.000 NA
ATOM     35  H   UNL     1      50.301   3.798  18.543  0.00  0.00    +0.000 HD
ATOM     36  H   UNL     1      50.381   2.457  17.507  0.00  0.00    +0.000 HD
BRANCH  34  37
ATOM     37  O   UNL     1      49.210   1.844  15.906  0.00  0.00    +0.000 OA
ATOM     38  H   UNL     1      50.010   2.294  15.582  0.00  0.00    +0.000 HD
ENDBRANCH  34  37
ENDBRANCH  31  33
ENDBRANCH   1  31
TORSDOF 10
ENDMDL
