MODEL 1
REMARK VINA RESULT:    -7.123      0.000      0.000
REMARK INTER + INTRA:          -9.378
REMARK INTER:                  -9.205
REMARK INTRA:                  -0.173
REMARK UNBOUND:                -0.173
REMARK  Name = 
REMARK  5 active torsions:
REMARK  status: ('A' for Active; 'I' for Inactive)
REMARK    1  A    between atoms: C_2  and  C_3
REMARK    2  A    between atoms: C_12  and  C_13
REMARK    3  A    between atoms: C_13  and  C_14
REMARK    4  A    between atoms: C_14  and  C_15
REMARK    5  A    between atoms: C_18  and  C_19
REMARK                            x       y       z     vdW  Elec       q    Type
REMARK                         _______ _______ _______ _____ _____    ______ ____
ROOT
ATOM      1  C   UNL     1      44.229   5.307  11.887  0.00  0.00    +0.000 C 
ATOM      2  C   UNL     1      43.151   6.251  12.411  0.00  0.00    +0.000 C 
ATOM      3  C   UNL     1      43.979   6.657  11.241  0.00  0.00    +0.000 C 
ATOM      4  F   UNL     1      44.878   7.686  11.466  0.00  0.00    +0.000 F 
ENDROOT
BRANCH   1  14
ATOM      5  C   UNL     1      49.411   8.633  13.924  0.00  0.00    +0.000 C 
ATOM      6  C   UNL     1      49.481   9.425  12.609  0.00  0.00    +0.000 C 
ATOM      7  C   UNL     1      48.494   8.890  11.569  0.00  0.00    +0.000 C 
ATOM      8  C   UNL     1      48.705   7.399  11.325  0.00  0.00    +0.000 C 
ATOM      9  N   UNL     1      48.745   6.662  12.580  0.00  0.00    +0.000 N 
ATOM     10  C   UNL     1      47.693   5.838  12.916  0.00  0.00    +0.000 A 
ATOM     11  N   UNL     1      47.914   4.876  13.807  0.00  0.00    +0.000 NA
ATOM     12  C   UNL     1      46.879   4.085  14.054  0.00  0.00    +0.000 A 
ATOM     13  N   UNL     1      45.665   4.211  13.541  0.00  0.00    +0.000 NA
ATOM     14  C   UNL     1      45.535   5.187  12.639  0.00  0.00    +0.000 A 
ATOM     15  N   UNL     1      46.524   6.022  12.315  0.00  0.00    +0.000 NA
ATOM     16  C   UNL     1      49.604   7.133  13.662  0.00  0.00    +0.000 C 
BRANCH   5  18
ATOM     17  N   UNL     1      47.139   9.140  15.168  0.00  0.00    +0.000 NA
ATOM     18  C   UNL     1      48.144   8.896  14.632  0.00  0.00    +0.000 C 
ENDBRANCH   5  18
ENDBRANCH   1  14
BRANCH   1  19
ATOM     19  C   UNL     1      43.789   4.060  11.142  0.00  0.00    +0.000 C 
BRANCH  19  20
ATOM     20  C   UNL     1      44.711   3.701   9.995  0.00  0.00    +0.000 A 
ATOM     21  C   UNL     1      45.244   4.682   9.158  0.00  0.00    +0.000 A 
ATOM     22  C   UNL     1      46.065   4.304   8.094  0.00  0.00    +0.000 A 
ATOM     23  C   UNL     1      46.344   2.954   7.886  0.00  0.00    +0.000 A 
ATOM     24  C   UNL     1      45.755   2.036   8.745  0.00  0.00    +0.000 A 
ATOM     25  N   UNL     1      44.961   2.378   9.794  0.00  0.00    +0.000 NA
BRANCH  23  26
ATOM     26  C   UNL     1      47.213   2.460   6.793  0.00  0.00    +0.000 C 
ATOM     27  N   UNL     1      47.180   3.144   5.609  0.00  0.00    +0.000 N 
ATOM     28  O   UNL     1      47.962   1.505   6.949  0.00  0.00    +0.000 OA
ATOM     29  H   UNL     1      46.729   4.041   5.501  0.00  0.00    +0.000 HD
ATOM     30  H   UNL     1      47.834   2.853   4.894  0.00  0.00    +0.000 HD
ENDBRANCH  23  26
ENDBRANCH  19  20
ENDBRANCH   1  19
TORSDOF 5
ENDMDL
MODEL 2
REMARK VINA RESULT:    -6.280      3.028      4.047
REMARK INTER + INTRA:          -8.289
REMARK INTER:                  -8.410
REMARK INTRA:                   0.121
REMARK UNBOUND:                -0.173
REMARK  Name = 
REMARK  5 active torsions:
REMARK  status: ('A' for Active; 'I' for Inactive)
REMARK    1  A    between atoms: C_2  and  C_3
REMARK    2  A    between atoms: C_12  and  C_13
REMARK    3  A    between atoms: C_13  and  C_14
REMARK    4  A    between atoms: C_14  and  C_15
REMARK    5  A    between atoms: C_18  and  C_19
REMARK                            x       y       z     vdW  Elec       q    Type
REMARK                         _______ _______ _______ _____ _____    ______ ____
ROOT
ATOM      1  C   UNL     1      46.966   6.417  13.606  0.00  0.00    +0.000 C 
ATOM      2  C   UNL     1      47.543   7.813  13.387  0.00  0.00    +0.000 C 
ATOM      3  C   UNL     1      47.978   6.691  12.509  0.00  0.00    +0.000 C 
ATOM      4  F   UNL     1      49.285   6.264  12.678  0.00  0.00    +0.000 F 
ENDROOT
BRANCH   1  14
ATOM      5  C   UNL     1      50.025   6.694  19.318  0.00  0.00    +0.000 C 
ATOM      6  C   UNL     1      51.000   7.763  18.801  0.00  0.00    +0.000 C 
ATOM      7  C   UNL     1      50.841   7.997  17.296  0.00  0.00    +0.000 C 
ATOM      8  C   UNL     1      50.989   6.694  16.517  0.00  0.00    +0.000 C 
ATOM      9  N   UNL     1      50.142   5.649  17.076  0.00  0.00    +0.000 N 
ATOM     10  C   UNL     1      49.030   5.233  16.377  0.00  0.00    +0.000 A 
ATOM     11  N   UNL     1      48.527   4.035  16.663  0.00  0.00    +0.000 NA
ATOM     12  C   UNL     1      47.488   3.668  15.926  0.00  0.00    +0.000 A 
ATOM     13  N   UNL     1      46.896   4.401  14.996  0.00  0.00    +0.000 NA
ATOM     14  C   UNL     1      47.477   5.579  14.756  0.00  0.00    +0.000 A 
ATOM     15  N   UNL     1      48.535   6.026  15.436  0.00  0.00    +0.000 NA
ATOM     16  C   UNL     1      50.169   5.395  18.513  0.00  0.00    +0.000 C 
BRANCH   5  18
ATOM     17  N   UNL     1      47.534   7.564  19.238  0.00  0.00    +0.000 NA
ATOM     18  C   UNL     1      48.636   7.191  19.294  0.00  0.00    +0.000 C 
ENDBRANCH   5  18
ENDBRANCH   1  14
BRANCH   1  19
ATOM     19  C   UNL     1      45.523   6.168  13.208  0.00  0.00    +0.000 C 
BRANCH  19  20
ATOM     20  C   UNL     1      45.393   5.314  11.964  0.00  0.00    +0.000 A 
ATOM     21  C   UNL     1      45.575   5.855  10.691  0.00  0.00    +0.000 A 
ATOM     22  C   UNL     1      45.416   5.038   9.569  0.00  0.00    +0.000 A 
ATOM     23  C   UNL     1      45.081   3.696   9.737  0.00  0.00    +0.000 A 
ATOM     24  C   UNL     1      44.890   3.239  11.034  0.00  0.00    +0.000 A 
ATOM     25  N   UNL     1      45.050   4.009  12.143  0.00  0.00    +0.000 NA
BRANCH  23  26
ATOM     26  C   UNL     1      44.903   2.753   8.609  0.00  0.00    +0.000 C 
ATOM     27  N   UNL     1      44.783   1.425   8.916  0.00  0.00    +0.000 N 
ATOM     28  O   UNL     1      44.825   3.143   7.452  0.00  0.00    +0.000 OA
ATOM     29  H   UNL     1      44.648   1.085   9.857  0.00  0.00    +0.000 HD
ATOM     30  H   UNL     1      44.580   0.795   8.150  0.00  0.00    +0.000 HD
ENDBRANCH  23  26
ENDBRANCH  19  20
ENDBRANCH   1  19
TORSDOF 5
ENDMDL
MODEL 3
REMARK VINA RESULT:    -6.212      3.734      6.105
REMARK INTER + INTRA:          -8.200
REMARK INTER:                  -8.029
REMARK INTRA:                  -0.170
REMARK UNBOUND:                -0.173
REMARK  Name = 
REMARK  5 active torsions:
REMARK  status: ('A' for Active; 'I' for Inactive)
REMARK    1  A    between atoms: C_2  and  C_3
REMARK    2  A    between atoms: C_12  and  C_13
REMARK    3  A    between atoms: C_13  and  C_14
REMARK    4  A    between atoms: C_14  and  C_15
REMARK    5  A    between atoms: C_18  and  C_19
REMARK                            x       y       z     vdW  Elec       q    Type
REMARK                         _______ _______ _______ _____ _____    ______ ____
ROOT
ATOM      1  C   UNL     1      48.790   8.000  13.661  0.00  0.00    +0.000 C 
ATOM      2  C   UNL     1      47.567   8.836  14.027  0.00  0.00    +0.000 C 
ATOM      3  C   UNL     1      48.717   9.480  13.334  0.00  0.00    +0.000 C 
ATOM      4  F   UNL     1      49.457  10.373  14.093  0.00  0.00    +0.000 F 
ENDROOT
BRANCH   1  14
ATOM      5  C   UNL     1      49.610   4.382  18.981  0.00  0.00    +0.000 C 
ATOM      6  C   UNL     1      48.188   4.694  19.473  0.00  0.00    +0.000 C 
ATOM      7  C   UNL     1      47.506   5.753  18.604  0.00  0.00    +0.000 C 
ATOM      8  C   UNL     1      48.349   7.022  18.517  0.00  0.00    +0.000 C 
ATOM      9  N   UNL     1      49.725   6.713  18.153  0.00  0.00    +0.000 N 
ATOM     10  C   UNL     1      50.186   7.048  16.899  0.00  0.00    +0.000 A 
ATOM     11  N   UNL     1      51.500   7.159  16.727  0.00  0.00    +0.000 NA
ATOM     12  C   UNL     1      51.882   7.530  15.513  0.00  0.00    +0.000 A 
ATOM     13  N   UNL     1      51.085   7.738  14.477  0.00  0.00    +0.000 NA
ATOM     14  C   UNL     1      49.780   7.629  14.741  0.00  0.00    +0.000 A 
ATOM     15  N   UNL     1      49.302   7.275  15.936  0.00  0.00    +0.000 NA
ATOM     16  C   UNL     1      50.441   5.667  18.877  0.00  0.00    +0.000 C 
BRANCH   5  18
ATOM     17  N   UNL     1      49.532   3.121  16.662  0.00  0.00    +0.000 NA
ATOM     18  C   UNL     1      49.576   3.658  17.695  0.00  0.00    +0.000 C 
ENDBRANCH   5  18
ENDBRANCH   1  14
BRANCH   1  19
ATOM     19  C   UNL     1      48.662   7.005  12.523  0.00  0.00    +0.000 C 
BRANCH  19  20
ATOM     20  C   UNL     1      47.361   6.230  12.559  0.00  0.00    +0.000 A 
ATOM     21  C   UNL     1      46.412   6.358  11.544  0.00  0.00    +0.000 A 
ATOM     22  C   UNL     1      45.213   5.648  11.632  0.00  0.00    +0.000 A 
ATOM     23  C   UNL     1      44.982   4.820  12.729  0.00  0.00    +0.000 A 
ATOM     24  C   UNL     1      45.963   4.767  13.711  0.00  0.00    +0.000 A 
ATOM     25  N   UNL     1      47.143   5.438  13.644  0.00  0.00    +0.000 NA
BRANCH  23  26
ATOM     26  C   UNL     1      43.748   4.022  12.902  0.00  0.00    +0.000 C 
ATOM     27  N   UNL     1      43.827   2.681  12.644  0.00  0.00    +0.000 N 
ATOM     28  O   UNL     1      42.705   4.527  13.299  0.00  0.00    +0.000 OA
ATOM     29  H   UNL     1      44.702   2.195  12.505  0.00  0.00    +0.000 HD
ATOM     30  H   UNL     1      43.004   2.127  12.842  0.00  0.00    +0.000 HD
ENDBRANCH  23  26
ENDBRANCH  19  20
ENDBRANCH   1  19
TORSDOF 5
ENDMDL
MODEL 4
REMARK VINA RESULT:    -6.122      3.177      7.146
REMARK INTER + INTRA:          -8.084
REMARK INTER:                  -8.170
REMARK INTRA:                   0.086
REMARK UNBOUND:                -0.173
REMARK  Name = 
REMARK  5 active torsions:
REMARK  status: ('A' for Active; 'I' for Inactive)
REMARK    1  A    between atoms: C_2  and  C_3
REMARK    2  A    between atoms: C_12  and  C_13
REMARK    3  A    between atoms: C_13  and  C_14
REMARK    4  A    between atoms: C_14  and  C_15
REMARK    5  A    between atoms: C_18  and  C_19
REMARK                            x       y       z     vdW  Elec       q    Type
REMARK                         _______ _______ _______ _____ _____    ______ ____
ROOT
ATOM      1  C   UNL     1      48.437   7.599  13.088  0.00  0.00    +0.000 C 
ATOM      2  C   UNL     1      49.353   6.678  12.286  0.00  0.00    +0.000 C 
ATOM      3  C   UNL     1      49.452   8.153  12.105  0.00  0.00    +0.000 C 
ATOM      4  F   UNL     1      49.009   8.644  10.887  0.00  0.00    +0.000 F 
ENDROOT
BRANCH   1  14
ATOM      5  C   UNL     1      43.107   4.291  11.443  0.00  0.00    +0.000 C 
ATOM      6  C   UNL     1      43.926   3.281  10.624  0.00  0.00    +0.000 C 
ATOM      7  C   UNL     1      45.392   3.702  10.505  0.00  0.00    +0.000 C 
ATOM      8  C   UNL     1      45.516   5.108   9.926  0.00  0.00    +0.000 C 
ATOM      9  N   UNL     1      44.657   6.045  10.636  0.00  0.00    +0.000 N 
ATOM     10  C   UNL     1      45.223   6.992  11.462  0.00  0.00    +0.000 A 
ATOM     11  N   UNL     1      44.507   8.073  11.754  0.00  0.00    +0.000 NA
ATOM     12  C   UNL     1      45.121   8.971  12.512  0.00  0.00    +0.000 A 
ATOM     13  N   UNL     1      46.333   8.852  13.032  0.00  0.00    +0.000 NA
ATOM     14  C   UNL     1      46.992   7.747  12.671  0.00  0.00    +0.000 A 
ATOM     15  N   UNL     1      46.461   6.797  11.899  0.00  0.00    +0.000 NA
ATOM     16  C   UNL     1      43.256   5.705  10.864  0.00  0.00    +0.000 C 
BRANCH   5  18
ATOM     17  N   UNL     1      43.756   4.238  14.001  0.00  0.00    +0.000 NA
ATOM     18  C   UNL     1      43.489   4.250  12.867  0.00  0.00    +0.000 C 
ENDBRANCH   5  18
ENDBRANCH   1  14
BRANCH   1  19
ATOM     19  C   UNL     1      48.709   7.764  14.572  0.00  0.00    +0.000 C 
BRANCH  19  20
ATOM     20  C   UNL     1      48.386   6.519  15.372  0.00  0.00    +0.000 A 
ATOM     21  C   UNL     1      47.580   5.508  14.848  0.00  0.00    +0.000 A 
ATOM     22  C   UNL     1      47.284   4.391  15.633  0.00  0.00    +0.000 A 
ATOM     23  C   UNL     1      47.799   4.300  16.925  0.00  0.00    +0.000 A 
ATOM     24  C   UNL     1      48.570   5.360  17.384  0.00  0.00    +0.000 A 
ATOM     25  N   UNL     1      48.883   6.452  16.638  0.00  0.00    +0.000 NA
BRANCH  23  26
ATOM     26  C   UNL     1      47.548   3.151  17.823  0.00  0.00    +0.000 C 
ATOM     27  N   UNL     1      48.400   2.985  18.881  0.00  0.00    +0.000 N 
ATOM     28  O   UNL     1      46.596   2.400  17.657  0.00  0.00    +0.000 OA
ATOM     29  H   UNL     1      49.072   3.684  19.164  0.00  0.00    +0.000 HD
ATOM     30  H   UNL     1      48.177   2.248  19.537  0.00  0.00    +0.000 HD
ENDBRANCH  23  26
ENDBRANCH  19  20
ENDBRANCH   1  19
TORSDOF 5
ENDMDL
MODEL 5
REMARK VINA RESULT:    -6.004      3.208      5.612
REMARK INTER + INTRA:          -7.932
REMARK INTER:                  -7.309
REMARK INTRA:                  -0.623
REMARK UNBOUND:                -0.173
REMARK  Name = 
REMARK  5 active torsions:
REMARK  status: ('A' for Active; 'I' for Inactive)
REMARK    1  A    between atoms: C_2  and  C_3
REMARK    2  A    between atoms: C_12  and  C_13
REMARK    3  A    between atoms: C_13  and  C_14
REMARK    4  A    between atoms: C_14  and  C_15
REMARK    5  A    between atoms: C_18  and  C_19
REMARK                            x       y       z     vdW  Elec       q    Type
REMARK                         _______ _______ _______ _____ _____    ______ ____
ROOT
ATOM      1  C   UNL     1      48.094   8.438  13.599  0.00  0.00    +0.000 C 
ATOM      2  C   UNL     1      49.046   9.077  12.592  0.00  0.00    +0.000 C 
ATOM      3  C   UNL     1      49.029   7.597  12.750  0.00  0.00    +0.000 C 
ATOM      4  F   UNL     1      50.153   7.039  13.340  0.00  0.00    +0.000 F 
ENDROOT
BRANCH   1  14
ATOM      5  C   UNL     1      50.635   5.031  18.498  0.00  0.00    +0.000 C 
ATOM      6  C   UNL     1      49.939   3.744  18.029  0.00  0.00    +0.000 C 
ATOM      7  C   UNL     1      48.962   4.011  16.881  0.00  0.00    +0.000 C 
ATOM      8  C   UNL     1      47.942   5.079  17.263  0.00  0.00    +0.000 C 
ATOM      9  N   UNL     1      48.598   6.260  17.808  0.00  0.00    +0.000 N 
ATOM     10  C   UNL     1      48.631   7.420  17.065  0.00  0.00    +0.000 A 
ATOM     11  N   UNL     1      48.834   8.566  17.708  0.00  0.00    +0.000 NA
ATOM     12  C   UNL     1      48.806   9.653  16.950  0.00  0.00    +0.000 A 
ATOM     13  N   UNL     1      48.654   9.680  15.635  0.00  0.00    +0.000 NA
ATOM     14  C   UNL     1      48.433   8.489  15.071  0.00  0.00    +0.000 A 
ATOM     15  N   UNL     1      48.427   7.344  15.756  0.00  0.00    +0.000 NA
ATOM     16  C   UNL     1      49.599   6.105  18.859  0.00  0.00    +0.000 C 
BRANCH   5  18
ATOM     17  N   UNL     1      52.299   5.911  16.648  0.00  0.00    +0.000 NA
ATOM     18  C   UNL     1      51.583   5.520  17.479  0.00  0.00    +0.000 C 
ENDBRANCH   5  18
ENDBRANCH   1  14
BRANCH   1  19
ATOM     19  C   UNL     1      46.612   8.419  13.271  0.00  0.00    +0.000 C 
BRANCH  19  20
ATOM     20  C   UNL     1      46.145   7.084  12.728  0.00  0.00    +0.000 A 
ATOM     21  C   UNL     1      45.708   6.950  11.410  0.00  0.00    +0.000 A 
ATOM     22  C   UNL     1      45.257   5.708  10.959  0.00  0.00    +0.000 A 
ATOM     23  C   UNL     1      45.254   4.619  11.830  0.00  0.00    +0.000 A 
ATOM     24  C   UNL     1      45.679   4.838  13.134  0.00  0.00    +0.000 A 
ATOM     25  N   UNL     1      46.133   6.034  13.594  0.00  0.00    +0.000 NA
BRANCH  23  26
ATOM     26  C   UNL     1      44.806   3.264  11.439  0.00  0.00    +0.000 C 
ATOM     27  N   UNL     1      44.165   2.517  12.389  0.00  0.00    +0.000 N 
ATOM     28  O   UNL     1      44.963   2.837  10.302  0.00  0.00    +0.000 OA
ATOM     29  H   UNL     1      43.845   2.897  13.268  0.00  0.00    +0.000 HD
ATOM     30  H   UNL     1      43.789   1.625  12.093  0.00  0.00    +0.000 HD
ENDBRANCH  23  26
ENDBRANCH  19  20
ENDBRANCH   1  19
TORSDOF 5
ENDMDL
MODEL 6
REMARK VINA RESULT:    -5.817      2.614      4.099
REMARK INTER + INTRA:          -7.689
REMARK INTER:                  -7.621
REMARK INTRA:                  -0.069
REMARK UNBOUND:                -0.173
REMARK  Name = 
REMARK  5 active torsions:
REMARK  status: ('A' for Active; 'I' for Inactive)
REMARK    1  A    between atoms: C_2  and  C_3
REMARK    2  A    between atoms: C_12  and  C_13
REMARK    3  A    between atoms: C_13  and  C_14
REMARK    4  A    between atoms: C_14  and  C_15
REMARK    5  A    between atoms: C_18  and  C_19
REMARK                            x       y       z     vdW  Elec       q    Type
REMARK                         _______ _______ _______ _____ _____    ______ ____
ROOT
ATOM      1  C   UNL     1      46.971   5.099  14.197  0.00  0.00    +0.000 C 
ATOM      2  C   UNL     1      47.419   3.644  14.306  0.00  0.00    +0.000 C 
ATOM      3  C   UNL     1      47.004   4.379  15.533  0.00  0.00    +0.000 C 
ATOM      4  F   UNL     1      48.017   4.676  16.431  0.00  0.00    +0.000 F 
ENDROOT
BRANCH   1  14
ATOM      5  C   UNL     1      50.815   9.214  17.415  0.00  0.00    +0.000 C 
ATOM      6  C   UNL     1      49.712   9.522  18.439  0.00  0.00    +0.000 C 
ATOM      7  C   UNL     1      48.375   8.889  18.043  0.00  0.00    +0.000 C 
ATOM      8  C   UNL     1      47.958   9.317  16.639  0.00  0.00    +0.000 C 
ATOM      9  N   UNL     1      49.044   9.123  15.687  0.00  0.00    +0.000 N 
ATOM     10  C   UNL     1      48.952   8.118  14.750  0.00  0.00    +0.000 A 
ATOM     11  N   UNL     1      49.702   8.213  13.657  0.00  0.00    +0.000 NA
ATOM     12  C   UNL     1      49.536   7.243  12.769  0.00  0.00    +0.000 A 
ATOM     13  N   UNL     1      48.747   6.188  12.909  0.00  0.00    +0.000 NA
ATOM     14  C   UNL     1      48.013   6.181  14.025  0.00  0.00    +0.000 A 
ATOM     15  N   UNL     1      48.100   7.122  14.966  0.00  0.00    +0.000 NA
ATOM     16  C   UNL     1      50.375   9.629  16.004  0.00  0.00    +0.000 C 
BRANCH   5  18
ATOM     17  N   UNL     1      51.457   6.655  17.511  0.00  0.00    +0.000 NA
ATOM     18  C   UNL     1      51.196   7.789  17.462  0.00  0.00    +0.000 C 
ENDBRANCH   5  18
ENDBRANCH   1  14
BRANCH   1  19
ATOM     19  C   UNL     1      45.620   5.387  13.569  0.00  0.00    +0.000 C 
BRANCH  19  20
ATOM     20  C   UNL     1      45.567   5.036  12.096  0.00  0.00    +0.000 A 
ATOM     21  C   UNL     1      45.864   5.982  11.114  0.00  0.00    +0.000 A 
ATOM     22  C   UNL     1      45.773   5.624   9.767  0.00  0.00    +0.000 A 
ATOM     23  C   UNL     1      45.392   4.328   9.424  0.00  0.00    +0.000 A 
ATOM     24  C   UNL     1      45.088   3.452  10.458  0.00  0.00    +0.000 A 
ATOM     25  N   UNL     1      45.179   3.771  11.776  0.00  0.00    +0.000 NA
BRANCH  23  26
ATOM     26  C   UNL     1      45.280   3.854   8.025  0.00  0.00    +0.000 C 
ATOM     27  N   UNL     1      44.186   3.100   7.704  0.00  0.00    +0.000 N 
ATOM     28  O   UNL     1      46.109   4.156   7.176  0.00  0.00    +0.000 OA
ATOM     29  H   UNL     1      43.389   2.992   8.317  0.00  0.00    +0.000 HD
ATOM     30  H   UNL     1      44.072   2.848   6.731  0.00  0.00    +0.000 HD
ENDBRANCH  23  26
ENDBRANCH  19  20
ENDBRANCH   1  19
TORSDOF 5
ENDMDL
MODEL 7
REMARK VINA RESULT:    -5.580      2.382      3.775
REMARK INTER + INTRA:          -7.384
REMARK INTER:                  -7.431
REMARK INTRA:                   0.047
REMARK UNBOUND:                -0.173
REMARK  Name = 
REMARK  5 active torsions:
REMARK  status: ('A' for Active; 'I' for Inactive)
REMARK    1  A    between atoms: C_2  and  C_3
REMARK    2  A    between atoms: C_12  and  C_13
REMARK    3  A    between atoms: C_13  and  C_14
REMARK    4  A    between atoms: C_14  and  C_15
REMARK    5  A    between atoms: C_18  and  C_19
REMARK                            x       y       z     vdW  Elec       q    Type
REMARK                         _______ _______ _______ _____ _____    ______ ____
ROOT
ATOM      1  C   UNL     1      45.869   7.720  12.866  0.00  0.00    +0.000 C 
ATOM      2  C   UNL     1      45.304   9.111  13.138  0.00  0.00    +0.000 C 
ATOM      3  C   UNL     1      45.618   8.706  11.740  0.00  0.00    +0.000 C 
ATOM      4  F   UNL     1      46.698   9.346  11.154  0.00  0.00    +0.000 F 
ENDROOT
BRANCH   1  14
ATOM      5  C   UNL     1      49.987   5.867  17.521  0.00  0.00    +0.000 C 
ATOM      6  C   UNL     1      49.247   6.702  18.577  0.00  0.00    +0.000 C 
ATOM      7  C   UNL     1      48.164   7.583  17.949  0.00  0.00    +0.000 C 
ATOM      8  C   UNL     1      48.745   8.471  16.853  0.00  0.00    +0.000 C 
ATOM      9  N   UNL     1      49.536   7.692  15.910  0.00  0.00    +0.000 N 
ATOM     10  C   UNL     1      49.054   7.476  14.637  0.00  0.00    +0.000 A 
ATOM     11  N   UNL     1      49.925   7.155  13.686  0.00  0.00    +0.000 NA
ATOM     12  C   UNL     1      49.412   7.007  12.474  0.00  0.00    +0.000 A 
ATOM     13  N   UNL     1      48.129   7.095  12.157  0.00  0.00    +0.000 NA
ATOM     14  C   UNL     1      47.324   7.443  13.164  0.00  0.00    +0.000 A 
ATOM     15  N   UNL     1      47.754   7.629  14.414  0.00  0.00    +0.000 NA
ATOM     16  C   UNL     1      50.548   6.769  16.413  0.00  0.00    +0.000 C 
BRANCH   5  18
ATOM     17  N   UNL     1      48.385   4.019  16.526  0.00  0.00    +0.000 NA
ATOM     18  C   UNL     1      49.109   4.818  16.967  0.00  0.00    +0.000 C 
ENDBRANCH   5  18
ENDBRANCH   1  14
BRANCH   1  19
ATOM     19  C   UNL     1      44.937   6.530  13.000  0.00  0.00    +0.000 C 
BRANCH  19  20
ATOM     20  C   UNL     1      45.053   5.556  11.845  0.00  0.00    +0.000 A 
ATOM     21  C   UNL     1      45.367   5.992  10.557  0.00  0.00    +0.000 A 
ATOM     22  C   UNL     1      45.434   5.064   9.516  0.00  0.00    +0.000 A 
ATOM     23  C   UNL     1      45.189   3.717   9.778  0.00  0.00    +0.000 A 
ATOM     24  C   UNL     1      44.856   3.365  11.079  0.00  0.00    +0.000 A 
ATOM     25  N   UNL     1      44.795   4.247  12.113  0.00  0.00    +0.000 NA
BRANCH  23  26
ATOM     26  C   UNL     1      45.249   2.662   8.741  0.00  0.00    +0.000 C 
ATOM     27  N   UNL     1      44.814   1.413   9.092  0.00  0.00    +0.000 N 
ATOM     28  O   UNL     1      45.633   2.899   7.603  0.00  0.00    +0.000 OA
ATOM     29  H   UNL     1      44.313   1.223   9.949  0.00  0.00    +0.000 HD
ATOM     30  H   UNL     1      44.779   0.717   8.359  0.00  0.00    +0.000 HD
ENDBRANCH  23  26
ENDBRANCH  19  20
ENDBRANCH   1  19
TORSDOF 5
ENDMDL
MODEL 8
REMARK VINA RESULT:    -5.331      3.702      8.125
REMARK INTER + INTRA:          -7.062
REMARK INTER:                  -6.661
REMARK INTRA:                  -0.401
REMARK UNBOUND:                -0.173
REMARK  Name = 
REMARK  5 active torsions:
REMARK  status: ('A' for Active; 'I' for Inactive)
REMARK    1  A    between atoms: C_2  and  C_3
REMARK    2  A    between atoms: C_12  and  C_13
REMARK    3  A    between atoms: C_13  and  C_14
REMARK    4  A    between atoms: C_14  and  C_15
REMARK    5  A    between atoms: C_18  and  C_19
REMARK                            x       y       z     vdW  Elec       q    Type
REMARK                         _______ _______ _______ _____ _____    ______ ____
ROOT
ATOM      1  C   UNL     1      48.474   7.494  12.473  0.00  0.00    +0.000 C 
ATOM      2  C   UNL     1      49.473   7.520  11.320  0.00  0.00    +0.000 C 
ATOM      3  C   UNL     1      49.282   8.738  12.154  0.00  0.00    +0.000 C 
ATOM      4  F   UNL     1      48.655   9.805  11.531  0.00  0.00    +0.000 F 
ENDROOT
BRANCH   1  14
ATOM      5  C   UNL     1      43.085   4.008  11.541  0.00  0.00    +0.000 C 
ATOM      6  C   UNL     1      43.850   2.948  10.733  0.00  0.00    +0.000 C 
ATOM      7  C   UNL     1      45.293   3.377  10.457  0.00  0.00    +0.000 C 
ATOM      8  C   UNL     1      45.342   4.736   9.767  0.00  0.00    +0.000 C 
ATOM      9  N   UNL     1      44.529   5.714  10.477  0.00  0.00    +0.000 N 
ATOM     10  C   UNL     1      45.146   6.727  11.178  0.00  0.00    +0.000 A 
ATOM     11  N   UNL     1      44.437   7.819  11.449  0.00  0.00    +0.000 NA
ATOM     12  C   UNL     1      45.096   8.779  12.083  0.00  0.00    +0.000 A 
ATOM     13  N   UNL     1      46.350   8.714  12.504  0.00  0.00    +0.000 NA
ATOM     14  C   UNL     1      46.996   7.593  12.171  0.00  0.00    +0.000 A 
ATOM     15  N   UNL     1      46.420   6.580  11.521  0.00  0.00    +0.000 NA
ATOM     16  C   UNL     1      43.159   5.375  10.848  0.00  0.00    +0.000 C 
BRANCH   5  18
ATOM     17  N   UNL     1      43.972   4.176  14.022  0.00  0.00    +0.000 NA
ATOM     18  C   UNL     1      43.587   4.079  12.926  0.00  0.00    +0.000 C 
ENDBRANCH   5  18
ENDBRANCH   1  14
BRANCH   1  19
ATOM     19  C   UNL     1      48.834   6.700  13.715  0.00  0.00    +0.000 C 
BRANCH  19  20
ATOM     20  C   UNL     1      49.220   7.580  14.886  0.00  0.00    +0.000 A 
ATOM     21  C   UNL     1      50.494   7.517  15.452  0.00  0.00    +0.000 A 
ATOM     22  C   UNL     1      50.797   8.324  16.551  0.00  0.00    +0.000 A 
ATOM     23  C   UNL     1      49.826   9.183  17.063  0.00  0.00    +0.000 A 
ATOM     24  C   UNL     1      48.574   9.169  16.462  0.00  0.00    +0.000 A 
ATOM     25  N   UNL     1      48.256   8.402  15.386  0.00  0.00    +0.000 NA
BRANCH  23  26
ATOM     26  C   UNL     1      50.059  10.083  18.215  0.00  0.00    +0.000 C 
ATOM     27  N   UNL     1      49.102  11.024  18.480  0.00  0.00    +0.000 N 
ATOM     28  O   UNL     1      51.046   9.970  18.930  0.00  0.00    +0.000 OA
ATOM     29  H   UNL     1      48.192  11.026  18.041  0.00  0.00    +0.000 HD
ATOM     30  H   UNL     1      49.226  11.581  19.315  0.00  0.00    +0.000 HD
ENDBRANCH  23  26
ENDBRANCH  19  20
ENDBRANCH   1  19
TORSDOF 5
ENDMDL
MODEL 9
REMARK VINA RESULT:    -5.182      1.627      2.730
REMARK INTER + INTRA:          -6.869
REMARK INTER:                  -6.845
REMARK INTRA:                  -0.024
REMARK UNBOUND:                -0.173
REMARK  Name = 
REMARK  5 active torsions:
REMARK  status: ('A' for Active; 'I' for Inactive)
REMARK    1  A    between atoms: C_2  and  C_3
REMARK    2  A    between atoms: C_12  and  C_13
REMARK    3  A    between atoms: C_13  and  C_14
REMARK    4  A    between atoms: C_14  and  C_15
REMARK    5  A    between atoms: C_18  and  C_19
REMARK                            x       y       z     vdW  Elec       q    Type
REMARK                         _______ _______ _______ _____ _____    ______ ____
ROOT
ATOM      1  C   UNL     1      44.245   5.626  12.157  0.00  0.00    +0.000 C 
ATOM      2  C   UNL     1      42.952   5.420  12.941  0.00  0.00    +0.000 C 
ATOM      3  C   UNL     1      42.898   5.573  11.461  0.00  0.00    +0.000 C 
ATOM      4  F   UNL     1      42.335   6.751  10.995  0.00  0.00    +0.000 F 
ENDROOT
BRANCH   1  14
ATOM      5  C   UNL     1      49.861   8.689  13.227  0.00  0.00    +0.000 C 
ATOM      6  C   UNL     1      50.178   7.792  14.433  0.00  0.00    +0.000 C 
ATOM      7  C   UNL     1      48.998   6.887  14.794  0.00  0.00    +0.000 C 
ATOM      8  C   UNL     1      47.731   7.702  15.033  0.00  0.00    +0.000 C 
ATOM      9  N   UNL     1      47.489   8.630  13.937  0.00  0.00    +0.000 N 
ATOM     10  C   UNL     1      46.445   8.395  13.069  0.00  0.00    +0.000 A 
ATOM     11  N   UNL     1      45.976   9.422  12.365  0.00  0.00    +0.000 NA
ATOM     12  C   UNL     1      44.942   9.147  11.584  0.00  0.00    +0.000 A 
ATOM     13  N   UNL     1      44.393   7.955  11.411  0.00  0.00    +0.000 NA
ATOM     14  C   UNL     1      44.908   6.984  12.171  0.00  0.00    +0.000 A 
ATOM     15  N   UNL     1      45.939   7.171  12.998  0.00  0.00    +0.000 NA
ATOM     16  C   UNL     1      48.573   9.489  13.471  0.00  0.00    +0.000 C 
BRANCH   5  18
ATOM     17  N   UNL     1      49.731   7.295  10.989  0.00  0.00    +0.000 NA
ATOM     18  C   UNL     1      49.774   7.895  11.986  0.00  0.00    +0.000 C 
ENDBRANCH   5  18
ENDBRANCH   1  14
BRANCH   1  19
ATOM     19  C   UNL     1      45.183   4.444  12.000  0.00  0.00    +0.000 C 
BRANCH  19  20
ATOM     20  C   UNL     1      45.521   4.146  10.554  0.00  0.00    +0.000 A 
ATOM     21  C   UNL     1      45.922   5.158   9.680  0.00  0.00    +0.000 A 
ATOM     22  C   UNL     1      46.195   4.844   8.348  0.00  0.00    +0.000 A 
ATOM     23  C   UNL     1      46.069   3.527   7.910  0.00  0.00    +0.000 A 
ATOM     24  C   UNL     1      45.640   2.582   8.833  0.00  0.00    +0.000 A 
ATOM     25  N   UNL     1      45.378   2.858  10.138  0.00  0.00    +0.000 NA
BRANCH  23  26
ATOM     26  C   UNL     1      46.349   3.099   6.521  0.00  0.00    +0.000 C 
ATOM     27  N   UNL     1      46.761   4.060   5.639  0.00  0.00    +0.000 N 
ATOM     28  O   UNL     1      46.256   1.927   6.178  0.00  0.00    +0.000 OA
ATOM     29  H   UNL     1      47.035   4.990   5.924  0.00  0.00    +0.000 HD
ATOM     30  H   UNL     1      47.029   3.749   4.714  0.00  0.00    +0.000 HD
ENDBRANCH  23  26
ENDBRANCH  19  20
ENDBRANCH   1  19
TORSDOF 5
ENDMDL
