MODEL 1
REMARK VINA RESULT:    -7.924      0.000      0.000
REMARK INTER + INTRA:         -12.248
REMARK INTER:                 -11.166
REMARK INTRA:                  -1.082
REMARK UNBOUND:                -1.082
REMARK  Name = 
REMARK  7 active torsions:
REMARK  status: ('A' for Active; 'I' for Inactive)
REMARK    1  A    between atoms: C_2  and  C_4
REMARK    2  A    between atoms: C_7  and  N_8
REMARK    3  A    between atoms: N_8  and  C_9
REMARK    4  A    between atoms: C_9  and  C_10
REMARK    5  A    between atoms: C_10  and  C_11
REMARK    6  A    between atoms: C_15  and  C_16
REMARK    7  A    between atoms: C_16  and  C_19
REMARK                            x       y       z     vdW  Elec       q    Type
REMARK                         _______ _______ _______ _____ _____    ______ ____
ROOT
ATOM      1  C   UNL     1      43.031   4.340  11.144  0.00  0.00    +0.000 C 
ENDROOT
BRANCH   1   2
ATOM      2  N   UNL     1      43.740   4.879   9.979  0.00  0.00    +0.000 N 
ATOM      3  H   UNL     1      44.209   5.761  10.175  0.00  0.00    +0.000 HD
BRANCH   2   7
ATOM      4  C   UNL     1      46.235   2.216   7.973  0.00  0.00    +0.000 A 
ATOM      5  C   UNL     1      46.354   3.563   7.672  0.00  0.00    +0.000 A 
ATOM      6  C   UNL     1      45.505   4.466   8.312  0.00  0.00    +0.000 A 
ATOM      7  C   UNL     1      44.544   4.018   9.221  0.00  0.00    +0.000 A 
ATOM      8  C   UNL     1      44.534   2.637   9.464  0.00  0.00    +0.000 A 
ATOM      9  N   UNL     1      45.330   1.719   8.857  0.00  0.00    +0.000 NA
BRANCH   4  11
ATOM     10  N   UNL     1      48.274   1.769   6.734  0.00  0.00    +0.000 N 
ATOM     11  C   UNL     1      47.162   1.236   7.325  0.00  0.00    +0.000 C 
ATOM     12  O   UNL     1      46.948   0.028   7.317  0.00  0.00    +0.000 OA
ATOM     13  H   UNL     1      48.936   1.156   6.282  0.00  0.00    +0.000 HD
ATOM     14  H   UNL     1      48.437   2.768   6.781  0.00  0.00    +0.000 HD
ENDBRANCH   4  11
ENDBRANCH   2   7
ENDBRANCH   1   2
BRANCH   1  15
ATOM     15  C   UNL     1      43.247   5.257  12.352  0.00  0.00    +0.000 C 
BRANCH  15  16
ATOM     16  C   UNL     1      44.688   5.309  12.802  0.00  0.00    +0.000 A 
ATOM     17  C   UNL     1      45.365   4.135  13.151  0.00  0.00    +0.000 A 
ATOM     18  C   UNL     1      46.704   4.182  13.540  0.00  0.00    +0.000 A 
ATOM     19  C   UNL     1      47.380   5.402  13.579  0.00  0.00    +0.000 A 
ATOM     20  C   UNL     1      46.722   6.594  13.241  0.00  0.00    +0.000 A 
ATOM     21  C   UNL     1      45.367   6.534  12.873  0.00  0.00    +0.000 A 
BRANCH  20  22
ATOM     22  C   UNL     1      47.456   7.921  13.265  0.00  0.00    +0.000 C 
ATOM     23  F   UNL     1      46.617   8.962  13.546  0.00  0.00    +0.000 F 
ATOM     24  F   UNL     1      48.420   7.968  14.225  0.00  0.00    +0.000 F 
BRANCH  22  25
ATOM     25  C   UNL     1      48.079   8.215  11.917  0.00  0.00    +0.000 C 
ATOM     26  C   UNL     1      49.545   7.837  11.702  0.00  0.00    +0.000 C 
ATOM     27  O   UNL     1      49.904   9.202  11.396  0.00  0.00    +0.000 OA
ATOM     28  C   UNL     1      48.569   9.654  11.721  0.00  0.00    +0.000 C 
ENDBRANCH  22  25
ENDBRANCH  20  22
ENDBRANCH  15  16
ENDBRANCH   1  15
TORSDOF 7
ENDMDL
MODEL 2
REMARK VINA RESULT:    -7.654      2.778      3.635
REMARK INTER + INTRA:         -11.868
REMARK INTER:                 -10.967
REMARK INTRA:                  -0.901
REMARK UNBOUND:                -1.082
REMARK  Name = 
REMARK  7 active torsions:
REMARK  status: ('A' for Active; 'I' for Inactive)
REMARK    1  A    between atoms: C_2  and  C_4
REMARK    2  A    between atoms: C_7  and  N_8
REMARK    3  A    between atoms: N_8  and  C_9
REMARK    4  A    between atoms: C_9  and  C_10
REMARK    5  A    between atoms: C_10  and  C_11
REMARK    6  A    between atoms: C_15  and  C_16
REMARK    7  A    between atoms: C_16  and  C_19
REMARK                            x       y       z     vdW  Elec       q    Type
REMARK                         _______ _______ _______ _____ _____    ______ ____
ROOT
ATOM      1  C   UNL     1      43.439   4.264  11.490  0.00  0.00    +0.000 C 
ENDROOT
BRANCH   1   2
ATOM      2  N   UNL     1      43.778   4.667  10.121  0.00  0.00    +0.000 N 
ATOM      3  H   UNL     1      43.938   5.670  10.033  0.00  0.00    +0.000 HD
BRANCH   2   7
ATOM      4  C   UNL     1      46.503   2.562   7.780  0.00  0.00    +0.000 A 
ATOM      5  C   UNL     1      45.712   1.838   8.658  0.00  0.00    +0.000 A 
ATOM      6  C   UNL     1      44.815   2.530   9.472  0.00  0.00    +0.000 A 
ATOM      7  C   UNL     1      44.732   3.923   9.415  0.00  0.00    +0.000 A 
ATOM      8  C   UNL     1      45.564   4.544   8.473  0.00  0.00    +0.000 A 
ATOM      9  N   UNL     1      46.460   3.916   7.669  0.00  0.00    +0.000 NA
BRANCH   4  11
ATOM     10  N   UNL     1      48.520   2.553   6.430  0.00  0.00    +0.000 N 
ATOM     11  C   UNL     1      47.444   1.835   6.873  0.00  0.00    +0.000 C 
ATOM     12  O   UNL     1      47.272   0.666   6.538  0.00  0.00    +0.000 OA
ATOM     13  H   UNL     1      49.190   2.114   5.815  0.00  0.00    +0.000 HD
ATOM     14  H   UNL     1      48.650   3.508   6.745  0.00  0.00    +0.000 HD
ENDBRANCH   4  11
ENDBRANCH   2   7
ENDBRANCH   1   2
BRANCH   1  15
ATOM     15  C   UNL     1      43.725   5.418  12.456  0.00  0.00    +0.000 C 
BRANCH  15  16
ATOM     16  C   UNL     1      45.170   5.480  12.889  0.00  0.00    +0.000 A 
ATOM     17  C   UNL     1      46.094   6.243  12.166  0.00  0.00    +0.000 A 
ATOM     18  C   UNL     1      47.423   6.320  12.583  0.00  0.00    +0.000 A 
ATOM     19  C   UNL     1      47.840   5.641  13.728  0.00  0.00    +0.000 A 
ATOM     20  C   UNL     1      46.935   4.862  14.465  0.00  0.00    +0.000 A 
ATOM     21  C   UNL     1      45.605   4.775  14.021  0.00  0.00    +0.000 A 
BRANCH  20  22
ATOM     22  C   UNL     1      47.378   4.134  15.720  0.00  0.00    +0.000 C 
ATOM     23  F   UNL     1      46.348   3.967  16.602  0.00  0.00    +0.000 F 
ATOM     24  F   UNL     1      47.836   2.878  15.461  0.00  0.00    +0.000 F 
BRANCH  22  25
ATOM     25  C   UNL     1      48.451   4.917  16.445  0.00  0.00    +0.000 C 
ATOM     26  C   UNL     1      49.427   4.148  17.336  0.00  0.00    +0.000 C 
ATOM     27  O   UNL     1      49.048   4.916  18.499  0.00  0.00    +0.000 OA
ATOM     28  C   UNL     1      48.006   5.584  17.751  0.00  0.00    +0.000 C 
ENDBRANCH  22  25
ENDBRANCH  20  22
ENDBRANCH  15  16
ENDBRANCH   1  15
TORSDOF 7
ENDMDL
MODEL 3
REMARK VINA RESULT:    -7.083      2.921      3.595
REMARK INTER + INTRA:         -11.063
REMARK INTER:                 -10.389
REMARK INTRA:                  -0.674
REMARK UNBOUND:                -1.082
REMARK  Name = 
REMARK  7 active torsions:
REMARK  status: ('A' for Active; 'I' for Inactive)
REMARK    1  A    between atoms: C_2  and  C_4
REMARK    2  A    between atoms: C_7  and  N_8
REMARK    3  A    between atoms: N_8  and  C_9
REMARK    4  A    between atoms: C_9  and  C_10
REMARK    5  A    between atoms: C_10  and  C_11
REMARK    6  A    between atoms: C_15  and  C_16
REMARK    7  A    between atoms: C_16  and  C_19
REMARK                            x       y       z     vdW  Elec       q    Type
REMARK                         _______ _______ _______ _____ _____    ______ ____
ROOT
ATOM      1  C   UNL     1      43.894   4.956  11.369  0.00  0.00    +0.000 C 
ENDROOT
BRANCH   1   2
ATOM      2  N   UNL     1      43.612   3.860  10.436  0.00  0.00    +0.000 N 
ATOM      3  H   UNL     1      42.707   3.955   9.978  0.00  0.00    +0.000 HD
BRANCH   2   7
ATOM      4  C   UNL     1      46.421   2.782   7.557  0.00  0.00    +0.000 A 
ATOM      5  C   UNL     1      45.943   1.788   8.396  0.00  0.00    +0.000 A 
ATOM      6  C   UNL     1      45.025   2.137   9.386  0.00  0.00    +0.000 A 
ATOM      7  C   UNL     1      44.612   3.463   9.539  0.00  0.00    +0.000 A 
ATOM      8  C   UNL     1      45.143   4.376   8.617  0.00  0.00    +0.000 A 
ATOM      9  N   UNL     1      46.048   4.087   7.646  0.00  0.00    +0.000 NA
BRANCH   4  11
ATOM     10  N   UNL     1      47.270   3.151   5.314  0.00  0.00    +0.000 N 
ATOM     11  C   UNL     1      47.377   2.421   6.465  0.00  0.00    +0.000 C 
ATOM     12  O   UNL     1      48.210   1.527   6.582  0.00  0.00    +0.000 OA
ATOM     13  H   UNL     1      47.891   2.953   4.542  0.00  0.00    +0.000 HD
ATOM     14  H   UNL     1      46.592   3.902   5.256  0.00  0.00    +0.000 HD
ENDBRANCH   4  11
ENDBRANCH   2   7
ENDBRANCH   1   2
BRANCH   1  15
ATOM     15  C   UNL     1      45.380   4.951  11.741  0.00  0.00    +0.000 C 
BRANCH  15  16
ATOM     16  C   UNL     1      45.948   6.339  11.915  0.00  0.00    +0.000 A 
ATOM     17  C   UNL     1      47.277   6.517  12.317  0.00  0.00    +0.000 A 
ATOM     18  C   UNL     1      47.807   7.800  12.451  0.00  0.00    +0.000 A 
ATOM     19  C   UNL     1      47.017   8.917  12.180  0.00  0.00    +0.000 A 
ATOM     20  C   UNL     1      45.680   8.767  11.784  0.00  0.00    +0.000 A 
ATOM     21  C   UNL     1      45.152   7.469  11.675  0.00  0.00    +0.000 A 
BRANCH  20  22
ATOM     22  C   UNL     1      44.820   9.977  11.472  0.00  0.00    +0.000 C 
ATOM     23  F   UNL     1      44.068  10.358  12.548  0.00  0.00    +0.000 F 
ATOM     24  F   UNL     1      45.558  11.073  11.144  0.00  0.00    +0.000 F 
BRANCH  22  25
ATOM     25  C   UNL     1      43.852   9.674  10.348  0.00  0.00    +0.000 C 
ATOM     26  C   UNL     1      43.644  10.737   9.270  0.00  0.00    +0.000 C 
ATOM     27  O   UNL     1      42.227  10.810   9.546  0.00  0.00    +0.000 OA
ATOM     28  C   UNL     1      42.374   9.916  10.673  0.00  0.00    +0.000 C 
ENDBRANCH  22  25
ENDBRANCH  20  22
ENDBRANCH  15  16
ENDBRANCH   1  15
TORSDOF 7
ENDMDL
MODEL 4
REMARK VINA RESULT:    -7.066      4.336      7.263
REMARK INTER + INTRA:         -11.039
REMARK INTER:                 -10.256
REMARK INTRA:                  -0.783
REMARK UNBOUND:                -1.082
REMARK  Name = 
REMARK  7 active torsions:
REMARK  status: ('A' for Active; 'I' for Inactive)
REMARK    1  A    between atoms: C_2  and  C_4
REMARK    2  A    between atoms: C_7  and  N_8
REMARK    3  A    between atoms: N_8  and  C_9
REMARK    4  A    between atoms: C_9  and  C_10
REMARK    5  A    between atoms: C_10  and  C_11
REMARK    6  A    between atoms: C_15  and  C_16
REMARK    7  A    between atoms: C_16  and  C_19
REMARK                            x       y       z     vdW  Elec       q    Type
REMARK                         _______ _______ _______ _____ _____    ______ ____
ROOT
ATOM      1  C   UNL     1      47.279   6.694  11.818  0.00  0.00    +0.000 C 
ENDROOT
BRANCH   1   2
ATOM      2  N   UNL     1      47.421   7.125  13.212  0.00  0.00    +0.000 N 
ATOM      3  H   UNL     1      46.724   7.816  13.485  0.00  0.00    +0.000 HD
BRANCH   2   7
ATOM      4  C   UNL     1      47.689   4.245  16.208  0.00  0.00    +0.000 A 
ATOM      5  C   UNL     1      48.465   5.386  16.338  0.00  0.00    +0.000 A 
ATOM      6  C   UNL     1      48.411   6.347  15.329  0.00  0.00    +0.000 A 
ATOM      7  C   UNL     1      47.607   6.153  14.204  0.00  0.00    +0.000 A 
ATOM      8  C   UNL     1      46.848   4.974  14.194  0.00  0.00    +0.000 A 
ATOM      9  N   UNL     1      46.877   4.004  15.145  0.00  0.00    +0.000 NA
BRANCH   4  11
ATOM     10  N   UNL     1      48.927   2.961  17.853  0.00  0.00    +0.000 N 
ATOM     11  C   UNL     1      47.705   3.220  17.297  0.00  0.00    +0.000 C 
ATOM     12  O   UNL     1      46.692   2.641  17.677  0.00  0.00    +0.000 OA
ATOM     13  H   UNL     1      48.999   2.279  18.594  0.00  0.00    +0.000 HD
ATOM     14  H   UNL     1      49.742   3.475  17.538  0.00  0.00    +0.000 HD
ENDBRANCH   4  11
ENDBRANCH   2   7
ENDBRANCH   1   2
BRANCH   1  15
ATOM     15  C   UNL     1      45.844   6.941  11.342  0.00  0.00    +0.000 C 
BRANCH  15  16
ATOM     16  C   UNL     1      45.056   5.666  11.163  0.00  0.00    +0.000 A 
ATOM     17  C   UNL     1      44.080   5.299  12.096  0.00  0.00    +0.000 A 
ATOM     18  C   UNL     1      43.334   4.134  11.914  0.00  0.00    +0.000 A 
ATOM     19  C   UNL     1      43.552   3.328  10.797  0.00  0.00    +0.000 A 
ATOM     20  C   UNL     1      44.530   3.670   9.850  0.00  0.00    +0.000 A 
ATOM     21  C   UNL     1      45.290   4.833  10.058  0.00  0.00    +0.000 A 
BRANCH  20  22
ATOM     22  C   UNL     1      44.761   2.807   8.625  0.00  0.00    +0.000 C 
ATOM     23  F   UNL     1      44.333   1.524   8.818  0.00  0.00    +0.000 F 
ATOM     24  F   UNL     1      44.078   3.253   7.535  0.00  0.00    +0.000 F 
BRANCH  22  25
ATOM     25  C   UNL     1      46.236   2.730   8.292  0.00  0.00    +0.000 C 
ATOM     26  C   UNL     1      46.706   3.317   6.961  0.00  0.00    +0.000 C 
ATOM     27  O   UNL     1      47.248   2.047   6.535  0.00  0.00    +0.000 OA
ATOM     28  C   UNL     1      46.707   1.394   7.707  0.00  0.00    +0.000 C 
ENDBRANCH  22  25
ENDBRANCH  20  22
ENDBRANCH  15  16
ENDBRANCH   1  15
TORSDOF 7
ENDMDL
MODEL 5
REMARK VINA RESULT:    -7.042      1.742      2.395
REMARK INTER + INTRA:         -11.006
REMARK INTER:                 -10.065
REMARK INTRA:                  -0.941
REMARK UNBOUND:                -1.082
REMARK  Name = 
REMARK  7 active torsions:
REMARK  status: ('A' for Active; 'I' for Inactive)
REMARK    1  A    between atoms: C_2  and  C_4
REMARK    2  A    between atoms: C_7  and  N_8
REMARK    3  A    between atoms: N_8  and  C_9
REMARK    4  A    between atoms: C_9  and  C_10
REMARK    5  A    between atoms: C_10  and  C_11
REMARK    6  A    between atoms: C_15  and  C_16
REMARK    7  A    between atoms: C_16  and  C_19
REMARK                            x       y       z     vdW  Elec       q    Type
REMARK                         _______ _______ _______ _____ _____    ______ ____
ROOT
ATOM      1  C   UNL     1      43.667   4.581  11.178  0.00  0.00    +0.000 C 
ENDROOT
BRANCH   1   2
ATOM      2  N   UNL     1      43.661   3.282  10.497  0.00  0.00    +0.000 N 
ATOM      3  H   UNL     1      42.720   2.949  10.291  0.00  0.00    +0.000 HD
BRANCH   2   7
ATOM      4  C   UNL     1      46.450   2.592   7.482  0.00  0.00    +0.000 A 
ATOM      5  C   UNL     1      45.915   3.866   7.587  0.00  0.00    +0.000 A 
ATOM      6  C   UNL     1      44.957   4.107   8.571  0.00  0.00    +0.000 A 
ATOM      7  C   UNL     1      44.533   3.081   9.419  0.00  0.00    +0.000 A 
ATOM      8  C   UNL     1      45.163   1.841   9.236  0.00  0.00    +0.000 A 
ATOM      9  N   UNL     1      46.089   1.555   8.285  0.00  0.00    +0.000 NA
BRANCH   4  11
ATOM     10  N   UNL     1      47.477   3.123   5.349  0.00  0.00    +0.000 N 
ATOM     11  C   UNL     1      47.506   2.323   6.458  0.00  0.00    +0.000 C 
ATOM     12  O   UNL     1      48.350   1.442   6.592  0.00  0.00    +0.000 OA
ATOM     13  H   UNL     1      48.167   2.988   4.623  0.00  0.00    +0.000 HD
ATOM     14  H   UNL     1      46.785   3.860   5.279  0.00  0.00    +0.000 HD
ENDBRANCH   4  11
ENDBRANCH   2   7
ENDBRANCH   1   2
BRANCH   1  15
ATOM     15  C   UNL     1      44.936   4.717  12.025  0.00  0.00    +0.000 C 
BRANCH  15  16
ATOM     16  C   UNL     1      45.512   6.111  12.002  0.00  0.00    +0.000 A 
ATOM     17  C   UNL     1      44.673   7.224  11.873  0.00  0.00    +0.000 A 
ATOM     18  C   UNL     1      45.207   8.513  11.880  0.00  0.00    +0.000 A 
ATOM     19  C   UNL     1      46.581   8.703  12.020  0.00  0.00    +0.000 A 
ATOM     20  C   UNL     1      47.445   7.604  12.144  0.00  0.00    +0.000 A 
ATOM     21  C   UNL     1      46.897   6.311  12.113  0.00  0.00    +0.000 A 
BRANCH  20  22
ATOM     22  C   UNL     1      48.939   7.804  12.313  0.00  0.00    +0.000 C 
ATOM     23  F   UNL     1      49.615   6.617  12.312  0.00  0.00    +0.000 F 
ATOM     24  F   UNL     1      49.488   8.531  11.301  0.00  0.00    +0.000 F 
BRANCH  22  25
ATOM     25  C   UNL     1      49.244   8.479  13.634  0.00  0.00    +0.000 C 
ATOM     26  C   UNL     1      49.906   9.856  13.603  0.00  0.00    +0.000 C 
ATOM     27  O   UNL     1      51.037   9.385  14.369  0.00  0.00    +0.000 OA
ATOM     28  C   UNL     1      50.540   8.028  14.316  0.00  0.00    +0.000 C 
ENDBRANCH  22  25
ENDBRANCH  20  22
ENDBRANCH  15  16
ENDBRANCH   1  15
TORSDOF 7
ENDMDL
MODEL 6
REMARK VINA RESULT:    -6.691      5.090      7.981
REMARK INTER + INTRA:         -10.511
REMARK INTER:                  -9.821
REMARK INTRA:                  -0.690
REMARK UNBOUND:                -1.082
REMARK  Name = 
REMARK  7 active torsions:
REMARK  status: ('A' for Active; 'I' for Inactive)
REMARK    1  A    between atoms: C_2  and  C_4
REMARK    2  A    between atoms: C_7  and  N_8
REMARK    3  A    between atoms: N_8  and  C_9
REMARK    4  A    between atoms: C_9  and  C_10
REMARK    5  A    between atoms: C_10  and  C_11
REMARK    6  A    between atoms: C_15  and  C_16
REMARK    7  A    between atoms: C_16  and  C_19
REMARK                            x       y       z     vdW  Elec       q    Type
REMARK                         _______ _______ _______ _____ _____    ______ ____
ROOT
ATOM      1  C   UNL     1      46.635   4.792  14.390  0.00  0.00    +0.000 C 
ENDROOT
BRANCH   1   2
ATOM      2  N   UNL     1      46.639   4.392  15.800  0.00  0.00    +0.000 N 
ATOM      3  H   UNL     1      45.847   3.800  16.045  0.00  0.00    +0.000 HD
BRANCH   2   7
ATOM      4  C   UNL     1      50.330   3.163  17.287  0.00  0.00    +0.000 A 
ATOM      5  C   UNL     1      49.435   2.182  16.890  0.00  0.00    +0.000 A 
ATOM      6  C   UNL     1      48.183   2.575  16.418  0.00  0.00    +0.000 A 
ATOM      7  C   UNL     1      47.833   3.926  16.366  0.00  0.00    +0.000 A 
ATOM      8  C   UNL     1      48.828   4.828  16.770  0.00  0.00    +0.000 A 
ATOM      9  N   UNL     1      50.054   4.494  17.249  0.00  0.00    +0.000 NA
BRANCH   4  11
ATOM     10  N   UNL     1      51.831   1.458  18.141  0.00  0.00    +0.000 N 
ATOM     11  C   UNL     1      51.692   2.764  17.761  0.00  0.00    +0.000 C 
ATOM     12  O   UNL     1      52.633   3.550  17.810  0.00  0.00    +0.000 OA
ATOM     13  H   UNL     1      52.728   1.130  18.468  0.00  0.00    +0.000 HD
ATOM     14  H   UNL     1      51.043   0.825  18.062  0.00  0.00    +0.000 HD
ENDBRANCH   4  11
ENDBRANCH   2   7
ENDBRANCH   1   2
BRANCH   1  15
ATOM     15  C   UNL     1      46.361   3.572  13.505  0.00  0.00    +0.000 C 
BRANCH  15  16
ATOM     16  C   UNL     1      45.431   3.875  12.355  0.00  0.00    +0.000 A 
ATOM     17  C   UNL     1      44.461   4.877  12.472  0.00  0.00    +0.000 A 
ATOM     18  C   UNL     1      43.621   5.173  11.398  0.00  0.00    +0.000 A 
ATOM     19  C   UNL     1      43.745   4.475  10.197  0.00  0.00    +0.000 A 
ATOM     20  C   UNL     1      44.705   3.461  10.056  0.00  0.00    +0.000 A 
ATOM     21  C   UNL     1      45.529   3.158  11.153  0.00  0.00    +0.000 A 
BRANCH  20  22
ATOM     22  C   UNL     1      44.856   2.710   8.747  0.00  0.00    +0.000 C 
ATOM     23  F   UNL     1      44.459   1.407   8.859  0.00  0.00    +0.000 F 
ATOM     24  F   UNL     1      44.091   3.235   7.751  0.00  0.00    +0.000 F 
BRANCH  22  25
ATOM     25  C   UNL     1      46.304   2.688   8.305  0.00  0.00    +0.000 C 
ATOM     26  C   UNL     1      46.702   3.541   7.100  0.00  0.00    +0.000 C 
ATOM     27  O   UNL     1      47.181   2.385   6.378  0.00  0.00    +0.000 OA
ATOM     28  C   UNL     1      46.700   1.503   7.418  0.00  0.00    +0.000 C 
ENDBRANCH  22  25
ENDBRANCH  20  22
ENDBRANCH  15  16
ENDBRANCH   1  15
TORSDOF 7
ENDMDL
MODEL 7
REMARK VINA RESULT:    -6.638      4.660      7.331
REMARK INTER + INTRA:         -10.437
REMARK INTER:                  -9.082
REMARK INTRA:                  -1.354
REMARK UNBOUND:                -1.082
REMARK  Name = 
REMARK  7 active torsions:
REMARK  status: ('A' for Active; 'I' for Inactive)
REMARK    1  A    between atoms: C_2  and  C_4
REMARK    2  A    between atoms: C_7  and  N_8
REMARK    3  A    between atoms: N_8  and  C_9
REMARK    4  A    between atoms: C_9  and  C_10
REMARK    5  A    between atoms: C_10  and  C_11
REMARK    6  A    between atoms: C_15  and  C_16
REMARK    7  A    between atoms: C_16  and  C_19
REMARK                            x       y       z     vdW  Elec       q    Type
REMARK                         _______ _______ _______ _____ _____    ______ ____
ROOT
ATOM      1  C   UNL     1      49.757   7.379  12.920  0.00  0.00    +0.000 C 
ENDROOT
BRANCH   1   2
ATOM      2  N   UNL     1      49.400   7.717  14.302  0.00  0.00    +0.000 N 
ATOM      3  H   UNL     1      48.918   8.612  14.378  0.00  0.00    +0.000 HD
BRANCH   2   7
ATOM      4  C   UNL     1      47.892   4.685  16.726  0.00  0.00    +0.000 A 
ATOM      5  C   UNL     1      47.361   4.818  15.453  0.00  0.00    +0.000 A 
ATOM      6  C   UNL     1      47.832   5.847  14.639  0.00  0.00    +0.000 A 
ATOM      7  C   UNL     1      48.804   6.735  15.105  0.00  0.00    +0.000 A 
ATOM      8  C   UNL     1      49.285   6.487  16.398  0.00  0.00    +0.000 A 
ATOM      9  N   UNL     1      48.849   5.508  17.233  0.00  0.00    +0.000 NA
BRANCH   4  11
ATOM     10  N   UNL     1      48.176   3.332  18.720  0.00  0.00    +0.000 N 
ATOM     11  C   UNL     1      47.426   3.565  17.601  0.00  0.00    +0.000 C 
ATOM     12  O   UNL     1      46.436   2.889  17.340  0.00  0.00    +0.000 OA
ATOM     13  H   UNL     1      47.909   2.588  19.350  0.00  0.00    +0.000 HD
ATOM     14  H   UNL     1      48.973   3.925  18.924  0.00  0.00    +0.000 HD
ENDBRANCH   4  11
ENDBRANCH   2   7
ENDBRANCH   1   2
BRANCH   1  15
ATOM     15  C   UNL     1      49.099   8.372  11.957  0.00  0.00    +0.000 C 
BRANCH  15  16
ATOM     16  C   UNL     1      47.592   8.286  11.960  0.00  0.00    +0.000 A 
ATOM     17  C   UNL     1      46.817   9.418  12.235  0.00  0.00    +0.000 A 
ATOM     18  C   UNL     1      45.424   9.342  12.211  0.00  0.00    +0.000 A 
ATOM     19  C   UNL     1      44.793   8.136  11.908  0.00  0.00    +0.000 A 
ATOM     20  C   UNL     1      45.546   6.983  11.636  0.00  0.00    +0.000 A 
ATOM     21  C   UNL     1      46.948   7.069  11.686  0.00  0.00    +0.000 A 
BRANCH  20  22
ATOM     22  C   UNL     1      44.866   5.673  11.290  0.00  0.00    +0.000 C 
ATOM     23  F   UNL     1      43.568   5.859  10.905  0.00  0.00    +0.000 F 
ATOM     24  F   UNL     1      45.462   5.035  10.245  0.00  0.00    +0.000 F 
BRANCH  22  25
ATOM     25  C   UNL     1      44.839   4.748  12.488  0.00  0.00    +0.000 C 
ATOM     26  C   UNL     1      45.049   3.253  12.250  0.00  0.00    +0.000 C 
ATOM     27  O   UNL     1      43.770   2.929  12.836  0.00  0.00    +0.000 OA
ATOM     28  C   UNL     1      43.442   4.332  12.962  0.00  0.00    +0.000 C 
ENDBRANCH  22  25
ENDBRANCH  20  22
ENDBRANCH  15  16
ENDBRANCH   1  15
TORSDOF 7
ENDMDL
MODEL 8
REMARK VINA RESULT:    -6.403      5.463      7.835
REMARK INTER + INTRA:         -10.106
REMARK INTER:                  -9.324
REMARK INTRA:                  -0.782
REMARK UNBOUND:                -1.082
REMARK  Name = 
REMARK  7 active torsions:
REMARK  status: ('A' for Active; 'I' for Inactive)
REMARK    1  A    between atoms: C_2  and  C_4
REMARK    2  A    between atoms: C_7  and  N_8
REMARK    3  A    between atoms: N_8  and  C_9
REMARK    4  A    between atoms: C_9  and  C_10
REMARK    5  A    between atoms: C_10  and  C_11
REMARK    6  A    between atoms: C_15  and  C_16
REMARK    7  A    between atoms: C_16  and  C_19
REMARK                            x       y       z     vdW  Elec       q    Type
REMARK                         _______ _______ _______ _____ _____    ______ ____
ROOT
ATOM      1  C   UNL     1      47.088   4.273  15.531  0.00  0.00    +0.000 C 
ENDROOT
BRANCH   1   2
ATOM      2  N   UNL     1      47.483   3.798  16.861  0.00  0.00    +0.000 N 
ATOM      3  H   UNL     1      46.795   3.173  17.277  0.00  0.00    +0.000 HD
BRANCH   2   7
ATOM      4  C   UNL     1      51.260   2.175  17.521  0.00  0.00    +0.000 A 
ATOM      5  C   UNL     1      50.954   3.372  18.148  0.00  0.00    +0.000 A 
ATOM      6  C   UNL     1      49.705   3.946  17.914  0.00  0.00    +0.000 A 
ATOM      7  C   UNL     1      48.792   3.335  17.051  0.00  0.00    +0.000 A 
ATOM      8  C   UNL     1      49.202   2.116  16.494  0.00  0.00    +0.000 A 
ATOM      9  N   UNL     1      50.411   1.525  16.681  0.00  0.00    +0.000 NA
BRANCH   4  11
ATOM     10  N   UNL     1      53.255   1.978  18.889  0.00  0.00    +0.000 N 
ATOM     11  C   UNL     1      52.581   1.525  17.789  0.00  0.00    +0.000 C 
ATOM     12  O   UNL     1      53.041   0.640  17.074  0.00  0.00    +0.000 OA
ATOM     13  H   UNL     1      54.152   1.575  19.120  0.00  0.00    +0.000 HD
ATOM     14  H   UNL     1      52.837   2.690  19.476  0.00  0.00    +0.000 HD
ENDBRANCH   4  11
ENDBRANCH   2   7
ENDBRANCH   1   2
BRANCH   1  15
ATOM     15  C   UNL     1      47.874   5.538  15.175  0.00  0.00    +0.000 C 
BRANCH  15  16
ATOM     16  C   UNL     1      47.581   6.043  13.783  0.00  0.00    +0.000 A 
ATOM     17  C   UNL     1      48.373   7.045  13.210  0.00  0.00    +0.000 A 
ATOM     18  C   UNL     1      48.116   7.491  11.914  0.00  0.00    +0.000 A 
ATOM     19  C   UNL     1      47.069   6.937  11.176  0.00  0.00    +0.000 A 
ATOM     20  C   UNL     1      46.255   5.937  11.730  0.00  0.00    +0.000 A 
ATOM     21  C   UNL     1      46.511   5.514  13.045  0.00  0.00    +0.000 A 
BRANCH  20  22
ATOM     22  C   UNL     1      45.127   5.319  10.927  0.00  0.00    +0.000 C 
ATOM     23  F   UNL     1      43.974   6.047  11.027  0.00  0.00    +0.000 F 
ATOM     24  F   UNL     1      45.402   5.264   9.595  0.00  0.00    +0.000 F 
BRANCH  22  25
ATOM     25  C   UNL     1      44.809   3.927  11.430  0.00  0.00    +0.000 C 
ATOM     26  C   UNL     1      44.230   2.918  10.439  0.00  0.00    +0.000 C 
ATOM     27  O   UNL     1      43.045   2.733  11.243  0.00  0.00    +0.000 OA
ATOM     28  C   UNL     1      43.464   3.781  12.148  0.00  0.00    +0.000 C 
ENDBRANCH  22  25
ENDBRANCH  20  22
ENDBRANCH  15  16
ENDBRANCH   1  15
TORSDOF 7
ENDMDL
MODEL 9
REMARK VINA RESULT:    -6.310      4.201      7.324
REMARK INTER + INTRA:          -9.973
REMARK INTER:                  -9.171
REMARK INTRA:                  -0.803
REMARK UNBOUND:                -1.082
REMARK  Name = 
REMARK  7 active torsions:
REMARK  status: ('A' for Active; 'I' for Inactive)
REMARK    1  A    between atoms: C_2  and  C_4
REMARK    2  A    between atoms: C_7  and  N_8
REMARK    3  A    between atoms: N_8  and  C_9
REMARK    4  A    between atoms: C_9  and  C_10
REMARK    5  A    between atoms: C_10  and  C_11
REMARK    6  A    between atoms: C_15  and  C_16
REMARK    7  A    between atoms: C_16  and  C_19
REMARK                            x       y       z     vdW  Elec       q    Type
REMARK                         _______ _______ _______ _____ _____    ______ ____
ROOT
ATOM      1  C   UNL     1      47.808   6.838  12.355  0.00  0.00    +0.000 C 
ENDROOT
BRANCH   1   2
ATOM      2  N   UNL     1      48.167   7.272  13.709  0.00  0.00    +0.000 N 
ATOM      3  H   UNL     1      47.669   8.112  13.999  0.00  0.00    +0.000 HD
BRANCH   2   7
ATOM      4  C   UNL     1      48.036   4.435  16.754  0.00  0.00    +0.000 A 
ATOM      5  C   UNL     1      48.752   5.599  16.987  0.00  0.00    +0.000 A 
ATOM      6  C   UNL     1      48.832   6.546  15.967  0.00  0.00    +0.000 A 
ATOM      7  C   UNL     1      48.220   6.317  14.733  0.00  0.00    +0.000 A 
ATOM      8  C   UNL     1      47.504   5.116  14.622  0.00  0.00    +0.000 A 
ATOM      9  N   UNL     1      47.409   4.159  15.581  0.00  0.00    +0.000 NA
BRANCH   4  11
ATOM     10  N   UNL     1      46.814   2.606  17.780  0.00  0.00    +0.000 N 
ATOM     11  C   UNL     1      47.908   3.423  17.849  0.00  0.00    +0.000 C 
ATOM     12  O   UNL     1      48.726   3.323  18.758  0.00  0.00    +0.000 OA
ATOM     13  H   UNL     1      46.675   1.903  18.491  0.00  0.00    +0.000 HD
ATOM     14  H   UNL     1      46.170   2.694  17.002  0.00  0.00    +0.000 HD
ENDBRANCH   4  11
ENDBRANCH   2   7
ENDBRANCH   1   2
BRANCH   1  15
ATOM     15  C   UNL     1      46.638   7.678  11.834  0.00  0.00    +0.000 C 
BRANCH  15  16
ATOM     16  C   UNL     1      45.394   6.862  11.577  0.00  0.00    +0.000 A 
ATOM     17  C   UNL     1      44.139   7.478  11.531  0.00  0.00    +0.000 A 
ATOM     18  C   UNL     1      42.994   6.726  11.266  0.00  0.00    +0.000 A 
ATOM     19  C   UNL     1      43.094   5.353  11.041  0.00  0.00    +0.000 A 
ATOM     20  C   UNL     1      44.339   4.709  11.090  0.00  0.00    +0.000 A 
ATOM     21  C   UNL     1      45.481   5.476  11.379  0.00  0.00    +0.000 A 
BRANCH  20  22
ATOM     22  C   UNL     1      44.457   3.220  10.830  0.00  0.00    +0.000 C 
ATOM     23  F   UNL     1      45.626   2.709  11.318  0.00  0.00    +0.000 F 
ATOM     24  F   UNL     1      43.471   2.504  11.437  0.00  0.00    +0.000 F 
BRANCH  22  25
ATOM     25  C   UNL     1      44.441   2.931   9.344  0.00  0.00    +0.000 C 
ATOM     26  C   UNL     1      45.326   1.800   8.820  0.00  0.00    +0.000 C 
ATOM     27  O   UNL     1      46.037   2.698   7.939  0.00  0.00    +0.000 OA
ATOM     28  C   UNL     1      45.335   3.836   8.491  0.00  0.00    +0.000 C 
ENDBRANCH  22  25
ENDBRANCH  20  22
ENDBRANCH  15  16
ENDBRANCH   1  15
TORSDOF 7
ENDMDL
