MODEL 1
REMARK VINA RESULT:    -8.083      0.000      0.000
REMARK INTER + INTRA:         -10.867
REMARK INTER:                 -10.209
REMARK INTRA:                  -0.658
REMARK UNBOUND:                -0.658
REMARK  Name = 
REMARK  6 active torsions:
REMARK  status: ('A' for Active; 'I' for Inactive)
REMARK    1  A    between atoms: C_1  and  O_2
REMARK    2  A    between atoms: O_2  and  C_3
REMARK    3  A    between atoms: N_9  and  C_10
REMARK    4  A    between atoms: C_10  and  C_11
REMARK    5  A    between atoms: C_14  and  C_15
REMARK    6  A    between atoms: C_15  and  N_16
REMARK                            x       y       z     vdW  Elec       q    Type
REMARK                         _______ _______ _______ _____ _____    ______ ____
ROOT
ATOM      1  C   UNL     1      43.974   3.467  10.596  0.00  0.00    +0.000 C 
ENDROOT
BRANCH   1   8
ATOM      2  C   UNL     1      45.058   7.730  11.817  0.00  0.00    +0.000 A 
ATOM      3  C   UNL     1      46.073   7.685  12.766  0.00  0.00    +0.000 A 
ATOM      4  N   UNL     1      46.605   6.565  13.307  0.00  0.00    +0.000 NA
ATOM      5  C   UNL     1      46.065   5.407  12.857  0.00  0.00    +0.000 A 
ATOM      6  C   UNL     1      46.408   4.084  13.213  0.00  0.00    +0.000 A 
ATOM      7  C   UNL     1      45.606   3.239  12.478  0.00  0.00    +0.000 A 
ATOM      8  N   UNL     1      44.790   4.010  11.678  0.00  0.00    +0.000 N 
ATOM      9  C   UNL     1      45.041   5.349  11.908  0.00  0.00    +0.000 A 
ATOM     10  C   UNL     1      44.503   6.529  11.378  0.00  0.00    +0.000 A 
BRANCH   2  12
ATOM     11  C   UNL     1      44.946  10.087  11.868  0.00  0.00    +0.000 C 
ATOM     12  O   UNL     1      44.515   8.864  11.278  0.00  0.00    +0.000 OA
ENDBRANCH   2  12
ENDBRANCH   1   8
BRANCH   1  13
ATOM     13  C   UNL     1      44.743   3.104   9.349  0.00  0.00    +0.000 A 
ATOM     14  C   UNL     1      45.206   4.086   8.462  0.00  0.00    +0.000 A 
ATOM     15  C   UNL     1      46.082   3.756   7.420  0.00  0.00    +0.000 A 
ATOM     16  C   UNL     1      46.515   2.435   7.237  0.00  0.00    +0.000 A 
ATOM     17  C   UNL     1      46.008   1.455   8.090  0.00  0.00    +0.000 A 
ATOM     18  F   UNL     1      46.392   0.177   7.949  0.00  0.00    +0.000 F 
ATOM     19  C   UNL     1      45.132   1.774   9.129  0.00  0.00    +0.000 A 
BRANCH  16  20
ATOM     20  C   UNL     1      47.568   2.100   6.217  0.00  0.00    +0.000 C 
BRANCH  20  21
ATOM     21  N   UNL     1      48.842   2.756   6.493  0.00  0.00    +0.000 NA
ATOM     22  H   UNL     1      49.294   2.970   5.603  0.00  0.00    +0.000 HD
ATOM     23  H   UNL     1      49.455   2.095   6.967  0.00  0.00    +0.000 HD
ENDBRANCH  20  21
ENDBRANCH  16  20
ENDBRANCH   1  13
TORSDOF 5
ENDMDL
MODEL 2
REMARK VINA RESULT:    -8.011      1.975      3.179
REMARK INTER + INTRA:         -10.776
REMARK INTER:                 -10.172
REMARK INTRA:                  -0.604
REMARK UNBOUND:                -0.658
REMARK  Name = 
REMARK  6 active torsions:
REMARK  status: ('A' for Active; 'I' for Inactive)
REMARK    1  A    between atoms: C_1  and  O_2
REMARK    2  A    between atoms: O_2  and  C_3
REMARK    3  A    between atoms: N_9  and  C_10
REMARK    4  A    between atoms: C_10  and  C_11
REMARK    5  A    between atoms: C_14  and  C_15
REMARK    6  A    between atoms: C_15  and  N_16
REMARK                            x       y       z     vdW  Elec       q    Type
REMARK                         _______ _______ _______ _____ _____    ______ ____
ROOT
ATOM      1  C   UNL     1      44.237   4.532  10.566  0.00  0.00    +0.000 C 
ENDROOT
BRANCH   1   8
ATOM      2  C   UNL     1      47.111   4.179  14.095  0.00  0.00    +0.000 A 
ATOM      3  C   UNL     1      47.456   5.454  14.528  0.00  0.00    +0.000 A 
ATOM      4  N   UNL     1      47.072   6.618  13.954  0.00  0.00    +0.000 NA
ATOM      5  C   UNL     1      46.287   6.478  12.858  0.00  0.00    +0.000 A 
ATOM      6  C   UNL     1      45.718   7.489  12.054  0.00  0.00    +0.000 A 
ATOM      7  C   UNL     1      44.978   6.866  11.073  0.00  0.00    +0.000 A 
ATOM      8  N   UNL     1      45.073   5.504  11.264  0.00  0.00    +0.000 N 
ATOM      9  C   UNL     1      45.890   5.241  12.346  0.00  0.00    +0.000 A 
ATOM     10  C   UNL     1      46.316   4.054  12.957  0.00  0.00    +0.000 A 
BRANCH   2  12
ATOM     11  C   UNL     1      47.876   3.091  16.045  0.00  0.00    +0.000 C 
ATOM     12  O   UNL     1      47.507   3.003  14.671  0.00  0.00    +0.000 OA
ENDBRANCH   2  12
ENDBRANCH   1   8
BRANCH   1  13
ATOM     13  C   UNL     1      44.913   3.836   9.410  0.00  0.00    +0.000 A 
ATOM     14  C   UNL     1      45.651   4.549   8.455  0.00  0.00    +0.000 A 
ATOM     15  C   UNL     1      46.432   3.878   7.506  0.00  0.00    +0.000 A 
ATOM     16  C   UNL     1      46.493   2.478   7.484  0.00  0.00    +0.000 A 
ATOM     17  C   UNL     1      45.713   1.775   8.402  0.00  0.00    +0.000 A 
ATOM     18  F   UNL     1      45.737   0.433   8.415  0.00  0.00    +0.000 F 
ATOM     19  C   UNL     1      44.929   2.434   9.351  0.00  0.00    +0.000 A 
BRANCH  16  20
ATOM     20  C   UNL     1      47.443   1.758   6.568  0.00  0.00    +0.000 C 
BRANCH  20  21
ATOM     21  N   UNL     1      48.666   2.515   6.324  0.00  0.00    +0.000 NA
ATOM     22  H   UNL     1      49.320   2.327   7.084  0.00  0.00    +0.000 HD
ATOM     23  H   UNL     1      48.452   3.509   6.377  0.00  0.00    +0.000 HD
ENDBRANCH  20  21
ENDBRANCH  16  20
ENDBRANCH   1  13
TORSDOF 5
ENDMDL
MODEL 3
REMARK VINA RESULT:    -7.785      1.616      1.867
REMARK INTER + INTRA:         -10.491
REMARK INTER:                  -9.913
REMARK INTRA:                  -0.579
REMARK UNBOUND:                -0.658
REMARK  Name = 
REMARK  6 active torsions:
REMARK  status: ('A' for Active; 'I' for Inactive)
REMARK    1  A    between atoms: C_1  and  O_2
REMARK    2  A    between atoms: O_2  and  C_3
REMARK    3  A    between atoms: N_9  and  C_10
REMARK    4  A    between atoms: C_10  and  C_11
REMARK    5  A    between atoms: C_14  and  C_15
REMARK    6  A    between atoms: C_15  and  N_16
REMARK                            x       y       z     vdW  Elec       q    Type
REMARK                         _______ _______ _______ _____ _____    ______ ____
ROOT
ATOM      1  C   UNL     1      44.428   4.694  10.170  0.00  0.00    +0.000 C 
ENDROOT
BRANCH   1   8
ATOM      2  C   UNL     1      47.725   7.096  12.217  0.00  0.00    +0.000 A 
ATOM      3  C   UNL     1      48.101   6.445  13.387  0.00  0.00    +0.000 A 
ATOM      4  N   UNL     1      47.532   5.324  13.888  0.00  0.00    +0.000 NA
ATOM      5  C   UNL     1      46.506   4.832  13.154  0.00  0.00    +0.000 A 
ATOM      6  C   UNL     1      45.726   3.681  13.401  0.00  0.00    +0.000 A 
ATOM      7  C   UNL     1      44.821   3.568  12.367  0.00  0.00    +0.000 A 
ATOM      8  N   UNL     1      45.035   4.613  11.495  0.00  0.00    +0.000 N 
ATOM      9  C   UNL     1      46.055   5.416  11.968  0.00  0.00    +0.000 A 
ATOM     10  C   UNL     1      46.657   6.584  11.483  0.00  0.00    +0.000 A 
BRANCH   2  12
ATOM     11  C   UNL     1      49.707   8.178  11.529  0.00  0.00    +0.000 C 
ATOM     12  O   UNL     1      48.295   8.234  11.716  0.00  0.00    +0.000 OA
ENDBRANCH   2  12
ENDBRANCH   1   8
BRANCH   1  13
ATOM     13  C   UNL     1      45.141   3.902   9.101  0.00  0.00    +0.000 A 
ATOM     14  C   UNL     1      45.987   4.522   8.170  0.00  0.00    +0.000 A 
ATOM     15  C   UNL     1      46.792   3.760   7.315  0.00  0.00    +0.000 A 
ATOM     16  C   UNL     1      46.770   2.359   7.365  0.00  0.00    +0.000 A 
ATOM     17  C   UNL     1      45.886   1.749   8.255  0.00  0.00    +0.000 A 
ATOM     18  F   UNL     1      45.829   0.411   8.334  0.00  0.00    +0.000 F 
ATOM     19  C   UNL     1      45.078   2.500   9.111  0.00  0.00    +0.000 A 
BRANCH  16  20
ATOM     20  C   UNL     1      47.737   1.540   6.556  0.00  0.00    +0.000 C 
BRANCH  20  21
ATOM     21  N   UNL     1      48.359   2.308   5.483  0.00  0.00    +0.000 NA
ATOM     22  H   UNL     1      47.655   2.495   4.769  0.00  0.00    +0.000 HD
ATOM     23  H   UNL     1      49.067   1.729   5.033  0.00  0.00    +0.000 HD
ENDBRANCH  20  21
ENDBRANCH  16  20
ENDBRANCH   1  13
TORSDOF 5
ENDMDL
MODEL 4
REMARK VINA RESULT:    -7.046      2.174      3.447
REMARK INTER + INTRA:          -9.558
REMARK INTER:                  -8.957
REMARK INTRA:                  -0.601
REMARK UNBOUND:                -0.658
REMARK  Name = 
REMARK  6 active torsions:
REMARK  status: ('A' for Active; 'I' for Inactive)
REMARK    1  A    between atoms: C_1  and  O_2
REMARK    2  A    between atoms: O_2  and  C_3
REMARK    3  A    between atoms: N_9  and  C_10
REMARK    4  A    between atoms: C_10  and  C_11
REMARK    5  A    between atoms: C_14  and  C_15
REMARK    6  A    between atoms: C_15  and  N_16
REMARK                            x       y       z     vdW  Elec       q    Type
REMARK                         _______ _______ _______ _____ _____    ______ ____
ROOT
ATOM      1  C   UNL     1      44.165   4.770  10.472  0.00  0.00    +0.000 C 
ENDROOT
BRANCH   1   8
ATOM      2  C   UNL     1      47.043   4.382  13.994  0.00  0.00    +0.000 A 
ATOM      3  C   UNL     1      47.290   5.646  14.518  0.00  0.00    +0.000 A 
ATOM      4  N   UNL     1      46.824   6.816  14.023  0.00  0.00    +0.000 NA
ATOM      5  C   UNL     1      46.057   6.695  12.913  0.00  0.00    +0.000 A 
ATOM      6  C   UNL     1      45.418   7.716  12.176  0.00  0.00    +0.000 A 
ATOM      7  C   UNL     1      44.729   7.111  11.147  0.00  0.00    +0.000 A 
ATOM      8  N   UNL     1      44.924   5.750  11.243  0.00  0.00    +0.000 N 
ATOM      9  C   UNL     1      45.754   5.471  12.312  0.00  0.00    +0.000 A 
ATOM     10  C   UNL     1      46.264   4.279  12.843  0.00  0.00    +0.000 A 
BRANCH   2  12
ATOM     11  C   UNL     1      47.756   3.181  15.896  0.00  0.00    +0.000 C 
ATOM     12  O   UNL     1      47.522   3.201  14.491  0.00  0.00    +0.000 OA
ENDBRANCH   2  12
ENDBRANCH   1   8
BRANCH   1  13
ATOM     13  C   UNL     1      45.000   3.900   9.564  0.00  0.00    +0.000 A 
ATOM     14  C   UNL     1      44.981   2.502   9.667  0.00  0.00    +0.000 A 
ATOM     15  C   UNL     1      45.602   1.703   8.699  0.00  0.00    +0.000 A 
ATOM     16  C   UNL     1      46.260   2.281   7.605  0.00  0.00    +0.000 A 
ATOM     17  C   UNL     1      46.322   3.673   7.538  0.00  0.00    +0.000 A 
ATOM     18  F   UNL     1      46.945   4.269   6.510  0.00  0.00    +0.000 F 
ATOM     19  C   UNL     1      45.709   4.478   8.499  0.00  0.00    +0.000 A 
BRANCH  16  20
ATOM     20  C   UNL     1      46.797   1.431   6.486  0.00  0.00    +0.000 C 
BRANCH  20  21
ATOM     21  N   UNL     1      48.255   1.466   6.410  0.00  0.00    +0.000 NA
ATOM     22  H   UNL     1      48.529   2.265   5.838  0.00  0.00    +0.000 HD
ATOM     23  H   UNL     1      48.576   0.639   5.909  0.00  0.00    +0.000 HD
ENDBRANCH  20  21
ENDBRANCH  16  20
ENDBRANCH   1  13
TORSDOF 5
ENDMDL
MODEL 5
REMARK VINA RESULT:    -6.943      1.921      2.736
REMARK INTER + INTRA:          -9.427
REMARK INTER:                  -8.952
REMARK INTRA:                  -0.475
REMARK UNBOUND:                -0.658
REMARK  Name = 
REMARK  6 active torsions:
REMARK  status: ('A' for Active; 'I' for Inactive)
REMARK    1  A    between atoms: C_1  and  O_2
REMARK    2  A    between atoms: O_2  and  C_3
REMARK    3  A    between atoms: N_9  and  C_10
REMARK    4  A    between atoms: C_10  and  C_11
REMARK    5  A    between atoms: C_14  and  C_15
REMARK    6  A    between atoms: C_15  and  N_16
REMARK                            x       y       z     vdW  Elec       q    Type
REMARK                         _______ _______ _______ _____ _____    ______ ____
ROOT
ATOM      1  C   UNL     1      44.624   4.320  11.253  0.00  0.00    +0.000 C 
ENDROOT
BRANCH   1   8
ATOM      2  C   UNL     1      47.743   6.722  13.563  0.00  0.00    +0.000 A 
ATOM      3  C   UNL     1      47.327   8.047  13.643  0.00  0.00    +0.000 A 
ATOM      4  N   UNL     1      46.219   8.567  13.064  0.00  0.00    +0.000 NA
ATOM      5  C   UNL     1      45.485   7.682  12.348  0.00  0.00    +0.000 A 
ATOM      6  C   UNL     1      44.281   7.909  11.646  0.00  0.00    +0.000 A 
ATOM      7  C   UNL     1      43.893   6.706  11.096  0.00  0.00    +0.000 A 
ATOM      8  N   UNL     1      44.822   5.752  11.453  0.00  0.00    +0.000 N 
ATOM      9  C   UNL     1      45.822   6.333  12.208  0.00  0.00    +0.000 A 
ATOM     10  C   UNL     1      46.983   5.829  12.809  0.00  0.00    +0.000 A 
BRANCH   2  12
ATOM     11  C   UNL     1      49.786   7.156  14.662  0.00  0.00    +0.000 C 
ATOM     12  O   UNL     1      48.867   6.200  14.141  0.00  0.00    +0.000 OA
ENDBRANCH   2  12
ENDBRANCH   1   8
BRANCH   1  13
ATOM     13  C   UNL     1      45.070   3.805   9.906  0.00  0.00    +0.000 A 
ATOM     14  C   UNL     1      45.592   4.663   8.929  0.00  0.00    +0.000 A 
ATOM     15  C   UNL     1      46.181   4.152   7.766  0.00  0.00    +0.000 A 
ATOM     16  C   UNL     1      46.262   2.770   7.549  0.00  0.00    +0.000 A 
ATOM     17  C   UNL     1      45.692   1.923   8.500  0.00  0.00    +0.000 A 
ATOM     18  F   UNL     1      45.742   0.593   8.331  0.00  0.00    +0.000 F 
ATOM     19  C   UNL     1      45.099   2.423   9.661  0.00  0.00    +0.000 A 
BRANCH  16  20
ATOM     20  C   UNL     1      47.024   2.212   6.378  0.00  0.00    +0.000 C 
BRANCH  20  21
ATOM     21  N   UNL     1      48.328   1.683   6.763  0.00  0.00    +0.000 NA
ATOM     22  H   UNL     1      49.015   1.981   6.070  0.00  0.00    +0.000 HD
ATOM     23  H   UNL     1      48.298   0.666   6.709  0.00  0.00    +0.000 HD
ENDBRANCH  20  21
ENDBRANCH  16  20
ENDBRANCH   1  13
TORSDOF 5
ENDMDL
MODEL 6
REMARK VINA RESULT:    -6.934      3.002      6.524
REMARK INTER + INTRA:          -9.416
REMARK INTER:                  -8.864
REMARK INTRA:                  -0.553
REMARK UNBOUND:                -0.658
REMARK  Name = 
REMARK  6 active torsions:
REMARK  status: ('A' for Active; 'I' for Inactive)
REMARK    1  A    between atoms: C_1  and  O_2
REMARK    2  A    between atoms: O_2  and  C_3
REMARK    3  A    between atoms: N_9  and  C_10
REMARK    4  A    between atoms: C_10  and  C_11
REMARK    5  A    between atoms: C_14  and  C_15
REMARK    6  A    between atoms: C_15  and  N_16
REMARK                            x       y       z     vdW  Elec       q    Type
REMARK                         _______ _______ _______ _____ _____    ______ ____
ROOT
ATOM      1  C   UNL     1      43.783   6.323  11.416  0.00  0.00    +0.000 C 
ENDROOT
BRANCH   1   8
ATOM      2  C   UNL     1      45.649   3.716   8.167  0.00  0.00    +0.000 A 
ATOM      3  C   UNL     1      45.272   2.393   8.376  0.00  0.00    +0.000 A 
ATOM      4  N   UNL     1      44.539   1.932   9.415  0.00  0.00    +0.000 NA
ATOM      5  C   UNL     1      44.166   2.877  10.310  0.00  0.00    +0.000 A 
ATOM      6  C   UNL     1      43.393   2.718  11.481  0.00  0.00    +0.000 A 
ATOM      7  C   UNL     1      43.252   3.964  12.053  0.00  0.00    +0.000 A 
ATOM      8  N   UNL     1      43.910   4.878  11.258  0.00  0.00    +0.000 N 
ATOM      9  C   UNL     1      44.497   4.229  10.189  0.00  0.00    +0.000 A 
ATOM     10  C   UNL     1      45.269   4.673   9.107  0.00  0.00    +0.000 A 
BRANCH   2  12
ATOM     11  C   UNL     1      46.757   3.204   6.147  0.00  0.00    +0.000 C 
ATOM     12  O   UNL     1      46.397   4.180   7.121  0.00  0.00    +0.000 OA
ENDBRANCH   2  12
ENDBRANCH   1   8
BRANCH   1  13
ATOM     13  C   UNL     1      44.998   7.002  12.000  0.00  0.00    +0.000 A 
ATOM     14  C   UNL     1      45.119   8.398  12.020  0.00  0.00    +0.000 A 
ATOM     15  C   UNL     1      46.151   9.018  12.736  0.00  0.00    +0.000 A 
ATOM     16  C   UNL     1      47.089   8.259  13.448  0.00  0.00    +0.000 A 
ATOM     17  C   UNL     1      46.995   6.868  13.379  0.00  0.00    +0.000 A 
ATOM     18  F   UNL     1      47.874   6.101  14.041  0.00  0.00    +0.000 F 
ATOM     19  C   UNL     1      45.972   6.241  12.666  0.00  0.00    +0.000 A 
BRANCH  16  20
ATOM     20  C   UNL     1      48.106   8.919  14.338  0.00  0.00    +0.000 C 
BRANCH  20  21
ATOM     21  N   UNL     1      47.587   9.189  15.675  0.00  0.00    +0.000 NA
ATOM     22  H   UNL     1      47.031  10.044  15.639  0.00  0.00    +0.000 HD
ATOM     23  H   UNL     1      48.369   9.389  16.295  0.00  0.00    +0.000 HD
ENDBRANCH  20  21
ENDBRANCH  16  20
ENDBRANCH   1  13
TORSDOF 5
ENDMDL
MODEL 7
REMARK VINA RESULT:    -6.467      1.655      2.062
REMARK INTER + INTRA:          -8.826
REMARK INTER:                  -8.198
REMARK INTRA:                  -0.629
REMARK UNBOUND:                -0.658
REMARK  Name = 
REMARK  6 active torsions:
REMARK  status: ('A' for Active; 'I' for Inactive)
REMARK    1  A    between atoms: C_1  and  O_2
REMARK    2  A    between atoms: O_2  and  C_3
REMARK    3  A    between atoms: N_9  and  C_10
REMARK    4  A    between atoms: C_10  and  C_11
REMARK    5  A    between atoms: C_14  and  C_15
REMARK    6  A    between atoms: C_15  and  N_16
REMARK                            x       y       z     vdW  Elec       q    Type
REMARK                         _______ _______ _______ _____ _____    ______ ____
ROOT
ATOM      1  C   UNL     1      44.288   4.784  12.130  0.00  0.00    +0.000 C 
ENDROOT
BRANCH   1   8
ATOM      2  C   UNL     1      47.290   8.142  12.869  0.00  0.00    +0.000 A 
ATOM      3  C   UNL     1      48.346   7.647  13.627  0.00  0.00    +0.000 A 
ATOM      4  N   UNL     1      48.439   6.397  14.136  0.00  0.00    +0.000 NA
ATOM      5  C   UNL     1      47.384   5.593  13.863  0.00  0.00    +0.000 A 
ATOM      6  C   UNL     1      47.190   4.245  14.237  0.00  0.00    +0.000 A 
ATOM      7  C   UNL     1      45.984   3.841  13.708  0.00  0.00    +0.000 A 
ATOM      8  N   UNL     1      45.442   4.903  13.016  0.00  0.00    +0.000 N 
ATOM      9  C   UNL     1      46.278   5.999  13.113  0.00  0.00    +0.000 A 
ATOM     10  C   UNL     1      46.206   7.305  12.610  0.00  0.00    +0.000 A 
BRANCH   2  12
ATOM     11  C   UNL     1      48.212  10.313  12.779  0.00  0.00    +0.000 C 
ATOM     12  O   UNL     1      47.193   9.408  12.361  0.00  0.00    +0.000 OA
ENDBRANCH   2  12
ENDBRANCH   1   8
BRANCH   1  13
ATOM     13  C   UNL     1      44.616   4.334  10.727  0.00  0.00    +0.000 A 
ATOM     14  C   UNL     1      45.198   5.205   9.795  0.00  0.00    +0.000 A 
ATOM     15  C   UNL     1      45.676   4.727   8.568  0.00  0.00    +0.000 A 
ATOM     16  C   UNL     1      45.582   3.367   8.240  0.00  0.00    +0.000 A 
ATOM     17  C   UNL     1      44.952   2.516   9.149  0.00  0.00    +0.000 A 
ATOM     18  F   UNL     1      44.836   1.208   8.875  0.00  0.00    +0.000 F 
ATOM     19  C   UNL     1      44.470   2.984  10.373  0.00  0.00    +0.000 A 
BRANCH  16  20
ATOM     20  C   UNL     1      46.225   2.824   6.994  0.00  0.00    +0.000 C 
BRANCH  20  21
ATOM     21  N   UNL     1      46.913   3.856   6.225  0.00  0.00    +0.000 NA
ATOM     22  H   UNL     1      47.902   3.612   6.169  0.00  0.00    +0.000 HD
ATOM     23  H   UNL     1      46.869   4.733   6.742  0.00  0.00    +0.000 HD
ENDBRANCH  20  21
ENDBRANCH  16  20
ENDBRANCH   1  13
TORSDOF 5
ENDMDL
MODEL 8
REMARK VINA RESULT:    -5.828      1.721      2.902
REMARK INTER + INTRA:          -8.019
REMARK INTER:                  -7.702
REMARK INTRA:                  -0.318
REMARK UNBOUND:                -0.658
REMARK  Name = 
REMARK  6 active torsions:
REMARK  status: ('A' for Active; 'I' for Inactive)
REMARK    1  A    between atoms: C_1  and  O_2
REMARK    2  A    between atoms: O_2  and  C_3
REMARK    3  A    between atoms: N_9  and  C_10
REMARK    4  A    between atoms: C_10  and  C_11
REMARK    5  A    between atoms: C_14  and  C_15
REMARK    6  A    between atoms: C_15  and  N_16
REMARK                            x       y       z     vdW  Elec       q    Type
REMARK                         _______ _______ _______ _____ _____    ______ ____
ROOT
ATOM      1  C   UNL     1      44.861   5.658  12.455  0.00  0.00    +0.000 C 
ENDROOT
BRANCH   1   8
ATOM      2  C   UNL     1      44.551  10.026  11.164  0.00  0.00    +0.000 A 
ATOM      3  C   UNL     1      45.727  10.684  11.507  0.00  0.00    +0.000 A 
ATOM      4  N   UNL     1      46.767  10.148  12.187  0.00  0.00    +0.000 NA
ATOM      5  C   UNL     1      46.601   8.853  12.549  0.00  0.00    +0.000 A 
ATOM      6  C   UNL     1      47.500   8.017  13.246  0.00  0.00    +0.000 A 
ATOM      7  C   UNL     1      46.906   6.779  13.359  0.00  0.00    +0.000 A 
ATOM      8  N   UNL     1      45.675   6.835  12.742  0.00  0.00    +0.000 N 
ATOM      9  C   UNL     1      45.457   8.109  12.252  0.00  0.00    +0.000 A 
ATOM     10  C   UNL     1      44.391   8.698  11.558  0.00  0.00    +0.000 A 
BRANCH   2  12
ATOM     11  C   UNL     1      42.251   9.901  10.652  0.00  0.00    +0.000 C 
ATOM     12  O   UNL     1      43.497  10.571  10.484  0.00  0.00    +0.000 OA
ENDBRANCH   2  12
ENDBRANCH   1   8
BRANCH   1  13
ATOM     13  C   UNL     1      44.988   5.132  11.046  0.00  0.00    +0.000 A 
ATOM     14  C   UNL     1      45.789   5.776  10.093  0.00  0.00    +0.000 A 
ATOM     15  C   UNL     1      46.056   5.175   8.857  0.00  0.00    +0.000 A 
ATOM     16  C   UNL     1      45.527   3.916   8.540  0.00  0.00    +0.000 A 
ATOM     17  C   UNL     1      44.687   3.306   9.472  0.00  0.00    +0.000 A 
ATOM     18  F   UNL     1      44.154   2.102   9.209  0.00  0.00    +0.000 F 
ATOM     19  C   UNL     1      44.413   3.898  10.706  0.00  0.00    +0.000 A 
BRANCH  16  20
ATOM     20  C   UNL     1      45.929   3.201   7.280  0.00  0.00    +0.000 C 
BRANCH  20  21
ATOM     21  N   UNL     1      46.857   3.981   6.467  0.00  0.00    +0.000 NA
ATOM     22  H   UNL     1      47.658   4.235   7.045  0.00  0.00    +0.000 HD
ATOM     23  H   UNL     1      46.408   4.857   6.208  0.00  0.00    +0.000 HD
ENDBRANCH  20  21
ENDBRANCH  16  20
ENDBRANCH   1  13
TORSDOF 5
ENDMDL
MODEL 9
REMARK VINA RESULT:    -5.759      2.721      4.326
REMARK INTER + INTRA:          -7.932
REMARK INTER:                  -7.335
REMARK INTRA:                  -0.597
REMARK UNBOUND:                -0.658
REMARK  Name = 
REMARK  6 active torsions:
REMARK  status: ('A' for Active; 'I' for Inactive)
REMARK    1  A    between atoms: C_1  and  O_2
REMARK    2  A    between atoms: O_2  and  C_3
REMARK    3  A    between atoms: N_9  and  C_10
REMARK    4  A    between atoms: C_10  and  C_11
REMARK    5  A    between atoms: C_14  and  C_15
REMARK    6  A    between atoms: C_15  and  N_16
REMARK                            x       y       z     vdW  Elec       q    Type
REMARK                         _______ _______ _______ _____ _____    ______ ____
ROOT
ATOM      1  C   UNL     1      44.519   6.351  12.691  0.00  0.00    +0.000 C 
ENDROOT
BRANCH   1   8
ATOM      2  C   UNL     1      48.699   7.135  14.348  0.00  0.00    +0.000 A 
ATOM      3  C   UNL     1      49.058   8.449  14.068  0.00  0.00    +0.000 A 
ATOM      4  N   UNL     1      48.329   9.335  13.352  0.00  0.00    +0.000 NA
ATOM      5  C   UNL     1      47.154   8.853  12.880  0.00  0.00    +0.000 A 
ATOM      6  C   UNL     1      46.174   9.526  12.119  0.00  0.00    +0.000 A 
ATOM      7  C   UNL     1      45.144   8.638  11.898  0.00  0.00    +0.000 A 
ATOM      8  N   UNL     1      45.466   7.447  12.510  0.00  0.00    +0.000 N 
ATOM      9  C   UNL     1      46.708   7.549  13.106  0.00  0.00    +0.000 A 
ATOM     10  C   UNL     1      47.494   6.651  13.841  0.00  0.00    +0.000 A 
BRANCH   2  12
ATOM     11  C   UNL     1      49.148   6.179  16.459  0.00  0.00    +0.000 C 
ATOM     12  O   UNL     1      49.441   6.237  15.065  0.00  0.00    +0.000 OA
ENDBRANCH   2  12
ENDBRANCH   1   8
BRANCH   1  13
ATOM     13  C   UNL     1      44.736   5.173  11.772  0.00  0.00    +0.000 A 
ATOM     14  C   UNL     1      44.318   3.882  12.124  0.00  0.00    +0.000 A 
ATOM     15  C   UNL     1      44.346   2.840  11.189  0.00  0.00    +0.000 A 
ATOM     16  C   UNL     1      44.795   3.060   9.880  0.00  0.00    +0.000 A 
ATOM     17  C   UNL     1      45.262   4.334   9.553  0.00  0.00    +0.000 A 
ATOM     18  F   UNL     1      45.705   4.589   8.313  0.00  0.00    +0.000 F 
ATOM     19  C   UNL     1      45.240   5.379  10.479  0.00  0.00    +0.000 A 
BRANCH  16  20
ATOM     20  C   UNL     1      44.688   1.987   8.832  0.00  0.00    +0.000 C 
BRANCH  20  21
ATOM     21  N   UNL     1      45.979   1.381   8.519  0.00  0.00    +0.000 NA
ATOM     22  H   UNL     1      45.864   0.367   8.501  0.00  0.00    +0.000 HD
ATOM     23  H   UNL     1      46.626   1.576   9.281  0.00  0.00    +0.000 HD
ENDBRANCH  20  21
ENDBRANCH  16  20
ENDBRANCH   1  13
TORSDOF 5
ENDMDL
