MODEL 1
REMARK VINA RESULT:    -7.625      0.000      0.000
REMARK INTER + INTRA:          -8.212
REMARK INTER:                  -8.962
REMARK INTRA:                   0.749
REMARK UNBOUND:                 0.749
REMARK  Name = 
REMARK  4 active torsions:
REMARK  status: ('A' for Active; 'I' for Inactive)
REMARK    1  A    between atoms: C_1  and  C_2
REMARK    2  A    between atoms: C_2  and  N_3
REMARK    3  A    between atoms: C_2  and  C_13
REMARK    4  A    between atoms: C_7  and  C_8
REMARK                            x       y       z     vdW  Elec       q    Type
REMARK                         _______ _______ _______ _____ _____    ______ ____
ROOT
ATOM      1  N   UNL     1      43.851   2.689  10.670  0.00  0.00    +0.000 N 
ATOM      2  C   UNL     1      44.708   2.740   9.555  0.00  0.00    +0.000 A 
ATOM      3  C   UNL     1      45.275   1.550   9.106  0.00  0.00    +0.000 A 
ATOM      4  C   UNL     1      46.144   1.573   8.014  0.00  0.00    +0.000 A 
ATOM      5  C   UNL     1      46.396   2.774   7.352  0.00  0.00    +0.000 A 
ATOM      6  C   UNL     1      45.745   3.899   7.834  0.00  0.00    +0.000 A 
ATOM      7  N   UNL     1      44.918   3.903   8.914  0.00  0.00    +0.000 NA
ATOM      8  H   UNL     1      42.934   2.446  10.303  0.00  0.00    +0.000 HD
ENDROOT
BRANCH   5   9
ATOM      9  C   UNL     1      47.325   2.790   6.197  0.00  0.00    +0.000 C 
ATOM     10  N   UNL     1      48.659   2.571   6.402  0.00  0.00    +0.000 N 
ATOM     11  O   UNL     1      46.914   2.994   5.059  0.00  0.00    +0.000 OA
ATOM     12  H   UNL     1      49.102   2.392   7.293  0.00  0.00    +0.000 HD
ATOM     13  H   UNL     1      49.251   2.589   5.585  0.00  0.00    +0.000 HD
ENDBRANCH   5   9
BRANCH   1  15
ATOM     14  C   UNL     1      43.388   5.120  10.527  0.00  0.00    +0.000 C 
ATOM     15  C   UNL     1      43.764   3.947  11.442  0.00  0.00    +0.000 C 
BRANCH  15  16
ATOM     16  C   UNL     1      45.099   4.299  12.111  0.00  0.00    +0.000 A 
ATOM     17  C   UNL     1      45.648   5.581  12.041  0.00  0.00    +0.000 A 
ATOM     18  C   UNL     1      46.802   5.867  12.770  0.00  0.00    +0.000 A 
ATOM     19  C   UNL     1      47.373   4.879  13.562  0.00  0.00    +0.000 A 
ATOM     20  C   UNL     1      46.774   3.633  13.577  0.00  0.00    +0.000 A 
ATOM     21  N   UNL     1      45.665   3.323  12.871  0.00  0.00    +0.000 NA
ENDBRANCH  15  16
ENDBRANCH   1  15
TORSDOF 3
ENDMDL
MODEL 2
REMARK VINA RESULT:    -7.381      2.831      6.096
REMARK INTER + INTRA:          -7.926
REMARK INTER:                  -9.096
REMARK INTRA:                   1.170
REMARK UNBOUND:                 0.749
REMARK  Name = 
REMARK  4 active torsions:
REMARK  status: ('A' for Active; 'I' for Inactive)
REMARK    1  A    between atoms: C_1  and  C_2
REMARK    2  A    between atoms: C_2  and  N_3
REMARK    3  A    between atoms: C_2  and  C_13
REMARK    4  A    between atoms: C_7  and  C_8
REMARK                            x       y       z     vdW  Elec       q    Type
REMARK                         _______ _______ _______ _____ _____    ______ ____
ROOT
ATOM      1  N   UNL     1      44.640   5.358   9.884  0.00  0.00    +0.000 N 
ATOM      2  C   UNL     1      45.358   5.338  11.094  0.00  0.00    +0.000 A 
ATOM      3  C   UNL     1      46.247   6.380  11.348  0.00  0.00    +0.000 A 
ATOM      4  C   UNL     1      46.986   6.377  12.532  0.00  0.00    +0.000 A 
ATOM      5  C   UNL     1      46.792   5.364  13.470  0.00  0.00    +0.000 A 
ATOM      6  C   UNL     1      45.848   4.399  13.158  0.00  0.00    +0.000 A 
ATOM      7  N   UNL     1      45.138   4.367  11.998  0.00  0.00    +0.000 NA
ATOM      8  H   UNL     1      43.828   5.946  10.053  0.00  0.00    +0.000 HD
ENDROOT
BRANCH   5   9
ATOM      9  C   UNL     1      47.586   5.365  14.722  0.00  0.00    +0.000 C 
ATOM     10  N   UNL     1      47.154   4.634  15.794  0.00  0.00    +0.000 N 
ATOM     11  O   UNL     1      48.626   6.009  14.810  0.00  0.00    +0.000 OA
ATOM     12  H   UNL     1      46.317   4.069  15.831  0.00  0.00    +0.000 HD
ATOM     13  H   UNL     1      47.729   4.663  16.623  0.00  0.00    +0.000 HD
ENDBRANCH   5   9
BRANCH   1  15
ATOM     14  C   UNL     1      43.825   3.122  10.580  0.00  0.00    +0.000 C 
ATOM     15  C   UNL     1      44.204   4.030   9.402  0.00  0.00    +0.000 C 
BRANCH  15  16
ATOM     16  C   UNL     1      45.310   3.318   8.614  0.00  0.00    +0.000 A 
ATOM     17  C   UNL     1      45.558   1.950   8.754  0.00  0.00    +0.000 A 
ATOM     18  C   UNL     1      46.497   1.341   7.922  0.00  0.00    +0.000 A 
ATOM     19  C   UNL     1      47.155   2.099   6.962  0.00  0.00    +0.000 A 
ATOM     20  C   UNL     1      46.860   3.448   6.886  0.00  0.00    +0.000 A 
ATOM     21  N   UNL     1      45.965   4.068   7.687  0.00  0.00    +0.000 NA
ENDBRANCH  15  16
ENDBRANCH   1  15
TORSDOF 3
ENDMDL
MODEL 3
REMARK VINA RESULT:    -7.293      3.051      6.026
REMARK INTER + INTRA:          -7.822
REMARK INTER:                  -7.437
REMARK INTRA:                  -0.385
REMARK UNBOUND:                 0.749
REMARK  Name = 
REMARK  4 active torsions:
REMARK  status: ('A' for Active; 'I' for Inactive)
REMARK    1  A    between atoms: C_1  and  C_2
REMARK    2  A    between atoms: C_2  and  N_3
REMARK    3  A    between atoms: C_2  and  C_13
REMARK    4  A    between atoms: C_7  and  C_8
REMARK                            x       y       z     vdW  Elec       q    Type
REMARK                         _______ _______ _______ _____ _____    ______ ____
ROOT
ATOM      1  N   UNL     1      45.531   3.083  10.971  0.00  0.00    +0.000 N 
ATOM      2  C   UNL     1      45.572   4.411  11.436  0.00  0.00    +0.000 A 
ATOM      3  C   UNL     1      45.823   4.626  12.790  0.00  0.00    +0.000 A 
ATOM      4  C   UNL     1      45.852   5.931  13.283  0.00  0.00    +0.000 A 
ATOM      5  C   UNL     1      45.680   7.006  12.412  0.00  0.00    +0.000 A 
ATOM      6  C   UNL     1      45.491   6.701  11.074  0.00  0.00    +0.000 A 
ATOM      7  N   UNL     1      45.431   5.436  10.577  0.00  0.00    +0.000 NA
ATOM      8  H   UNL     1      46.498   2.826  10.784  0.00  0.00    +0.000 HD
ENDROOT
BRANCH   5   9
ATOM      9  C   UNL     1      45.706   8.390  12.946  0.00  0.00    +0.000 C 
ATOM     10  N   UNL     1      46.579   8.708  13.950  0.00  0.00    +0.000 N 
ATOM     11  O   UNL     1      44.958   9.253  12.500  0.00  0.00    +0.000 OA
ATOM     12  H   UNL     1      47.237   8.079  14.388  0.00  0.00    +0.000 HD
ATOM     13  H   UNL     1      46.562   9.662  14.278  0.00  0.00    +0.000 HD
ENDBRANCH   5   9
BRANCH   1  15
ATOM     14  C   UNL     1      43.749   1.701   9.941  0.00  0.00    +0.000 C 
ATOM     15  C   UNL     1      44.715   2.879   9.756  0.00  0.00    +0.000 C 
BRANCH  15  16
ATOM     16  C   UNL     1      45.584   2.569   8.530  0.00  0.00    +0.000 A 
ATOM     17  C   UNL     1      45.923   3.550   7.595  0.00  0.00    +0.000 A 
ATOM     18  C   UNL     1      46.814   3.231   6.569  0.00  0.00    +0.000 A 
ATOM     19  C   UNL     1      47.357   1.955   6.507  0.00  0.00    +0.000 A 
ATOM     20  C   UNL     1      46.970   1.037   7.466  0.00  0.00    +0.000 A 
ATOM     21  N   UNL     1      46.100   1.312   8.463  0.00  0.00    +0.000 NA
ENDBRANCH  15  16
ENDBRANCH   1  15
TORSDOF 3
ENDMDL
MODEL 4
REMARK VINA RESULT:    -7.219      3.657      5.981
REMARK INTER + INTRA:          -7.736
REMARK INTER:                  -7.305
REMARK INTRA:                  -0.431
REMARK UNBOUND:                 0.749
REMARK  Name = 
REMARK  4 active torsions:
REMARK  status: ('A' for Active; 'I' for Inactive)
REMARK    1  A    between atoms: C_1  and  C_2
REMARK    2  A    between atoms: C_2  and  N_3
REMARK    3  A    between atoms: C_2  and  C_13
REMARK    4  A    between atoms: C_7  and  C_8
REMARK                            x       y       z     vdW  Elec       q    Type
REMARK                         _______ _______ _______ _____ _____    ______ ____
ROOT
ATOM      1  N   UNL     1      47.526   5.115  15.274  0.00  0.00    +0.000 N 
ATOM      2  C   UNL     1      46.738   4.811  14.148  0.00  0.00    +0.000 A 
ATOM      3  C   UNL     1      46.302   5.863  13.347  0.00  0.00    +0.000 A 
ATOM      4  C   UNL     1      45.504   5.593  12.234  0.00  0.00    +0.000 A 
ATOM      5  C   UNL     1      45.193   4.274  11.906  0.00  0.00    +0.000 A 
ATOM      6  C   UNL     1      45.715   3.288  12.728  0.00  0.00    +0.000 A 
ATOM      7  N   UNL     1      46.471   3.531  13.833  0.00  0.00    +0.000 NA
ATOM      8  H   UNL     1      48.482   5.187  14.931  0.00  0.00    +0.000 HD
ENDROOT
BRANCH   5   9
ATOM      9  C   UNL     1      44.339   3.997  10.726  0.00  0.00    +0.000 C 
ATOM     10  N   UNL     1      44.333   4.875   9.678  0.00  0.00    +0.000 N 
ATOM     11  O   UNL     1      43.641   2.990  10.675  0.00  0.00    +0.000 OA
ATOM     12  H   UNL     1      44.868   5.730   9.615  0.00  0.00    +0.000 HD
ATOM     13  H   UNL     1      43.739   4.642   8.896  0.00  0.00    +0.000 HD
ENDBRANCH   5   9
BRANCH   1  15
ATOM     14  C   UNL     1      46.921   4.756  17.651  0.00  0.00    +0.000 C 
ATOM     15  C   UNL     1      47.459   4.118  16.363  0.00  0.00    +0.000 C 
BRANCH  15  16
ATOM     16  C   UNL     1      48.840   3.531  16.685  0.00  0.00    +0.000 A 
ATOM     17  C   UNL     1      49.773   4.218  17.464  0.00  0.00    +0.000 A 
ATOM     18  C   UNL     1      50.962   3.581  17.819  0.00  0.00    +0.000 A 
ATOM     19  C   UNL     1      51.188   2.275  17.405  0.00  0.00    +0.000 A 
ATOM     20  C   UNL     1      50.219   1.662  16.633  0.00  0.00    +0.000 A 
ATOM     21  N   UNL     1      49.064   2.258  16.262  0.00  0.00    +0.000 NA
ENDBRANCH  15  16
ENDBRANCH   1  15
TORSDOF 3
ENDMDL
MODEL 5
REMARK VINA RESULT:    -7.078      3.200      6.189
REMARK INTER + INTRA:          -7.570
REMARK INTER:                  -7.279
REMARK INTRA:                  -0.292
REMARK UNBOUND:                 0.749
REMARK  Name = 
REMARK  4 active torsions:
REMARK  status: ('A' for Active; 'I' for Inactive)
REMARK    1  A    between atoms: C_1  and  C_2
REMARK    2  A    between atoms: C_2  and  N_3
REMARK    3  A    between atoms: C_2  and  C_13
REMARK    4  A    between atoms: C_7  and  C_8
REMARK                            x       y       z     vdW  Elec       q    Type
REMARK                         _______ _______ _______ _____ _____    ______ ____
ROOT
ATOM      1  N   UNL     1      45.563   3.623  12.190  0.00  0.00    +0.000 N 
ATOM      2  C   UNL     1      46.185   4.806  12.633  0.00  0.00    +0.000 A 
ATOM      3  C   UNL     1      46.725   4.823  13.917  0.00  0.00    +0.000 A 
ATOM      4  C   UNL     1      47.332   5.987  14.390  0.00  0.00    +0.000 A 
ATOM      5  C   UNL     1      47.436   7.102  13.560  0.00  0.00    +0.000 A 
ATOM      6  C   UNL     1      46.920   6.977  12.280  0.00  0.00    +0.000 A 
ATOM      7  N   UNL     1      46.300   5.862  11.809  0.00  0.00    +0.000 NA
ATOM      8  H   UNL     1      46.312   3.035  11.831  0.00  0.00    +0.000 HD
ENDROOT
BRANCH   5   9
ATOM      9  C   UNL     1      48.076   8.338  14.073  0.00  0.00    +0.000 C 
ATOM     10  N   UNL     1      47.553   8.960  15.173  0.00  0.00    +0.000 N 
ATOM     11  O   UNL     1      49.069   8.808  13.528  0.00  0.00    +0.000 OA
ATOM     12  H   UNL     1      46.744   8.659  15.698  0.00  0.00    +0.000 HD
ATOM     13  H   UNL     1      48.025   9.795  15.487  0.00  0.00    +0.000 HD
ENDBRANCH   5   9
BRANCH   1  15
ATOM     14  C   UNL     1      43.302   2.951  11.427  0.00  0.00    +0.000 C 
ATOM     15  C   UNL     1      44.536   3.819  11.145  0.00  0.00    +0.000 C 
BRANCH  15  16
ATOM     16  C   UNL     1      45.058   3.435   9.754  0.00  0.00    +0.000 A 
ATOM     17  C   UNL     1      45.436   4.395   8.813  0.00  0.00    +0.000 A 
ATOM     18  C   UNL     1      46.013   3.980   7.613  0.00  0.00    +0.000 A 
ATOM     19  C   UNL     1      46.215   2.625   7.384  0.00  0.00    +0.000 A 
ATOM     20  C   UNL     1      45.810   1.734   8.361  0.00  0.00    +0.000 A 
ATOM     21  N   UNL     1      45.237   2.106   9.526  0.00  0.00    +0.000 NA
ENDBRANCH  15  16
ENDBRANCH   1  15
TORSDOF 3
ENDMDL
MODEL 6
REMARK VINA RESULT:    -7.069      3.366      6.376
REMARK INTER + INTRA:          -7.559
REMARK INTER:                  -7.168
REMARK INTRA:                  -0.391
REMARK UNBOUND:                 0.749
REMARK  Name = 
REMARK  4 active torsions:
REMARK  status: ('A' for Active; 'I' for Inactive)
REMARK    1  A    between atoms: C_1  and  C_2
REMARK    2  A    between atoms: C_2  and  N_3
REMARK    3  A    between atoms: C_2  and  C_13
REMARK    4  A    between atoms: C_7  and  C_8
REMARK                            x       y       z     vdW  Elec       q    Type
REMARK                         _______ _______ _______ _____ _____    ______ ____
ROOT
ATOM      1  N   UNL     1      45.268   3.741  12.609  0.00  0.00    +0.000 N 
ATOM      2  C   UNL     1      46.209   4.563  13.255  0.00  0.00    +0.000 A 
ATOM      3  C   UNL     1      46.567   4.250  14.565  0.00  0.00    +0.000 A 
ATOM      4  C   UNL     1      47.485   5.058  15.237  0.00  0.00    +0.000 A 
ATOM      5  C   UNL     1      48.071   6.139  14.579  0.00  0.00    +0.000 A 
ATOM      6  C   UNL     1      47.697   6.343  13.260  0.00  0.00    +0.000 A 
ATOM      7  N   UNL     1      46.783   5.585  12.596  0.00  0.00    +0.000 NA
ATOM      8  H   UNL     1      45.798   2.961  12.226  0.00  0.00    +0.000 HD
ENDROOT
BRANCH   5   9
ATOM      9  C   UNL     1      49.040   6.997  15.303  0.00  0.00    +0.000 C 
ATOM     10  N   UNL     1      48.578   7.957  16.161  0.00  0.00    +0.000 N 
ATOM     11  O   UNL     1      50.248   6.856  15.147  0.00  0.00    +0.000 OA
ATOM     12  H   UNL     1      47.609   8.157  16.365  0.00  0.00    +0.000 HD
ATOM     13  H   UNL     1      49.275   8.513  16.633  0.00  0.00    +0.000 HD
ENDBRANCH   5   9
BRANCH   1  15
ATOM     14  C   UNL     1      43.002   4.129  11.680  0.00  0.00    +0.000 C 
ATOM     15  C   UNL     1      44.505   4.404  11.530  0.00  0.00    +0.000 C 
BRANCH  15  16
ATOM     16  C   UNL     1      44.926   3.902  10.143  0.00  0.00    +0.000 A 
ATOM     17  C   UNL     1      45.456   4.757   9.174  0.00  0.00    +0.000 A 
ATOM     18  C   UNL     1      45.929   4.219   7.978  0.00  0.00    +0.000 A 
ATOM     19  C   UNL     1      45.879   2.846   7.779  0.00  0.00    +0.000 A 
ATOM     20  C   UNL     1      45.336   2.063   8.782  0.00  0.00    +0.000 A 
ATOM     21  N   UNL     1      44.858   2.558   9.945  0.00  0.00    +0.000 NA
ENDBRANCH  15  16
ENDBRANCH   1  15
TORSDOF 3
ENDMDL
MODEL 7
REMARK VINA RESULT:    -6.989      2.701      3.572
REMARK INTER + INTRA:          -7.465
REMARK INTER:                  -7.044
REMARK INTRA:                  -0.421
REMARK UNBOUND:                 0.749
REMARK  Name = 
REMARK  4 active torsions:
REMARK  status: ('A' for Active; 'I' for Inactive)
REMARK    1  A    between atoms: C_1  and  C_2
REMARK    2  A    between atoms: C_2  and  N_3
REMARK    3  A    between atoms: C_2  and  C_13
REMARK    4  A    between atoms: C_7  and  C_8
REMARK                            x       y       z     vdW  Elec       q    Type
REMARK                         _______ _______ _______ _____ _____    ______ ____
ROOT
ATOM      1  N   UNL     1      44.582   5.475  10.537  0.00  0.00    +0.000 N 
ATOM      2  C   UNL     1      45.160   4.721   9.499  0.00  0.00    +0.000 A 
ATOM      3  C   UNL     1      44.596   3.484   9.193  0.00  0.00    +0.000 A 
ATOM      4  C   UNL     1      45.160   2.707   8.180  0.00  0.00    +0.000 A 
ATOM      5  C   UNL     1      46.245   3.193   7.453  0.00  0.00    +0.000 A 
ATOM      6  C   UNL     1      46.705   4.456   7.790  0.00  0.00    +0.000 A 
ATOM      7  N   UNL     1      46.189   5.218   8.792  0.00  0.00    +0.000 NA
ATOM      8  H   UNL     1      43.810   5.985  10.113  0.00  0.00    +0.000 HD
ENDROOT
BRANCH   5   9
ATOM      9  C   UNL     1      46.842   2.357   6.383  0.00  0.00    +0.000 C 
ATOM     10  N   UNL     1      47.189   2.934   5.193  0.00  0.00    +0.000 N 
ATOM     11  O   UNL     1      47.031   1.157   6.551  0.00  0.00    +0.000 OA
ATOM     12  H   UNL     1      47.079   3.909   4.949  0.00  0.00    +0.000 HD
ATOM     13  H   UNL     1      47.595   2.326   4.497  0.00  0.00    +0.000 HD
ENDBRANCH   5   9
BRANCH   1  15
ATOM     14  C   UNL     1      45.892   5.915  12.596  0.00  0.00    +0.000 C 
ATOM     15  C   UNL     1      45.503   6.422  11.200  0.00  0.00    +0.000 C 
BRANCH  15  16
ATOM     16  C   UNL     1      44.866   7.807  11.378  0.00  0.00    +0.000 A 
ATOM     17  C   UNL     1      45.536   8.854  12.015  0.00  0.00    +0.000 A 
ATOM     18  C   UNL     1      44.951  10.120  12.038  0.00  0.00    +0.000 A 
ATOM     19  C   UNL     1      43.725  10.319  11.417  0.00  0.00    +0.000 A 
ATOM     20  C   UNL     1      43.121   9.232  10.810  0.00  0.00    +0.000 A 
ATOM     21  N   UNL     1      43.657   7.992  10.783  0.00  0.00    +0.000 NA
ENDBRANCH  15  16
ENDBRANCH   1  15
TORSDOF 3
ENDMDL
MODEL 8
REMARK VINA RESULT:    -6.283      3.438      4.975
REMARK INTER + INTRA:          -6.636
REMARK INTER:                  -6.466
REMARK INTRA:                  -0.169
REMARK UNBOUND:                 0.749
REMARK  Name = 
REMARK  4 active torsions:
REMARK  status: ('A' for Active; 'I' for Inactive)
REMARK    1  A    between atoms: C_1  and  C_2
REMARK    2  A    between atoms: C_2  and  N_3
REMARK    3  A    between atoms: C_2  and  C_13
REMARK    4  A    between atoms: C_7  and  C_8
REMARK                            x       y       z     vdW  Elec       q    Type
REMARK                         _______ _______ _______ _____ _____    ______ ____
ROOT
ATOM      1  N   UNL     1      45.984   6.504  13.255  0.00  0.00    +0.000 N 
ATOM      2  C   UNL     1      45.640   5.621  12.215  0.00  0.00    +0.000 A 
ATOM      3  C   UNL     1      45.032   4.414  12.552  0.00  0.00    +0.000 A 
ATOM      4  C   UNL     1      44.696   3.510  11.543  0.00  0.00    +0.000 A 
ATOM      5  C   UNL     1      44.925   3.842  10.209  0.00  0.00    +0.000 A 
ATOM      6  C   UNL     1      45.484   5.086   9.963  0.00  0.00    +0.000 A 
ATOM      7  N   UNL     1      45.845   5.970  10.933  0.00  0.00    +0.000 NA
ATOM      8  H   UNL     1      45.142   7.040  13.453  0.00  0.00    +0.000 HD
ENDROOT
BRANCH   5   9
ATOM      9  C   UNL     1      44.571   2.873   9.143  0.00  0.00    +0.000 C 
ATOM     10  N   UNL     1      44.358   3.322   7.869  0.00  0.00    +0.000 N 
ATOM     11  O   UNL     1      44.471   1.675   9.387  0.00  0.00    +0.000 OA
ATOM     12  H   UNL     1      44.416   4.281   7.559  0.00  0.00    +0.000 HD
ATOM     13  H   UNL     1      44.123   2.624   7.178  0.00  0.00    +0.000 HD
ENDBRANCH   5   9
BRANCH   1  15
ATOM     14  C   UNL     1      47.928   7.720  14.199  0.00  0.00    +0.000 C 
ATOM     15  C   UNL     1      47.099   7.424  12.942  0.00  0.00    +0.000 C 
BRANCH  15  16
ATOM     16  C   UNL     1      46.594   8.767  12.399  0.00  0.00    +0.000 A 
ATOM     17  C   UNL     1      45.239   9.105  12.402  0.00  0.00    +0.000 A 
ATOM     18  C   UNL     1      44.858  10.387  12.005  0.00  0.00    +0.000 A 
ATOM     19  C   UNL     1      45.831  11.305  11.632  0.00  0.00    +0.000 A 
ATOM     20  C   UNL     1      47.152  10.895  11.651  0.00  0.00    +0.000 A 
ATOM     21  N   UNL     1      47.550   9.657  12.017  0.00  0.00    +0.000 NA
ENDBRANCH  15  16
ENDBRANCH   1  15
TORSDOF 3
ENDMDL
MODEL 9
REMARK VINA RESULT:    -6.165      4.005      5.844
REMARK INTER + INTRA:          -6.496
REMARK INTER:                  -6.171
REMARK INTRA:                  -0.325
REMARK UNBOUND:                 0.749
REMARK  Name = 
REMARK  4 active torsions:
REMARK  status: ('A' for Active; 'I' for Inactive)
REMARK    1  A    between atoms: C_1  and  C_2
REMARK    2  A    between atoms: C_2  and  N_3
REMARK    3  A    between atoms: C_2  and  C_13
REMARK    4  A    between atoms: C_7  and  C_8
REMARK                            x       y       z     vdW  Elec       q    Type
REMARK                         _______ _______ _______ _____ _____    ______ ____
ROOT
ATOM      1  N   UNL     1      47.182   6.706  13.822  0.00  0.00    +0.000 N 
ATOM      2  C   UNL     1      46.408   5.777  13.102  0.00  0.00    +0.000 A 
ATOM      3  C   UNL     1      46.417   4.448  13.522  0.00  0.00    +0.000 A 
ATOM      4  C   UNL     1      45.673   3.501  12.816  0.00  0.00    +0.000 A 
ATOM      5  C   UNL     1      44.891   3.900  11.733  0.00  0.00    +0.000 A 
ATOM      6  C   UNL     1      44.900   5.250  11.421  0.00  0.00    +0.000 A 
ATOM      7  N   UNL     1      45.639   6.184  12.077  0.00  0.00    +0.000 NA
ATOM      8  H   UNL     1      46.604   7.000  14.606  0.00  0.00    +0.000 HD
ENDROOT
BRANCH   5   9
ATOM      9  C   UNL     1      44.109   2.886  10.985  0.00  0.00    +0.000 C 
ATOM     10  N   UNL     1      44.645   2.316   9.863  0.00  0.00    +0.000 N 
ATOM     11  O   UNL     1      42.991   2.548  11.359  0.00  0.00    +0.000 OA
ATOM     12  H   UNL     1      45.553   2.518   9.468  0.00  0.00    +0.000 HD
ATOM     13  H   UNL     1      44.077   1.629   9.389  0.00  0.00    +0.000 HD
ENDBRANCH   5   9
BRANCH   1  15
ATOM     14  C   UNL     1      48.768   7.532  12.105  0.00  0.00    +0.000 C 
ATOM     15  C   UNL     1      47.609   7.889  13.045  0.00  0.00    +0.000 C 
BRANCH  15  16
ATOM     16  C   UNL     1      48.092   9.025  13.956  0.00  0.00    +0.000 A 
ATOM     17  C   UNL     1      48.208   8.868  15.339  0.00  0.00    +0.000 A 
ATOM     18  C   UNL     1      48.766   9.899  16.095  0.00  0.00    +0.000 A 
ATOM     19  C   UNL     1      49.207  11.052  15.460  0.00  0.00    +0.000 A 
ATOM     20  C   UNL     1      49.055  11.136  14.088  0.00  0.00    +0.000 A 
ATOM     21  N   UNL     1      48.506  10.160  13.331  0.00  0.00    +0.000 NA
ENDBRANCH  15  16
ENDBRANCH   1  15
TORSDOF 3
ENDMDL
