MODEL 1
REMARK VINA RESULT:    -9.749      0.000      0.000
REMARK INTER + INTRA:         -14.023
REMARK INTER:                 -13.739
REMARK INTRA:                  -0.284
REMARK UNBOUND:                -0.284
REMARK  Name = 
REMARK  8 active torsions:
REMARK  status: ('A' for Active; 'I' for Inactive)
REMARK    1  A    between atoms: C_1  and  O_2
REMARK    2  A    between atoms: O_2  and  C_3
REMARK    3  A    between atoms: C_6  and  C_7
REMARK    4  A    between atoms: C_7  and  N_8
REMARK    5  A    between atoms: N_8  and  C_9
REMARK    6  A    between atoms: C_12  and  C_13
REMARK    7  A    between atoms: C_21  and  C_22
REMARK    8  A    between atoms: C_25  and  C_26
REMARK                            x       y       z     vdW  Elec       q    Type
REMARK                         _______ _______ _______ _____ _____    ______ ____
ROOT
ATOM      1  C   UNL     1      47.821   6.552  12.863  0.00  0.00    +0.000 A 
ATOM      2  C   UNL     1      47.213   6.942  11.660  0.00  0.00    +0.000 A 
ATOM      3  C   UNL     1      45.982   6.399  11.270  0.00  0.00    +0.000 A 
ATOM      4  C   UNL     1      45.359   5.407  12.030  0.00  0.00    +0.000 A 
ATOM      5  C   UNL     1      46.051   4.948  13.163  0.00  0.00    +0.000 A 
ATOM      6  C   UNL     1      47.223   5.555  13.661  0.00  0.00    +0.000 A 
ENDROOT
BRANCH   6   7
ATOM      7  C   UNL     1      47.658   5.215  15.043  0.00  0.00    +0.000 A 
ATOM      8  C   UNL     1      48.478   6.042  15.822  0.00  0.00    +0.000 A 
ATOM      9  C   UNL     1      48.788   5.718  17.151  0.00  0.00    +0.000 A 
ATOM     10  C   UNL     1      48.304   4.539  17.726  0.00  0.00    +0.000 A 
ATOM     11  C   UNL     1      47.521   3.676  16.961  0.00  0.00    +0.000 A 
ATOM     12  C   UNL     1      47.195   4.023  15.647  0.00  0.00    +0.000 A 
BRANCH  10  13
ATOM     13  C   UNL     1      48.661   4.235  19.136  0.00  0.00    +0.000 C 
ATOM     14  N   UNL     1      48.288   3.015  19.633  0.00  0.00    +0.000 N 
ATOM     15  O   UNL     1      49.238   5.048  19.844  0.00  0.00    +0.000 OA
ATOM     16  H   UNL     1      47.609   2.423  19.177  0.00  0.00    +0.000 HD
ATOM     17  H   UNL     1      48.449   2.872  20.620  0.00  0.00    +0.000 HD
ENDBRANCH  10  13
ENDBRANCH   6   7
BRANCH   4  18
ATOM     18  C   UNL     1      43.969   4.863  11.696  0.00  0.00    +0.000 C 
ATOM     19  C   UNL     1      42.862   5.115  12.702  0.00  0.00    +0.000 C 
ATOM     20  C   UNL     1      43.431   3.748  12.603  0.00  0.00    +0.000 C 
BRANCH  18  21
ATOM     21  N   UNL     1      43.805   4.599  10.265  0.00  0.00    +0.000 N 
ATOM     22  H   UNL     1      42.928   4.915   9.860  0.00  0.00    +0.000 HD
BRANCH  21  23
ATOM     23  C   UNL     1      44.570   3.806   9.399  0.00  0.00    +0.000 A 
ATOM     24  C   UNL     1      44.741   2.426   9.516  0.00  0.00    +0.000 A 
ATOM     25  C   UNL     1      45.644   1.740   8.680  0.00  0.00    +0.000 A 
ATOM     26  C   UNL     1      46.374   2.425   7.704  0.00  0.00    +0.000 A 
ATOM     27  C   UNL     1      46.196   3.801   7.564  0.00  0.00    +0.000 A 
ATOM     28  C   UNL     1      45.308   4.475   8.407  0.00  0.00    +0.000 A 
BRANCH  26  29
ATOM     29  C   UNL     1      47.357   1.679   6.881  0.00  0.00    +0.000 C 
ATOM     30  N   UNL     1      48.469   2.359   6.461  0.00  0.00    +0.000 N 
ATOM     31  O   UNL     1      47.184   0.508   6.573  0.00  0.00    +0.000 OA
ATOM     32  H   UNL     1      48.546   3.364   6.506  0.00  0.00    +0.000 HD
ATOM     33  H   UNL     1      49.100   1.861   5.849  0.00  0.00    +0.000 HD
ENDBRANCH  26  29
ENDBRANCH  21  23
ENDBRANCH  18  21
ENDBRANCH   4  18
BRANCH   1  35
ATOM     34  C   UNL     1      49.826   7.734  12.341  0.00  0.00    +0.000 C 
ATOM     35  O   UNL     1      49.006   7.083  13.301  0.00  0.00    +0.000 OA
ENDBRANCH   1  35
TORSDOF 7
ENDMDL
MODEL 2
REMARK VINA RESULT:    -9.441      2.582      4.814
REMARK INTER + INTRA:         -13.589
REMARK INTER:                 -12.384
REMARK INTRA:                  -1.205
REMARK UNBOUND:                -0.284
REMARK  Name = 
REMARK  8 active torsions:
REMARK  status: ('A' for Active; 'I' for Inactive)
REMARK    1  A    between atoms: C_1  and  O_2
REMARK    2  A    between atoms: O_2  and  C_3
REMARK    3  A    between atoms: C_6  and  C_7
REMARK    4  A    between atoms: C_7  and  N_8
REMARK    5  A    between atoms: N_8  and  C_9
REMARK    6  A    between atoms: C_12  and  C_13
REMARK    7  A    between atoms: C_21  and  C_22
REMARK    8  A    between atoms: C_25  and  C_26
REMARK                            x       y       z     vdW  Elec       q    Type
REMARK                         _______ _______ _______ _____ _____    ______ ____
ROOT
ATOM      1  C   UNL     1      47.465   5.689  13.721  0.00  0.00    +0.000 A 
ATOM      2  C   UNL     1      46.630   4.591  13.979  0.00  0.00    +0.000 A 
ATOM      3  C   UNL     1      45.445   4.407  13.255  0.00  0.00    +0.000 A 
ATOM      4  C   UNL     1      45.027   5.343  12.305  0.00  0.00    +0.000 A 
ATOM      5  C   UNL     1      45.821   6.493  12.158  0.00  0.00    +0.000 A 
ATOM      6  C   UNL     1      47.082   6.655  12.769  0.00  0.00    +0.000 A 
ENDROOT
BRANCH   6   7
ATOM      7  C   UNL     1      47.974   7.735  12.264  0.00  0.00    +0.000 A 
ATOM      8  C   UNL     1      47.633   9.094  12.286  0.00  0.00    +0.000 A 
ATOM      9  C   UNL     1      48.544  10.079  11.878  0.00  0.00    +0.000 A 
ATOM     10  C   UNL     1      49.813   9.725  11.412  0.00  0.00    +0.000 A 
ATOM     11  C   UNL     1      50.164   8.378  11.339  0.00  0.00    +0.000 A 
ATOM     12  C   UNL     1      49.258   7.405  11.774  0.00  0.00    +0.000 A 
BRANCH  10  13
ATOM     13  C   UNL     1      50.744  10.802  10.987  0.00  0.00    +0.000 C 
ATOM     14  N   UNL     1      51.870  10.997  11.740  0.00  0.00    +0.000 N 
ATOM     15  O   UNL     1      50.506  11.515  10.022  0.00  0.00    +0.000 OA
ATOM     16  H   UNL     1      51.984  10.610  12.665  0.00  0.00    +0.000 HD
ATOM     17  H   UNL     1      52.433  11.800  11.494  0.00  0.00    +0.000 HD
ENDBRANCH  10  13
ENDBRANCH   6   7
BRANCH   4  18
ATOM     18  C   UNL     1      43.798   5.129  11.421  0.00  0.00    +0.000 C 
ATOM     19  C   UNL     1      43.016   6.360  11.006  0.00  0.00    +0.000 C 
ATOM     20  C   UNL     1      42.437   5.469  12.042  0.00  0.00    +0.000 C 
BRANCH  18  21
ATOM     21  N   UNL     1      43.831   3.840  10.726  0.00  0.00    +0.000 N 
ATOM     22  H   UNL     1      43.312   3.090  11.173  0.00  0.00    +0.000 HD
BRANCH  21  23
ATOM     23  C   UNL     1      44.622   3.414   9.651  0.00  0.00    +0.000 A 
ATOM     24  C   UNL     1      44.932   2.084   9.359  0.00  0.00    +0.000 A 
ATOM     25  C   UNL     1      45.850   1.766   8.340  0.00  0.00    +0.000 A 
ATOM     26  C   UNL     1      46.456   2.776   7.586  0.00  0.00    +0.000 A 
ATOM     27  C   UNL     1      46.138   4.107   7.853  0.00  0.00    +0.000 A 
ATOM     28  C   UNL     1      45.236   4.413   8.876  0.00  0.00    +0.000 A 
BRANCH  26  29
ATOM     29  C   UNL     1      47.461   2.406   6.559  0.00  0.00    +0.000 C 
ATOM     30  N   UNL     1      47.395   3.055   5.354  0.00  0.00    +0.000 N 
ATOM     31  O   UNL     1      48.309   1.550   6.765  0.00  0.00    +0.000 OA
ATOM     32  H   UNL     1      46.595   3.600   5.068  0.00  0.00    +0.000 HD
ATOM     33  H   UNL     1      48.042   2.751   4.640  0.00  0.00    +0.000 HD
ENDBRANCH  26  29
ENDBRANCH  21  23
ENDBRANCH  18  21
ENDBRANCH   4  18
BRANCH   1  35
ATOM     34  C   UNL     1      48.635   6.758  15.504  0.00  0.00    +0.000 C 
ATOM     35  O   UNL     1      48.650   5.889  14.380  0.00  0.00    +0.000 OA
ENDBRANCH   1  35
TORSDOF 7
ENDMDL
MODEL 3
REMARK VINA RESULT:    -8.595      3.081      3.813
REMARK INTER + INTRA:         -12.397
REMARK INTER:                 -11.431
REMARK INTRA:                  -0.966
REMARK UNBOUND:                -0.284
REMARK  Name = 
REMARK  8 active torsions:
REMARK  status: ('A' for Active; 'I' for Inactive)
REMARK    1  A    between atoms: C_1  and  O_2
REMARK    2  A    between atoms: O_2  and  C_3
REMARK    3  A    between atoms: C_6  and  C_7
REMARK    4  A    between atoms: C_7  and  N_8
REMARK    5  A    between atoms: N_8  and  C_9
REMARK    6  A    between atoms: C_12  and  C_13
REMARK    7  A    between atoms: C_21  and  C_22
REMARK    8  A    between atoms: C_25  and  C_26
REMARK                            x       y       z     vdW  Elec       q    Type
REMARK                         _______ _______ _______ _____ _____    ______ ____
ROOT
ATOM      1  C   UNL     1      45.497   8.498  11.732  0.00  0.00    +0.000 A 
ATOM      2  C   UNL     1      44.164   8.212  11.401  0.00  0.00    +0.000 A 
ATOM      3  C   UNL     1      43.702   6.889  11.370  0.00  0.00    +0.000 A 
ATOM      4  C   UNL     1      44.568   5.818  11.600  0.00  0.00    +0.000 A 
ATOM      5  C   UNL     1      45.922   6.130  11.807  0.00  0.00    +0.000 A 
ATOM      6  C   UNL     1      46.403   7.445  11.974  0.00  0.00    +0.000 A 
ENDROOT
BRANCH   6   7
ATOM      7  C   UNL     1      47.770   7.627  12.535  0.00  0.00    +0.000 A 
ATOM      8  C   UNL     1      48.918   7.773  11.744  0.00  0.00    +0.000 A 
ATOM      9  C   UNL     1      50.171   8.029  12.321  0.00  0.00    +0.000 A 
ATOM     10  C   UNL     1      50.310   8.119  13.708  0.00  0.00    +0.000 A 
ATOM     11  C   UNL     1      49.193   7.935  14.521  0.00  0.00    +0.000 A 
ATOM     12  C   UNL     1      47.944   7.708  13.936  0.00  0.00    +0.000 A 
BRANCH  10  13
ATOM     13  C   UNL     1      51.657   8.388  14.274  0.00  0.00    +0.000 C 
ATOM     14  N   UNL     1      52.727   7.778  13.678  0.00  0.00    +0.000 N 
ATOM     15  O   UNL     1      51.812   9.103  15.255  0.00  0.00    +0.000 OA
ATOM     16  H   UNL     1      52.628   7.003  13.038  0.00  0.00    +0.000 HD
ATOM     17  H   UNL     1      53.617   7.893  14.142  0.00  0.00    +0.000 HD
ENDBRANCH  10  13
ENDBRANCH   6   7
BRANCH   4  18
ATOM     18  C   UNL     1      44.084   4.369  11.678  0.00  0.00    +0.000 C 
ATOM     19  C   UNL     1      43.370   3.940  12.946  0.00  0.00    +0.000 C 
ATOM     20  C   UNL     1      44.761   3.473  12.724  0.00  0.00    +0.000 C 
BRANCH  18  21
ATOM     21  N   UNL     1      43.961   3.752  10.355  0.00  0.00    +0.000 N 
ATOM     22  H   UNL     1      43.062   3.325  10.155  0.00  0.00    +0.000 HD
BRANCH  21  23
ATOM     23  C   UNL     1      44.942   3.478   9.392  0.00  0.00    +0.000 A 
ATOM     24  C   UNL     1      45.545   4.429   8.568  0.00  0.00    +0.000 A 
ATOM     25  C   UNL     1      46.417   4.036   7.535  0.00  0.00    +0.000 A 
ATOM     26  C   UNL     1      46.710   2.686   7.324  0.00  0.00    +0.000 A 
ATOM     27  C   UNL     1      46.130   1.727   8.154  0.00  0.00    +0.000 A 
ATOM     28  C   UNL     1      45.256   2.127   9.169  0.00  0.00    +0.000 A 
BRANCH  26  29
ATOM     29  C   UNL     1      47.588   2.305   6.190  0.00  0.00    +0.000 C 
ATOM     30  N   UNL     1      47.464   3.025   5.031  0.00  0.00    +0.000 N 
ATOM     31  O   UNL     1      48.384   1.380   6.272  0.00  0.00    +0.000 OA
ATOM     32  H   UNL     1      46.686   3.641   4.849  0.00  0.00    +0.000 HD
ATOM     33  H   UNL     1      48.020   2.717   4.246  0.00  0.00    +0.000 HD
ENDBRANCH  26  29
ENDBRANCH  21  23
ENDBRANCH  18  21
ENDBRANCH   4  18
BRANCH   1  35
ATOM     34  C   UNL     1      45.087  10.837  11.505  0.00  0.00    +0.000 C 
ATOM     35  O   UNL     1      45.983   9.778  11.810  0.00  0.00    +0.000 OA
ENDBRANCH   1  35
TORSDOF 7
ENDMDL
MODEL 4
REMARK VINA RESULT:    -7.993      2.472      4.065
REMARK INTER + INTRA:         -11.548
REMARK INTER:                 -10.085
REMARK INTRA:                  -1.463
REMARK UNBOUND:                -0.284
REMARK  Name = 
REMARK  8 active torsions:
REMARK  status: ('A' for Active; 'I' for Inactive)
REMARK    1  A    between atoms: C_1  and  O_2
REMARK    2  A    between atoms: O_2  and  C_3
REMARK    3  A    between atoms: C_6  and  C_7
REMARK    4  A    between atoms: C_7  and  N_8
REMARK    5  A    between atoms: N_8  and  C_9
REMARK    6  A    between atoms: C_12  and  C_13
REMARK    7  A    between atoms: C_21  and  C_22
REMARK    8  A    between atoms: C_25  and  C_26
REMARK                            x       y       z     vdW  Elec       q    Type
REMARK                         _______ _______ _______ _____ _____    ______ ____
ROOT
ATOM      1  C   UNL     1      46.947   4.636  14.445  0.00  0.00    +0.000 A 
ATOM      2  C   UNL     1      45.899   3.728  14.233  0.00  0.00    +0.000 A 
ATOM      3  C   UNL     1      44.902   3.992  13.284  0.00  0.00    +0.000 A 
ATOM      4  C   UNL     1      44.885   5.195  12.572  0.00  0.00    +0.000 A 
ATOM      5  C   UNL     1      45.876   6.136  12.896  0.00  0.00    +0.000 A 
ATOM      6  C   UNL     1      46.968   5.861  13.746  0.00  0.00    +0.000 A 
ENDROOT
BRANCH   6   7
ATOM      7  C   UNL     1      48.125   6.797  13.730  0.00  0.00    +0.000 A 
ATOM      8  C   UNL     1      49.057   6.859  12.685  0.00  0.00    +0.000 A 
ATOM      9  C   UNL     1      50.079   7.818  12.678  0.00  0.00    +0.000 A 
ATOM     10  C   UNL     1      50.210   8.726  13.732  0.00  0.00    +0.000 A 
ATOM     11  C   UNL     1      49.323   8.661  14.805  0.00  0.00    +0.000 A 
ATOM     12  C   UNL     1      48.290   7.718  14.790  0.00  0.00    +0.000 A 
BRANCH  10  13
ATOM     13  C   UNL     1      51.310   9.724  13.683  0.00  0.00    +0.000 C 
ATOM     14  N   UNL     1      51.008  11.016  14.018  0.00  0.00    +0.000 N 
ATOM     15  O   UNL     1      52.440   9.418  13.327  0.00  0.00    +0.000 OA
ATOM     16  H   UNL     1      50.060  11.358  14.077  0.00  0.00    +0.000 HD
ATOM     17  H   UNL     1      51.745  11.693  13.878  0.00  0.00    +0.000 HD
ENDBRANCH  10  13
ENDBRANCH   6   7
BRANCH   4  18
ATOM     18  C   UNL     1      43.879   5.479  11.456  0.00  0.00    +0.000 C 
ATOM     19  C   UNL     1      43.494   6.926  11.218  0.00  0.00    +0.000 C 
ATOM     20  C   UNL     1      42.514   6.034  11.886  0.00  0.00    +0.000 C 
BRANCH  18  21
ATOM     21  N   UNL     1      43.799   4.382  10.488  0.00  0.00    +0.000 N 
ATOM     22  H   UNL     1      42.958   3.816  10.538  0.00  0.00    +0.000 HD
BRANCH  21  23
ATOM     23  C   UNL     1      44.779   3.861   9.632  0.00  0.00    +0.000 A 
ATOM     24  C   UNL     1      45.572   4.615   8.766  0.00  0.00    +0.000 A 
ATOM     25  C   UNL     1      46.430   3.985   7.844  0.00  0.00    +0.000 A 
ATOM     26  C   UNL     1      46.518   2.591   7.789  0.00  0.00    +0.000 A 
ATOM     27  C   UNL     1      45.746   1.827   8.664  0.00  0.00    +0.000 A 
ATOM     28  C   UNL     1      44.888   2.461   9.567  0.00  0.00    +0.000 A 
BRANCH  26  29
ATOM     29  C   UNL     1      47.389   1.961   6.767  0.00  0.00    +0.000 C 
ATOM     30  N   UNL     1      48.086   2.797   5.935  0.00  0.00    +0.000 N 
ATOM     31  O   UNL     1      47.479   0.746   6.655  0.00  0.00    +0.000 OA
ATOM     32  H   UNL     1      47.879   3.781   5.849  0.00  0.00    +0.000 HD
ATOM     33  H   UNL     1      48.626   2.359   5.202  0.00  0.00    +0.000 HD
ENDBRANCH  26  29
ENDBRANCH  21  23
ENDBRANCH  18  21
ENDBRANCH   4  18
BRANCH   1  35
ATOM     34  C   UNL     1      47.825   3.285  16.203  0.00  0.00    +0.000 C 
ATOM     35  O   UNL     1      47.961   4.402  15.337  0.00  0.00    +0.000 OA
ENDBRANCH   1  35
TORSDOF 7
ENDMDL
MODEL 5
REMARK VINA RESULT:    -7.787      3.063      7.903
REMARK INTER + INTRA:         -11.259
REMARK INTER:                  -9.574
REMARK INTRA:                  -1.685
REMARK UNBOUND:                -0.284
REMARK  Name = 
REMARK  8 active torsions:
REMARK  status: ('A' for Active; 'I' for Inactive)
REMARK    1  A    between atoms: C_1  and  O_2
REMARK    2  A    between atoms: O_2  and  C_3
REMARK    3  A    between atoms: C_6  and  C_7
REMARK    4  A    between atoms: C_7  and  N_8
REMARK    5  A    between atoms: N_8  and  C_9
REMARK    6  A    between atoms: C_12  and  C_13
REMARK    7  A    between atoms: C_21  and  C_22
REMARK    8  A    between atoms: C_25  and  C_26
REMARK                            x       y       z     vdW  Elec       q    Type
REMARK                         _______ _______ _______ _____ _____    ______ ____
ROOT
ATOM      1  C   UNL     1      49.560   7.641  13.151  0.00  0.00    +0.000 A 
ATOM      2  C   UNL     1      50.573   8.328  13.837  0.00  0.00    +0.000 A 
ATOM      3  C   UNL     1      50.438   8.634  15.197  0.00  0.00    +0.000 A 
ATOM      4  C   UNL     1      49.266   8.325  15.892  0.00  0.00    +0.000 A 
ATOM      5  C   UNL     1      48.222   7.750  15.149  0.00  0.00    +0.000 A 
ATOM      6  C   UNL     1      48.362   7.309  13.817  0.00  0.00    +0.000 A 
ENDROOT
BRANCH   6   7
ATOM      7  C   UNL     1      47.317   6.405  13.262  0.00  0.00    +0.000 A 
ATOM      8  C   UNL     1      46.528   6.727  12.149  0.00  0.00    +0.000 A 
ATOM      9  C   UNL     1      45.618   5.805  11.612  0.00  0.00    +0.000 A 
ATOM     10  C   UNL     1      45.455   4.545  12.194  0.00  0.00    +0.000 A 
ATOM     11  C   UNL     1      46.197   4.213  13.327  0.00  0.00    +0.000 A 
ATOM     12  C   UNL     1      47.122   5.129  13.838  0.00  0.00    +0.000 A 
BRANCH  10  13
ATOM     13  C   UNL     1      44.477   3.602  11.592  0.00  0.00    +0.000 C 
ATOM     14  N   UNL     1      44.122   2.504  12.329  0.00  0.00    +0.000 N 
ATOM     15  O   UNL     1      44.023   3.774  10.470  0.00  0.00    +0.000 OA
ATOM     16  H   UNL     1      44.644   2.195  13.136  0.00  0.00    +0.000 HD
ATOM     17  H   UNL     1      43.538   1.826  11.859  0.00  0.00    +0.000 HD
ENDBRANCH  10  13
ENDBRANCH   6   7
BRANCH   4  18
ATOM     18  C   UNL     1      49.117   8.547  17.398  0.00  0.00    +0.000 C 
ATOM     19  C   UNL     1      47.909   9.333  17.870  0.00  0.00    +0.000 C 
ATOM     20  C   UNL     1      49.239   9.993  17.895  0.00  0.00    +0.000 C 
BRANCH  18  21
ATOM     21  N   UNL     1      49.890   7.580  18.181  0.00  0.00    +0.000 N 
ATOM     22  H   UNL     1      50.510   7.980  18.879  0.00  0.00    +0.000 HD
BRANCH  21  23
ATOM     23  C   UNL     1      50.067   6.203  17.994  0.00  0.00    +0.000 A 
ATOM     24  C   UNL     1      51.297   5.569  17.812  0.00  0.00    +0.000 A 
ATOM     25  C   UNL     1      51.360   4.199  17.491  0.00  0.00    +0.000 A 
ATOM     26  C   UNL     1      50.192   3.441  17.367  0.00  0.00    +0.000 A 
ATOM     27  C   UNL     1      48.957   4.058  17.568  0.00  0.00    +0.000 A 
ATOM     28  C   UNL     1      48.905   5.422  17.873  0.00  0.00    +0.000 A 
BRANCH  26  29
ATOM     29  C   UNL     1      50.294   2.015  16.972  0.00  0.00    +0.000 C 
ATOM     30  N   UNL     1      51.109   1.212  17.726  0.00  0.00    +0.000 N 
ATOM     31  O   UNL     1      49.689   1.567  16.008  0.00  0.00    +0.000 OA
ATOM     32  H   UNL     1      51.783   1.577  18.382  0.00  0.00    +0.000 HD
ATOM     33  H   UNL     1      51.222   0.259  17.411  0.00  0.00    +0.000 HD
ENDBRANCH  26  29
ENDBRANCH  21  23
ENDBRANCH  18  21
ENDBRANCH   4  18
BRANCH   1  35
ATOM     34  C   UNL     1      50.834   7.702  11.135  0.00  0.00    +0.000 C 
ATOM     35  O   UNL     1      49.665   7.290  11.830  0.00  0.00    +0.000 OA
ENDBRANCH   1  35
TORSDOF 7
ENDMDL
MODEL 6
REMARK VINA RESULT:    -7.677      2.949      5.036
REMARK INTER + INTRA:         -11.103
REMARK INTER:                  -9.808
REMARK INTRA:                  -1.295
REMARK UNBOUND:                -0.284
REMARK  Name = 
REMARK  8 active torsions:
REMARK  status: ('A' for Active; 'I' for Inactive)
REMARK    1  A    between atoms: C_1  and  O_2
REMARK    2  A    between atoms: O_2  and  C_3
REMARK    3  A    between atoms: C_6  and  C_7
REMARK    4  A    between atoms: C_7  and  N_8
REMARK    5  A    between atoms: N_8  and  C_9
REMARK    6  A    between atoms: C_12  and  C_13
REMARK    7  A    between atoms: C_21  and  C_22
REMARK    8  A    between atoms: C_25  and  C_26
REMARK                            x       y       z     vdW  Elec       q    Type
REMARK                         _______ _______ _______ _____ _____    ______ ____
ROOT
ATOM      1  C   UNL     1      49.147   7.832  17.380  0.00  0.00    +0.000 A 
ATOM      2  C   UNL     1      48.394   8.889  16.848  0.00  0.00    +0.000 A 
ATOM      3  C   UNL     1      48.085   8.933  15.482  0.00  0.00    +0.000 A 
ATOM      4  C   UNL     1      48.574   7.965  14.601  0.00  0.00    +0.000 A 
ATOM      5  C   UNL     1      49.428   6.990  15.143  0.00  0.00    +0.000 A 
ATOM      6  C   UNL     1      49.658   6.833  16.526  0.00  0.00    +0.000 A 
ENDROOT
BRANCH   6   7
ATOM      7  C   UNL     1      50.281   5.566  16.996  0.00  0.00    +0.000 A 
ATOM      8  C   UNL     1      49.549   4.413  17.310  0.00  0.00    +0.000 A 
ATOM      9  C   UNL     1      50.191   3.218  17.666  0.00  0.00    +0.000 A 
ATOM     10  C   UNL     1      51.585   3.155  17.741  0.00  0.00    +0.000 A 
ATOM     11  C   UNL     1      52.337   4.298  17.475  0.00  0.00    +0.000 A 
ATOM     12  C   UNL     1      51.689   5.477  17.095  0.00  0.00    +0.000 A 
BRANCH  10  13
ATOM     13  C   UNL     1      52.221   1.868  18.125  0.00  0.00    +0.000 C 
ATOM     14  N   UNL     1      51.614   0.714  17.708  0.00  0.00    +0.000 N 
ATOM     15  O   UNL     1      53.232   1.829  18.812  0.00  0.00    +0.000 OA
ATOM     16  H   UNL     1      50.667   0.689  17.359  0.00  0.00    +0.000 HD
ATOM     17  H   UNL     1      52.006  -0.146  18.068  0.00  0.00    +0.000 HD
ENDBRANCH  10  13
ENDBRANCH   6   7
BRANCH   4  18
ATOM     18  C   UNL     1      48.177   7.917  13.125  0.00  0.00    +0.000 C 
ATOM     19  C   UNL     1      49.294   7.784  12.108  0.00  0.00    +0.000 C 
ATOM     20  C   UNL     1      48.623   9.100  12.255  0.00  0.00    +0.000 C 
BRANCH  18  21
ATOM     21  N   UNL     1      46.776   7.534  12.939  0.00  0.00    +0.000 N 
ATOM     22  H   UNL     1      46.098   8.106  13.433  0.00  0.00    +0.000 HD
BRANCH  21  23
ATOM     23  C   UNL     1      46.224   6.388  12.351  0.00  0.00    +0.000 A 
ATOM     24  C   UNL     1      45.842   6.278  11.013  0.00  0.00    +0.000 A 
ATOM     25  C   UNL     1      45.166   5.132  10.549  0.00  0.00    +0.000 A 
ATOM     26  C   UNL     1      44.880   4.074  11.417  0.00  0.00    +0.000 A 
ATOM     27  C   UNL     1      45.275   4.163  12.751  0.00  0.00    +0.000 A 
ATOM     28  C   UNL     1      45.934   5.310  13.204  0.00  0.00    +0.000 A 
BRANCH  26  29
ATOM     29  C   UNL     1      44.117   2.908  10.907  0.00  0.00    +0.000 C 
ATOM     30  N   UNL     1      44.675   2.192   9.881  0.00  0.00    +0.000 N 
ATOM     31  O   UNL     1      43.027   2.598  11.369  0.00  0.00    +0.000 OA
ATOM     32  H   UNL     1      45.452   2.533   9.335  0.00  0.00    +0.000 HD
ATOM     33  H   UNL     1      44.119   1.440   9.500  0.00  0.00    +0.000 HD
ENDBRANCH  26  29
ENDBRANCH  21  23
ENDBRANCH  18  21
ENDBRANCH   4  18
BRANCH   1  35
ATOM     34  C   UNL     1      48.352   7.591  19.616  0.00  0.00    +0.000 C 
ATOM     35  O   UNL     1      49.442   7.730  18.715  0.00  0.00    +0.000 OA
ENDBRANCH   1  35
TORSDOF 7
ENDMDL
MODEL 7
REMARK VINA RESULT:    -7.380      2.496      8.385
REMARK INTER + INTRA:         -10.684
REMARK INTER:                  -9.973
REMARK INTRA:                  -0.712
REMARK UNBOUND:                -0.284
REMARK  Name = 
REMARK  8 active torsions:
REMARK  status: ('A' for Active; 'I' for Inactive)
REMARK    1  A    between atoms: C_1  and  O_2
REMARK    2  A    between atoms: O_2  and  C_3
REMARK    3  A    between atoms: C_6  and  C_7
REMARK    4  A    between atoms: C_7  and  N_8
REMARK    5  A    between atoms: N_8  and  C_9
REMARK    6  A    between atoms: C_12  and  C_13
REMARK    7  A    between atoms: C_21  and  C_22
REMARK    8  A    between atoms: C_25  and  C_26
REMARK                            x       y       z     vdW  Elec       q    Type
REMARK                         _______ _______ _______ _____ _____    ______ ____
ROOT
ATOM      1  C   UNL     1      43.614   4.564  11.279  0.00  0.00    +0.000 A 
ATOM      2  C   UNL     1      43.016   5.456  12.183  0.00  0.00    +0.000 A 
ATOM      3  C   UNL     1      43.521   6.752  12.350  0.00  0.00    +0.000 A 
ATOM      4  C   UNL     1      44.670   7.171  11.676  0.00  0.00    +0.000 A 
ATOM      5  C   UNL     1      45.317   6.216  10.874  0.00  0.00    +0.000 A 
ATOM      6  C   UNL     1      44.775   4.948  10.577  0.00  0.00    +0.000 A 
ENDROOT
BRANCH   6   7
ATOM      7  C   UNL     1      45.366   4.177   9.450  0.00  0.00    +0.000 A 
ATOM      8  C   UNL     1      46.018   4.774   8.362  0.00  0.00    +0.000 A 
ATOM      9  C   UNL     1      46.634   3.998   7.369  0.00  0.00    +0.000 A 
ATOM     10  C   UNL     1      46.590   2.603   7.427  0.00  0.00    +0.000 A 
ATOM     11  C   UNL     1      45.912   1.982   8.475  0.00  0.00    +0.000 A 
ATOM     12  C   UNL     1      45.324   2.764   9.474  0.00  0.00    +0.000 A 
BRANCH  10  13
ATOM     13  C   UNL     1      47.255   1.823   6.350  0.00  0.00    +0.000 C 
ATOM     14  N   UNL     1      47.994   2.516   5.431  0.00  0.00    +0.000 N 
ATOM     15  O   UNL     1      47.127   0.609   6.263  0.00  0.00    +0.000 OA
ATOM     16  H   UNL     1      47.927   3.517   5.319  0.00  0.00    +0.000 HD
ATOM     17  H   UNL     1      48.349   1.978   4.652  0.00  0.00    +0.000 HD
ENDBRANCH  10  13
ENDBRANCH   6   7
BRANCH   4  18
ATOM     18  C   UNL     1      45.193   8.606  11.750  0.00  0.00    +0.000 C 
ATOM     19  C   UNL     1      44.230   9.674  12.231  0.00  0.00    +0.000 C 
ATOM     20  C   UNL     1      44.561   9.619  10.785  0.00  0.00    +0.000 C 
BRANCH  18  21
ATOM     21  N   UNL     1      46.656   8.662  11.799  0.00  0.00    +0.000 N 
ATOM     22  H   UNL     1      47.114   8.896  10.923  0.00  0.00    +0.000 HD
BRANCH  21  23
ATOM     23  C   UNL     1      47.542   8.253  12.805  0.00  0.00    +0.000 A 
ATOM     24  C   UNL     1      48.347   7.115  12.751  0.00  0.00    +0.000 A 
ATOM     25  C   UNL     1      49.099   6.712  13.872  0.00  0.00    +0.000 A 
ATOM     26  C   UNL     1      49.068   7.454  15.056  0.00  0.00    +0.000 A 
ATOM     27  C   UNL     1      48.283   8.605  15.116  0.00  0.00    +0.000 A 
ATOM     28  C   UNL     1      47.530   8.990  14.002  0.00  0.00    +0.000 A 
BRANCH  26  29
ATOM     29  C   UNL     1      49.828   6.968  16.234  0.00  0.00    +0.000 C 
ATOM     30  N   UNL     1      49.705   7.680  17.398  0.00  0.00    +0.000 N 
ATOM     31  O   UNL     1      50.547   5.981  16.175  0.00  0.00    +0.000 OA
ATOM     32  H   UNL     1      49.305   8.605  17.434  0.00  0.00    +0.000 HD
ATOM     33  H   UNL     1      50.276   7.378  18.175  0.00  0.00    +0.000 HD
ENDBRANCH  26  29
ENDBRANCH  21  23
ENDBRANCH  18  21
ENDBRANCH   4  18
BRANCH   1  35
ATOM     34  C   UNL     1      43.310   2.342  12.091  0.00  0.00    +0.000 C 
ATOM     35  O   UNL     1      43.132   3.300  11.057  0.00  0.00    +0.000 OA
ENDBRANCH   1  35
TORSDOF 7
ENDMDL
MODEL 8
REMARK VINA RESULT:    -7.307      3.174      8.519
REMARK INTER + INTRA:         -10.582
REMARK INTER:                  -9.076
REMARK INTRA:                  -1.505
REMARK UNBOUND:                -0.284
REMARK  Name = 
REMARK  8 active torsions:
REMARK  status: ('A' for Active; 'I' for Inactive)
REMARK    1  A    between atoms: C_1  and  O_2
REMARK    2  A    between atoms: O_2  and  C_3
REMARK    3  A    between atoms: C_6  and  C_7
REMARK    4  A    between atoms: C_7  and  N_8
REMARK    5  A    between atoms: N_8  and  C_9
REMARK    6  A    between atoms: C_12  and  C_13
REMARK    7  A    between atoms: C_21  and  C_22
REMARK    8  A    between atoms: C_25  and  C_26
REMARK                            x       y       z     vdW  Elec       q    Type
REMARK                         _______ _______ _______ _____ _____    ______ ____
ROOT
ATOM      1  C   UNL     1      46.226   9.034  12.110  0.00  0.00    +0.000 A 
ATOM      2  C   UNL     1      47.077  10.144  12.229  0.00  0.00    +0.000 A 
ATOM      3  C   UNL     1      48.468   9.980  12.262  0.00  0.00    +0.000 A 
ATOM      4  C   UNL     1      49.044   8.708  12.247  0.00  0.00    +0.000 A 
ATOM      5  C   UNL     1      48.164   7.613  12.254  0.00  0.00    +0.000 A 
ATOM      6  C   UNL     1      46.768   7.732  12.089  0.00  0.00    +0.000 A 
ENDROOT
BRANCH   6   7
ATOM      7  C   UNL     1      45.992   6.506  11.757  0.00  0.00    +0.000 A 
ATOM      8  C   UNL     1      45.849   6.011  10.453  0.00  0.00    +0.000 A 
ATOM      9  C   UNL     1      45.181   4.804  10.203  0.00  0.00    +0.000 A 
ATOM     10  C   UNL     1      44.615   4.074  11.252  0.00  0.00    +0.000 A 
ATOM     11  C   UNL     1      44.705   4.564  12.554  0.00  0.00    +0.000 A 
ATOM     12  C   UNL     1      45.398   5.755  12.796  0.00  0.00    +0.000 A 
BRANCH  10  13
ATOM     13  C   UNL     1      43.913   2.802  10.940  0.00  0.00    +0.000 C 
ATOM     14  N   UNL     1      44.385   2.061   9.890  0.00  0.00    +0.000 N 
ATOM     15  O   UNL     1      42.931   2.436  11.571  0.00  0.00    +0.000 OA
ATOM     16  H   UNL     1      45.022   2.433   9.201  0.00  0.00    +0.000 HD
ATOM     17  H   UNL     1      43.831   1.256   9.632  0.00  0.00    +0.000 HD
ENDBRANCH  10  13
ENDBRANCH   6   7
BRANCH   4  18
ATOM     18  C   UNL     1      50.556   8.489  12.178  0.00  0.00    +0.000 C 
ATOM     19  C   UNL     1      51.298   9.115  11.013  0.00  0.00    +0.000 C 
ATOM     20  C   UNL     1      51.076   7.648  11.004  0.00  0.00    +0.000 C 
BRANCH  18  21
ATOM     21  N   UNL     1      51.124   8.116  13.476  0.00  0.00    +0.000 N 
ATOM     22  H   UNL     1      52.053   7.707  13.445  0.00  0.00    +0.000 HD
BRANCH  21  23
ATOM     23  C   UNL     1      50.520   8.046  14.738  0.00  0.00    +0.000 A 
ATOM     24  C   UNL     1      49.966   6.894  15.300  0.00  0.00    +0.000 A 
ATOM     25  C   UNL     1      49.256   6.956  16.515  0.00  0.00    +0.000 A 
ATOM     26  C   UNL     1      49.107   8.170  17.193  0.00  0.00    +0.000 A 
ATOM     27  C   UNL     1      49.674   9.324  16.652  0.00  0.00    +0.000 A 
ATOM     28  C   UNL     1      50.366   9.254  15.439  0.00  0.00    +0.000 A 
BRANCH  26  29
ATOM     29  C   UNL     1      48.305   8.207  18.440  0.00  0.00    +0.000 C 
ATOM     30  N   UNL     1      47.231   7.362  18.521  0.00  0.00    +0.000 N 
ATOM     31  O   UNL     1      48.576   8.968  19.359  0.00  0.00    +0.000 OA
ATOM     32  H   UNL     1      46.848   6.884  17.719  0.00  0.00    +0.000 HD
ATOM     33  H   UNL     1      46.654   7.440  19.347  0.00  0.00    +0.000 HD
ENDBRANCH  26  29
ENDBRANCH  21  23
ENDBRANCH  18  21
ENDBRANCH   4  18
BRANCH   1  35
ATOM     34  C   UNL     1      44.335  10.389  11.585  0.00  0.00    +0.000 C 
ATOM     35  O   UNL     1      44.862   9.150  12.037  0.00  0.00    +0.000 OA
ENDBRANCH   1  35
TORSDOF 7
ENDMDL
