MODEL 1
REMARK VINA RESULT:    -8.364      0.000      0.000
REMARK INTER + INTRA:          -9.046
REMARK INTER:                 -10.564
REMARK INTRA:                   1.518
REMARK UNBOUND:                 1.518
REMARK  Name = 
REMARK  6 active torsions:
REMARK  status: ('A' for Active; 'I' for Inactive)
REMARK    1  A    between atoms: C_1  and  O_2
REMARK    2  A    between atoms: O_2  and  C_3
REMARK    3  A    between atoms: C_5  and  N_6
REMARK    4  A    between atoms: C_5  and  C_16
REMARK    5  A    between atoms: C_10  and  C_11
REMARK    6  A    between atoms: C_19  and  O_20
REMARK                            x       y       z     vdW  Elec       q    Type
REMARK                         _______ _______ _______ _____ _____    ______ ____
ROOT
ATOM      1  C   UNL     1      43.895   4.695  12.796  0.00  0.00    +0.000 C 
ATOM      2  C   UNL     1      43.220   5.196  11.498  0.00  0.00    +0.000 C 
ATOM      3  C   UNL     1      44.558   5.903  11.122  0.00  0.00    +0.000 C 
ATOM      4  C   UNL     1      45.251   4.868  12.079  0.00  0.00    +0.000 C 
ENDROOT
BRANCH   3   5
ATOM      5  N   UNL     1      44.935   5.622   9.760  0.00  0.00    +0.000 N 
ATOM      6  C   UNL     1      45.422   4.445   9.191  0.00  0.00    +0.000 A 
ATOM      7  C   UNL     1      45.184   3.180   9.703  0.00  0.00    +0.000 A 
ATOM      8  C   UNL     1      45.702   2.061   9.046  0.00  0.00    +0.000 A 
ATOM      9  C   UNL     1      46.447   2.222   7.879  0.00  0.00    +0.000 A 
ATOM     10  C   UNL     1      46.620   3.518   7.427  0.00  0.00    +0.000 A 
ATOM     11  N   UNL     1      46.131   4.622   8.054  0.00  0.00    +0.000 NA
ATOM     12  H   UNL     1      45.379   6.385   9.255  0.00  0.00    +0.000 HD
BRANCH   9  13
ATOM     13  C   UNL     1      47.003   1.023   7.208  0.00  0.00    +0.000 C 
ATOM     14  N   UNL     1      46.658  -0.219   7.664  0.00  0.00    +0.000 N 
ATOM     15  O   UNL     1      47.757   1.129   6.247  0.00  0.00    +0.000 OA
ATOM     16  H   UNL     1      46.043  -0.421   8.435  0.00  0.00    +0.000 HD
ATOM     17  H   UNL     1      47.048  -1.005   7.159  0.00  0.00    +0.000 HD
ENDBRANCH   9  13
ENDBRANCH   3   5
BRANCH   3  18
ATOM     18  C   UNL     1      44.783   7.458  11.481  0.00  0.00    +0.000 A 
ATOM     19  C   UNL     1      43.971   8.489  10.958  0.00  0.00    +0.000 A 
ATOM     20  C   UNL     1      44.203   9.844  11.224  0.00  0.00    +0.000 A 
ATOM     21  C   UNL     1      45.262  10.204  12.040  0.00  0.00    +0.000 A 
ATOM     22  C   UNL     1      46.080   9.234  12.595  0.00  0.00    +0.000 A 
ATOM     23  C   UNL     1      45.837   7.882  12.319  0.00  0.00    +0.000 A 
BRANCH  21  24
ATOM     24  O   UNL     1      45.532  11.512  12.314  0.00  0.00    +0.000 OA
ATOM     25  H   UNL     1      45.957  11.565  13.185  0.00  0.00    +0.000 HD
ENDBRANCH  21  24
ENDBRANCH   3  18
BRANCH   1  27
ATOM     26  C   UNL     1      43.434   2.397  12.141  0.00  0.00    +0.000 C 
ATOM     27  O   UNL     1      43.525   3.355  13.185  0.00  0.00    +0.000 OA
ENDBRANCH   1  27
TORSDOF 5
ENDMDL
MODEL 2
REMARK VINA RESULT:    -7.261      2.100      6.929
REMARK INTER + INTRA:          -7.654
REMARK INTER:                  -8.390
REMARK INTRA:                   0.736
REMARK UNBOUND:                 1.518
REMARK  Name = 
REMARK  6 active torsions:
REMARK  status: ('A' for Active; 'I' for Inactive)
REMARK    1  A    between atoms: C_1  and  O_2
REMARK    2  A    between atoms: O_2  and  C_3
REMARK    3  A    between atoms: C_5  and  N_6
REMARK    4  A    between atoms: C_5  and  C_16
REMARK    5  A    between atoms: C_10  and  C_11
REMARK    6  A    between atoms: C_19  and  O_20
REMARK                            x       y       z     vdW  Elec       q    Type
REMARK                         _______ _______ _______ _____ _____    ______ ____
ROOT
ATOM      1  C   UNL     1      43.909   2.896  11.690  0.00  0.00    +0.000 C 
ATOM      2  C   UNL     1      45.252   3.653  11.814  0.00  0.00    +0.000 C 
ATOM      3  C   UNL     1      45.001   4.250  10.396  0.00  0.00    +0.000 C 
ATOM      4  C   UNL     1      43.481   3.962  10.659  0.00  0.00    +0.000 C 
ENDROOT
BRANCH   3   5
ATOM      5  N   UNL     1      45.224   5.674  10.380  0.00  0.00    +0.000 N 
ATOM      6  C   UNL     1      45.890   6.485  11.299  0.00  0.00    +0.000 A 
ATOM      7  C   UNL     1      46.885   6.035  12.153  0.00  0.00    +0.000 A 
ATOM      8  C   UNL     1      47.504   6.934  13.024  0.00  0.00    +0.000 A 
ATOM      9  C   UNL     1      47.125   8.275  13.026  0.00  0.00    +0.000 A 
ATOM     10  C   UNL     1      46.138   8.643  12.128  0.00  0.00    +0.000 A 
ATOM     11  N   UNL     1      45.517   7.784  11.276  0.00  0.00    +0.000 NA
ATOM     12  H   UNL     1      44.468   6.238  10.001  0.00  0.00    +0.000 HD
BRANCH   9  13
ATOM     13  C   UNL     1      47.783   9.209  13.971  0.00  0.00    +0.000 C 
ATOM     14  N   UNL     1      47.531   9.092  15.310  0.00  0.00    +0.000 N 
ATOM     15  O   UNL     1      48.555  10.073  13.571  0.00  0.00    +0.000 OA
ATOM     16  H   UNL     1      46.925   8.417  15.746  0.00  0.00    +0.000 HD
ATOM     17  H   UNL     1      48.020   9.740  15.915  0.00  0.00    +0.000 HD
ENDBRANCH   9  13
ENDBRANCH   3   5
BRANCH   3  18
ATOM     18  C   UNL     1      45.639   3.545   9.094  0.00  0.00    +0.000 A 
ATOM     19  C   UNL     1      45.762   2.143   8.967  0.00  0.00    +0.000 A 
ATOM     20  C   UNL     1      46.369   1.534   7.861  0.00  0.00    +0.000 A 
ATOM     21  C   UNL     1      46.864   2.323   6.837  0.00  0.00    +0.000 A 
ATOM     22  C   UNL     1      46.754   3.703   6.901  0.00  0.00    +0.000 A 
ATOM     23  C   UNL     1      46.146   4.299   8.014  0.00  0.00    +0.000 A 
BRANCH  21  24
ATOM     24  O   UNL     1      47.474   1.773   5.750  0.00  0.00    +0.000 OA
ATOM     25  H   UNL     1      47.066   2.136   4.948  0.00  0.00    +0.000 HD
ENDBRANCH  21  24
ENDBRANCH   3  18
BRANCH   1  27
ATOM     26  C   UNL     1      43.049   4.021  13.668  0.00  0.00    +0.000 C 
ATOM     27  O   UNL     1      43.147   2.822  12.914  0.00  0.00    +0.000 OA
ENDBRANCH   1  27
TORSDOF 5
ENDMDL
MODEL 3
REMARK VINA RESULT:    -7.194      4.692      6.547
REMARK INTER + INTRA:          -7.569
REMARK INTER:                  -7.377
REMARK INTRA:                  -0.192
REMARK UNBOUND:                 1.518
REMARK  Name = 
REMARK  6 active torsions:
REMARK  status: ('A' for Active; 'I' for Inactive)
REMARK    1  A    between atoms: C_1  and  O_2
REMARK    2  A    between atoms: O_2  and  C_3
REMARK    3  A    between atoms: C_5  and  N_6
REMARK    4  A    between atoms: C_5  and  C_16
REMARK    5  A    between atoms: C_10  and  C_11
REMARK    6  A    between atoms: C_19  and  O_20
REMARK                            x       y       z     vdW  Elec       q    Type
REMARK                         _______ _______ _______ _____ _____    ______ ____
ROOT
ATOM      1  C   UNL     1      44.481   6.531  11.494  0.00  0.00    +0.000 C 
ATOM      2  C   UNL     1      45.598   5.496  11.220  0.00  0.00    +0.000 C 
ATOM      3  C   UNL     1      46.142   5.763  12.657  0.00  0.00    +0.000 C 
ATOM      4  C   UNL     1      44.693   6.261  12.999  0.00  0.00    +0.000 C 
ENDROOT
BRANCH   3   5
ATOM      5  N   UNL     1      46.403   4.530  13.356  0.00  0.00    +0.000 N 
ATOM      6  C   UNL     1      47.064   4.310  14.564  0.00  0.00    +0.000 A 
ATOM      7  C   UNL     1      47.175   5.256  15.571  0.00  0.00    +0.000 A 
ATOM      8  C   UNL     1      47.842   4.929  16.754  0.00  0.00    +0.000 A 
ATOM      9  C   UNL     1      48.387   3.656  16.917  0.00  0.00    +0.000 A 
ATOM     10  C   UNL     1      48.214   2.768  15.870  0.00  0.00    +0.000 A 
ATOM     11  N   UNL     1      47.574   3.067  14.708  0.00  0.00    +0.000 NA
ATOM     12  H   UNL     1      46.603   3.722  12.772  0.00  0.00    +0.000 HD
BRANCH   9  13
ATOM     13  C   UNL     1      49.107   3.336  18.173  0.00  0.00    +0.000 C 
ATOM     14  N   UNL     1      48.397   3.186  19.331  0.00  0.00    +0.000 N 
ATOM     15  O   UNL     1      50.325   3.195  18.184  0.00  0.00    +0.000 OA
ATOM     16  H   UNL     1      47.399   3.271  19.434  0.00  0.00    +0.000 HD
ATOM     17  H   UNL     1      48.934   2.949  20.157  0.00  0.00    +0.000 HD
ENDBRANCH   9  13
ENDBRANCH   3   5
BRANCH   3  18
ATOM     18  C   UNL     1      47.329   6.828  12.890  0.00  0.00    +0.000 A 
ATOM     19  C   UNL     1      48.660   6.594  12.476  0.00  0.00    +0.000 A 
ATOM     20  C   UNL     1      49.702   7.494  12.731  0.00  0.00    +0.000 A 
ATOM     21  C   UNL     1      49.431   8.672  13.407  0.00  0.00    +0.000 A 
ATOM     22  C   UNL     1      48.142   8.961  13.821  0.00  0.00    +0.000 A 
ATOM     23  C   UNL     1      47.109   8.051  13.561  0.00  0.00    +0.000 A 
BRANCH  21  24
ATOM     24  O   UNL     1      50.417   9.569  13.689  0.00  0.00    +0.000 OA
ATOM     25  H   UNL     1      50.061  10.245  14.287  0.00  0.00    +0.000 HD
ENDBRANCH  21  24
ENDBRANCH   3  18
BRANCH   1  27
ATOM     26  C   UNL     1      42.302   5.492  11.802  0.00  0.00    +0.000 C 
ATOM     27  O   UNL     1      43.194   6.183  10.939  0.00  0.00    +0.000 OA
ENDBRANCH   1  27
TORSDOF 5
ENDMDL
MODEL 4
REMARK VINA RESULT:    -6.880      4.070      7.262
REMARK INTER + INTRA:          -7.172
REMARK INTER:                  -7.251
REMARK INTRA:                   0.079
REMARK UNBOUND:                 1.518
REMARK  Name = 
REMARK  6 active torsions:
REMARK  status: ('A' for Active; 'I' for Inactive)
REMARK    1  A    between atoms: C_1  and  O_2
REMARK    2  A    between atoms: O_2  and  C_3
REMARK    3  A    between atoms: C_5  and  N_6
REMARK    4  A    between atoms: C_5  and  C_16
REMARK    5  A    between atoms: C_10  and  C_11
REMARK    6  A    between atoms: C_19  and  O_20
REMARK                            x       y       z     vdW  Elec       q    Type
REMARK                         _______ _______ _______ _____ _____    ______ ____
ROOT
ATOM      1  C   UNL     1      45.083   8.478  11.570  0.00  0.00    +0.000 C 
ATOM      2  C   UNL     1      45.300   8.037  13.037  0.00  0.00    +0.000 C 
ATOM      3  C   UNL     1      46.021   6.761  12.505  0.00  0.00    +0.000 C 
ATOM      4  C   UNL     1      46.284   7.584  11.194  0.00  0.00    +0.000 C 
ENDROOT
BRANCH   3   5
ATOM      5  N   UNL     1      47.269   6.540  13.191  0.00  0.00    +0.000 N 
ATOM      6  C   UNL     1      47.540   5.792  14.337  0.00  0.00    +0.000 A 
ATOM      7  C   UNL     1      46.768   4.723  14.765  0.00  0.00    +0.000 A 
ATOM      8  C   UNL     1      47.136   4.025  15.917  0.00  0.00    +0.000 A 
ATOM      9  C   UNL     1      48.276   4.401  16.626  0.00  0.00    +0.000 A 
ATOM     10  C   UNL     1      48.998   5.466  16.118  0.00  0.00    +0.000 A 
ATOM     11  N   UNL     1      48.655   6.164  15.002  0.00  0.00    +0.000 NA
ATOM     12  H   UNL     1      47.912   7.328  13.210  0.00  0.00    +0.000 HD
BRANCH   9  13
ATOM     13  C   UNL     1      48.638   3.658  17.857  0.00  0.00    +0.000 C 
ATOM     14  N   UNL     1      48.062   4.012  19.045  0.00  0.00    +0.000 N 
ATOM     15  O   UNL     1      49.435   2.728  17.821  0.00  0.00    +0.000 OA
ATOM     16  H   UNL     1      47.392   4.750  19.186  0.00  0.00    +0.000 HD
ATOM     17  H   UNL     1      48.327   3.461  19.852  0.00  0.00    +0.000 HD
ENDBRANCH   9  13
ENDBRANCH   3   5
BRANCH   3  18
ATOM     18  C   UNL     1      45.204   5.384  12.323  0.00  0.00    +0.000 A 
ATOM     19  C   UNL     1      45.581   4.389  11.392  0.00  0.00    +0.000 A 
ATOM     20  C   UNL     1      44.837   3.219  11.193  0.00  0.00    +0.000 A 
ATOM     21  C   UNL     1      43.689   3.009  11.937  0.00  0.00    +0.000 A 
ATOM     22  C   UNL     1      43.282   3.943  12.876  0.00  0.00    +0.000 A 
ATOM     23  C   UNL     1      44.035   5.109  13.064  0.00  0.00    +0.000 A 
BRANCH  21  24
ATOM     24  O   UNL     1      42.928   1.891  11.766  0.00  0.00    +0.000 OA
ATOM     25  H   UNL     1      43.369   1.145  12.203  0.00  0.00    +0.000 HD
ENDBRANCH  21  24
ENDBRANCH   3  18
BRANCH   1  27
ATOM     26  C   UNL     1      46.396  10.505  11.864  0.00  0.00    +0.000 C 
ATOM     27  O   UNL     1      45.223   9.897  11.343  0.00  0.00    +0.000 OA
ENDBRANCH   1  27
TORSDOF 5
ENDMDL
MODEL 5
REMARK VINA RESULT:    -6.737      4.147      6.405
REMARK INTER + INTRA:          -6.992
REMARK INTER:                  -6.757
REMARK INTRA:                  -0.235
REMARK UNBOUND:                 1.518
REMARK  Name = 
REMARK  6 active torsions:
REMARK  status: ('A' for Active; 'I' for Inactive)
REMARK    1  A    between atoms: C_1  and  O_2
REMARK    2  A    between atoms: O_2  and  C_3
REMARK    3  A    between atoms: C_5  and  N_6
REMARK    4  A    between atoms: C_5  and  C_16
REMARK    5  A    between atoms: C_10  and  C_11
REMARK    6  A    between atoms: C_19  and  O_20
REMARK                            x       y       z     vdW  Elec       q    Type
REMARK                         _______ _______ _______ _____ _____    ______ ____
ROOT
ATOM      1  C   UNL     1      50.641   8.587  12.060  0.00  0.00    +0.000 C 
ATOM      2  C   UNL     1      49.702   7.359  12.127  0.00  0.00    +0.000 C 
ATOM      3  C   UNL     1      48.712   8.211  12.978  0.00  0.00    +0.000 C 
ATOM      4  C   UNL     1      49.400   9.465  12.330  0.00  0.00    +0.000 C 
ENDROOT
BRANCH   3   5
ATOM      5  N   UNL     1      47.363   8.096  12.485  0.00  0.00    +0.000 N 
ATOM      6  C   UNL     1      46.545   6.971  12.373  0.00  0.00    +0.000 A 
ATOM      7  C   UNL     1      46.677   5.835  13.157  0.00  0.00    +0.000 A 
ATOM      8  C   UNL     1      45.793   4.769  12.980  0.00  0.00    +0.000 A 
ATOM      9  C   UNL     1      44.782   4.854  12.024  0.00  0.00    +0.000 A 
ATOM     10  C   UNL     1      44.711   6.030  11.299  0.00  0.00    +0.000 A 
ATOM     11  N   UNL     1      45.565   7.078  11.450  0.00  0.00    +0.000 NA
ATOM     12  H   UNL     1      47.123   8.699  11.702  0.00  0.00    +0.000 HD
BRANCH   9  13
ATOM     13  C   UNL     1      43.866   3.703  11.840  0.00  0.00    +0.000 C 
ATOM     14  N   UNL     1      44.047   2.577  12.594  0.00  0.00    +0.000 N 
ATOM     15  O   UNL     1      42.946   3.751  11.031  0.00  0.00    +0.000 OA
ATOM     16  H   UNL     1      44.760   2.434  13.290  0.00  0.00    +0.000 HD
ATOM     17  H   UNL     1      43.383   1.828  12.444  0.00  0.00    +0.000 HD
ENDBRANCH   9  13
ENDBRANCH   3   5
BRANCH   3  18
ATOM     18  C   UNL     1      48.754   8.137  14.587  0.00  0.00    +0.000 A 
ATOM     19  C   UNL     1      49.304   7.040  15.289  0.00  0.00    +0.000 A 
ATOM     20  C   UNL     1      49.287   6.950  16.686  0.00  0.00    +0.000 A 
ATOM     21  C   UNL     1      48.721   7.973  17.426  0.00  0.00    +0.000 A 
ATOM     22  C   UNL     1      48.182   9.081  16.792  0.00  0.00    +0.000 A 
ATOM     23  C   UNL     1      48.204   9.158  15.393  0.00  0.00    +0.000 A 
BRANCH  21  24
ATOM     24  O   UNL     1      48.670   7.919  18.787  0.00  0.00    +0.000 OA
ATOM     25  H   UNL     1      49.564   7.753  19.125  0.00  0.00    +0.000 HD
ENDBRANCH  21  24
ENDBRANCH   3  18
BRANCH   1  27
ATOM     26  C   UNL     1      52.058   7.657  10.315  0.00  0.00    +0.000 C 
ATOM     27  O   UNL     1      51.307   8.764  10.791  0.00  0.00    +0.000 OA
ENDBRANCH   1  27
TORSDOF 5
ENDMDL
MODEL 6
REMARK VINA RESULT:    -6.560      4.564      7.579
REMARK INTER + INTRA:          -6.769
REMARK INTER:                  -8.000
REMARK INTRA:                   1.231
REMARK UNBOUND:                 1.518
REMARK  Name = 
REMARK  6 active torsions:
REMARK  status: ('A' for Active; 'I' for Inactive)
REMARK    1  A    between atoms: C_1  and  O_2
REMARK    2  A    between atoms: O_2  and  C_3
REMARK    3  A    between atoms: C_5  and  N_6
REMARK    4  A    between atoms: C_5  and  C_16
REMARK    5  A    between atoms: C_10  and  C_11
REMARK    6  A    between atoms: C_19  and  O_20
REMARK                            x       y       z     vdW  Elec       q    Type
REMARK                         _______ _______ _______ _____ _____    ______ ____
ROOT
ATOM      1  C   UNL     1      47.029   7.794  12.154  0.00  0.00    +0.000 C 
ATOM      2  C   UNL     1      45.726   7.372  12.873  0.00  0.00    +0.000 C 
ATOM      3  C   UNL     1      46.180   5.887  12.741  0.00  0.00    +0.000 C 
ATOM      4  C   UNL     1      47.639   6.454  12.618  0.00  0.00    +0.000 C 
ENDROOT
BRANCH   3   5
ATOM      5  N   UNL     1      46.042   5.183  13.990  0.00  0.00    +0.000 N 
ATOM      6  C   UNL     1      46.967   4.995  15.018  0.00  0.00    +0.000 A 
ATOM      7  C   UNL     1      48.031   5.847  15.269  0.00  0.00    +0.000 A 
ATOM      8  C   UNL     1      48.891   5.581  16.336  0.00  0.00    +0.000 A 
ATOM      9  C   UNL     1      48.672   4.467  17.145  0.00  0.00    +0.000 A 
ATOM     10  C   UNL     1      47.576   3.681  16.836  0.00  0.00    +0.000 A 
ATOM     11  N   UNL     1      46.730   3.918  15.798  0.00  0.00    +0.000 NA
ATOM     12  H   UNL     1      45.471   4.341  13.966  0.00  0.00    +0.000 HD
BRANCH   9  13
ATOM     13  C   UNL     1      49.607   4.193  18.262  0.00  0.00    +0.000 C 
ATOM     14  N   UNL     1      50.451   3.121  18.179  0.00  0.00    +0.000 N 
ATOM     15  O   UNL     1      49.641   4.917  19.251  0.00  0.00    +0.000 OA
ATOM     16  H   UNL     1      50.514   2.469  17.414  0.00  0.00    +0.000 HD
ATOM     17  H   UNL     1      51.084   2.989  18.958  0.00  0.00    +0.000 HD
ENDBRANCH   9  13
ENDBRANCH   3   5
BRANCH   3  18
ATOM     18  C   UNL     1      45.666   4.988  11.505  0.00  0.00    +0.000 A 
ATOM     19  C   UNL     1      45.699   5.439  10.165  0.00  0.00    +0.000 A 
ATOM     20  C   UNL     1      45.199   4.680   9.100  0.00  0.00    +0.000 A 
ATOM     21  C   UNL     1      44.655   3.433   9.350  0.00  0.00    +0.000 A 
ATOM     22  C   UNL     1      44.612   2.933  10.642  0.00  0.00    +0.000 A 
ATOM     23  C   UNL     1      45.115   3.703  11.699  0.00  0.00    +0.000 A 
BRANCH  21  24
ATOM     24  O   UNL     1      44.144   2.668   8.344  0.00  0.00    +0.000 OA
ATOM     25  H   UNL     1      43.827   1.831   8.721  0.00  0.00    +0.000 HD
ENDBRANCH  21  24
ENDBRANCH   3  18
BRANCH   1  27
ATOM     26  C   UNL     1      47.026  10.224  12.272  0.00  0.00    +0.000 C 
ATOM     27  O   UNL     1      47.632   9.002  12.666  0.00  0.00    +0.000 OA
ENDBRANCH   1  27
TORSDOF 5
ENDMDL
MODEL 7
REMARK VINA RESULT:    -6.524      4.050      5.931
REMARK INTER + INTRA:          -6.722
REMARK INTER:                  -6.920
REMARK INTRA:                   0.198
REMARK UNBOUND:                 1.518
REMARK  Name = 
REMARK  6 active torsions:
REMARK  status: ('A' for Active; 'I' for Inactive)
REMARK    1  A    between atoms: C_1  and  O_2
REMARK    2  A    between atoms: O_2  and  C_3
REMARK    3  A    between atoms: C_5  and  N_6
REMARK    4  A    between atoms: C_5  and  C_16
REMARK    5  A    between atoms: C_10  and  C_11
REMARK    6  A    between atoms: C_19  and  O_20
REMARK                            x       y       z     vdW  Elec       q    Type
REMARK                         _______ _______ _______ _____ _____    ______ ____
ROOT
ATOM      1  C   UNL     1      49.136   7.610  16.028  0.00  0.00    +0.000 C 
ATOM      2  C   UNL     1      48.280   8.802  15.537  0.00  0.00    +0.000 C 
ATOM      3  C   UNL     1      48.153   8.091  14.155  0.00  0.00    +0.000 C 
ATOM      4  C   UNL     1      48.461   6.760  14.930  0.00  0.00    +0.000 C 
ENDROOT
BRANCH   3   5
ATOM      5  N   UNL     1      46.787   8.074  13.697  0.00  0.00    +0.000 N 
ATOM      6  C   UNL     1      46.123   7.144  12.898  0.00  0.00    +0.000 A 
ATOM      7  C   UNL     1      46.493   5.812  12.787  0.00  0.00    +0.000 A 
ATOM      8  C   UNL     1      45.749   4.955  11.973  0.00  0.00    +0.000 A 
ATOM      9  C   UNL     1      44.638   5.439  11.284  0.00  0.00    +0.000 A 
ATOM     10  C   UNL     1      44.329   6.776  11.467  0.00  0.00    +0.000 A 
ATOM     11  N   UNL     1      45.043   7.629  12.248  0.00  0.00    +0.000 NA
ATOM     12  H   UNL     1      46.383   8.980  13.472  0.00  0.00    +0.000 HD
BRANCH   9  13
ATOM     13  C   UNL     1      43.874   4.517  10.411  0.00  0.00    +0.000 C 
ATOM     14  N   UNL     1      44.050   4.577   9.057  0.00  0.00    +0.000 N 
ATOM     15  O   UNL     1      43.096   3.697  10.886  0.00  0.00    +0.000 OA
ATOM     16  H   UNL     1      44.666   5.202   8.563  0.00  0.00    +0.000 HD
ATOM     17  H   UNL     1      43.520   3.913   8.507  0.00  0.00    +0.000 HD
ENDBRANCH   9  13
ENDBRANCH   3   5
BRANCH   3  18
ATOM     18  C   UNL     1      49.166   8.460  12.957  0.00  0.00    +0.000 A 
ATOM     19  C   UNL     1      49.847   7.478  12.202  0.00  0.00    +0.000 A 
ATOM     20  C   UNL     1      50.772   7.800  11.200  0.00  0.00    +0.000 A 
ATOM     21  C   UNL     1      51.032   9.130  10.918  0.00  0.00    +0.000 A 
ATOM     22  C   UNL     1      50.380  10.134  11.616  0.00  0.00    +0.000 A 
ATOM     23  C   UNL     1      49.459   9.798  12.616  0.00  0.00    +0.000 A 
BRANCH  21  24
ATOM     24  O   UNL     1      51.934   9.489   9.962  0.00  0.00    +0.000 OA
ATOM     25  H   UNL     1      52.692   9.913  10.393  0.00  0.00    +0.000 HD
ENDBRANCH  21  24
ENDBRANCH   3  18
BRANCH   1  27
ATOM     26  C   UNL     1      49.688   6.158  17.901  0.00  0.00    +0.000 C 
ATOM     27  O   UNL     1      48.896   7.224  17.398  0.00  0.00    +0.000 OA
ENDBRANCH   1  27
TORSDOF 5
ENDMDL
MODEL 8
REMARK VINA RESULT:    -6.167      4.144      6.350
REMARK INTER + INTRA:          -6.272
REMARK INTER:                  -5.997
REMARK INTRA:                  -0.275
REMARK UNBOUND:                 1.518
REMARK  Name = 
REMARK  6 active torsions:
REMARK  status: ('A' for Active; 'I' for Inactive)
REMARK    1  A    between atoms: C_1  and  O_2
REMARK    2  A    between atoms: O_2  and  C_3
REMARK    3  A    between atoms: C_5  and  N_6
REMARK    4  A    between atoms: C_5  and  C_16
REMARK    5  A    between atoms: C_10  and  C_11
REMARK    6  A    between atoms: C_19  and  O_20
REMARK                            x       y       z     vdW  Elec       q    Type
REMARK                         _______ _______ _______ _____ _____    ______ ____
ROOT
ATOM      1  C   UNL     1      49.654   8.037  16.644  0.00  0.00    +0.000 C 
ATOM      2  C   UNL     1      48.240   7.940  16.022  0.00  0.00    +0.000 C 
ATOM      3  C   UNL     1      48.899   7.439  14.701  0.00  0.00    +0.000 C 
ATOM      4  C   UNL     1      50.112   7.000  15.596  0.00  0.00    +0.000 C 
ENDROOT
BRANCH   3   5
ATOM      5  N   UNL     1      48.230   6.268  14.193  0.00  0.00    +0.000 N 
ATOM      6  C   UNL     1      47.020   6.157  13.506  0.00  0.00    +0.000 A 
ATOM      7  C   UNL     1      46.462   7.175  12.749  0.00  0.00    +0.000 A 
ATOM      8  C   UNL     1      45.254   6.956  12.083  0.00  0.00    +0.000 A 
ATOM      9  C   UNL     1      44.621   5.717  12.177  0.00  0.00    +0.000 A 
ATOM     10  C   UNL     1      45.258   4.752  12.938  0.00  0.00    +0.000 A 
ATOM     11  N   UNL     1      46.430   4.945  13.600  0.00  0.00    +0.000 NA
ATOM     12  H   UNL     1      48.311   5.428  14.760  0.00  0.00    +0.000 HD
BRANCH   9  13
ATOM     13  C   UNL     1      43.331   5.511  11.477  0.00  0.00    +0.000 C 
ATOM     14  N   UNL     1      42.254   6.280  11.821  0.00  0.00    +0.000 N 
ATOM     15  O   UNL     1      43.220   4.672  10.590  0.00  0.00    +0.000 OA
ATOM     16  H   UNL     1      42.236   7.000  12.524  0.00  0.00    +0.000 HD
ATOM     17  H   UNL     1      41.402   6.114  11.300  0.00  0.00    +0.000 HD
ENDBRANCH   9  13
ENDBRANCH   3   5
BRANCH   3  18
ATOM     18  C   UNL     1      49.235   8.479  13.516  0.00  0.00    +0.000 A 
ATOM     19  C   UNL     1      48.749   9.806  13.502  0.00  0.00    +0.000 A 
ATOM     20  C   UNL     1      48.993  10.691  12.444  0.00  0.00    +0.000 A 
ATOM     21  C   UNL     1      49.749  10.267  11.365  0.00  0.00    +0.000 A 
ATOM     22  C   UNL     1      50.266   8.982  11.334  0.00  0.00    +0.000 A 
ATOM     23  C   UNL     1      50.013   8.107  12.399  0.00  0.00    +0.000 A 
BRANCH  21  24
ATOM     24  O   UNL     1      50.000  11.090  10.308  0.00  0.00    +0.000 OA
ATOM     25  H   UNL     1      49.209  11.124   9.748  0.00  0.00    +0.000 HD
ENDBRANCH  21  24
ENDBRANCH   3  18
BRANCH   1  27
ATOM     26  C   UNL     1      48.562   7.871  18.812  0.00  0.00    +0.000 C 
ATOM     27  O   UNL     1      49.726   7.644  18.031  0.00  0.00    +0.000 OA
ENDBRANCH   1  27
TORSDOF 5
ENDMDL
MODEL 9
REMARK VINA RESULT:    -5.983      5.030      7.561
REMARK INTER + INTRA:          -6.039
REMARK INTER:                  -5.879
REMARK INTRA:                  -0.160
REMARK UNBOUND:                 1.518
REMARK  Name = 
REMARK  6 active torsions:
REMARK  status: ('A' for Active; 'I' for Inactive)
REMARK    1  A    between atoms: C_1  and  O_2
REMARK    2  A    between atoms: O_2  and  C_3
REMARK    3  A    between atoms: C_5  and  N_6
REMARK    4  A    between atoms: C_5  and  C_16
REMARK    5  A    between atoms: C_10  and  C_11
REMARK    6  A    between atoms: C_19  and  O_20
REMARK                            x       y       z     vdW  Elec       q    Type
REMARK                         _______ _______ _______ _____ _____    ______ ____
ROOT
ATOM      1  C   UNL     1      45.027   6.991  11.461  0.00  0.00    +0.000 C 
ATOM      2  C   UNL     1      46.139   5.930  11.636  0.00  0.00    +0.000 C 
ATOM      3  C   UNL     1      46.850   6.898  12.631  0.00  0.00    +0.000 C 
ATOM      4  C   UNL     1      45.439   7.553  12.838  0.00  0.00    +0.000 C 
ENDROOT
BRANCH   3   5
ATOM      5  N   UNL     1      47.244   6.215  13.837  0.00  0.00    +0.000 N 
ATOM      6  C   UNL     1      48.075   6.638  14.874  0.00  0.00    +0.000 A 
ATOM      7  C   UNL     1      48.298   7.968  15.195  0.00  0.00    +0.000 A 
ATOM      8  C   UNL     1      49.135   8.288  16.267  0.00  0.00    +0.000 A 
ATOM      9  C   UNL     1      49.735   7.271  17.009  0.00  0.00    +0.000 A 
ATOM     10  C   UNL     1      49.443   5.973  16.632  0.00  0.00    +0.000 A 
ATOM     11  N   UNL     1      48.637   5.639  15.588  0.00  0.00    +0.000 NA
ATOM     12  H   UNL     1      47.385   5.211  13.753  0.00  0.00    +0.000 HD
BRANCH   9  13
ATOM     13  C   UNL     1      50.634   7.633  18.131  0.00  0.00    +0.000 C 
ATOM     14  N   UNL     1      50.178   8.469  19.111  0.00  0.00    +0.000 N 
ATOM     15  O   UNL     1      51.774   7.185  18.196  0.00  0.00    +0.000 OA
ATOM     16  H   UNL     1      49.262   8.885  19.161  0.00  0.00    +0.000 HD
ATOM     17  H   UNL     1      50.824   8.669  19.864  0.00  0.00    +0.000 HD
ENDBRANCH   9  13
ENDBRANCH   3   5
BRANCH   3  18
ATOM     18  C   UNL     1      48.016   7.883  12.111  0.00  0.00    +0.000 A 
ATOM     19  C   UNL     1      49.300   7.420  11.743  0.00  0.00    +0.000 A 
ATOM     20  C   UNL     1      50.330   8.283  11.347  0.00  0.00    +0.000 A 
ATOM     21  C   UNL     1      50.095   9.646  11.299  0.00  0.00    +0.000 A 
ATOM     22  C   UNL     1      48.849  10.153  11.633  0.00  0.00    +0.000 A 
ATOM     23  C   UNL     1      47.828   9.279  12.028  0.00  0.00    +0.000 A 
BRANCH  21  24
ATOM     24  O   UNL     1      51.072  10.522  10.934  0.00  0.00    +0.000 OA
ATOM     25  H   UNL     1      51.293  10.370  10.001  0.00  0.00    +0.000 HD
ENDBRANCH  21  24
ENDBRANCH   3  18
BRANCH   1  27
ATOM     26  C   UNL     1      43.599   5.093  10.933  0.00  0.00    +0.000 C 
ATOM     27  O   UNL     1      43.694   6.449  11.344  0.00  0.00    +0.000 OA
ENDBRANCH   1  27
TORSDOF 5
ENDMDL
