MODEL 1
REMARK VINA RESULT:    -8.770      0.000      0.000
REMARK INTER + INTRA:         -12.622
REMARK INTER:                 -11.846
REMARK INTRA:                  -0.776
REMARK UNBOUND:                -0.776
REMARK  Name = 
REMARK  6 active torsions:
REMARK  status: ('A' for Active; 'I' for Inactive)
REMARK    1  A    between atoms: C_2  and  C_25
REMARK    2  A    between atoms: N_3  and  C_4
REMARK    3  A    between atoms: C_4  and  C_5
REMARK    4  A    between atoms: C_8  and  C_9
REMARK    5  A    between atoms: C_9  and  N_10
REMARK    6  A    between atoms: C_11  and  C_13
REMARK                            x       y       z     vdW  Elec       q    Type
REMARK                         _______ _______ _______ _____ _____    ______ ____
ROOT
ATOM      1  C   UNL     1      44.543   5.404  11.341  0.00  0.00    +0.000 A 
ATOM      2  C   UNL     1      45.629   4.852  12.036  0.00  0.00    +0.000 A 
ATOM      3  C   UNL     1      46.506   5.668  12.762  0.00  0.00    +0.000 A 
ATOM      4  C   UNL     1      46.308   7.053  12.829  0.00  0.00    +0.000 A 
ATOM      5  C   UNL     1      45.218   7.603  12.138  0.00  0.00    +0.000 A 
ATOM      6  C   UNL     1      44.340   6.789  11.414  0.00  0.00    +0.000 A 
ENDROOT
BRANCH   1   7
ATOM      7  C   UNL     1      43.641   4.530  10.506  0.00  0.00    +0.000 C 
BRANCH   7  10
ATOM      8  O   UNL     1      45.400   5.211   8.465  0.00  0.00    +0.000 OA
ATOM      9  C   UNL     1      45.226   4.023   8.716  0.00  0.00    +0.000 C 
ATOM     10  N   UNL     1      44.364   3.574   9.700  0.00  0.00    +0.000 N 
ATOM     11  H   UNL     1      44.438   2.622  10.031  0.00  0.00    +0.000 HD
BRANCH   9  12
ATOM     12  C   UNL     1      45.981   2.983   7.970  0.00  0.00    +0.000 A 
ATOM     13  C   UNL     1      46.615   3.336   6.772  0.00  0.00    +0.000 A 
ATOM     14  C   UNL     1      47.325   2.377   6.045  0.00  0.00    +0.000 A 
ATOM     15  C   UNL     1      47.392   1.062   6.508  0.00  0.00    +0.000 A 
ATOM     16  C   UNL     1      46.743   0.701   7.688  0.00  0.00    +0.000 A 
ATOM     17  C   UNL     1      46.034   1.657   8.419  0.00  0.00    +0.000 A 
ENDBRANCH   9  12
ENDBRANCH   7  10
ENDBRANCH   1   7
BRANCH   4  18
ATOM     18  C   UNL     1      47.249   7.950  13.601  0.00  0.00    +0.000 C 
BRANCH  18  19
ATOM     19  N   UNL     1      47.695   7.332  14.826  0.00  0.00    +0.000 N 
ATOM     20  C   UNL     1      48.970   6.836  14.961  0.00  0.00    +0.000 C 
ATOM     21  O   UNL     1      49.804   6.899  14.061  0.00  0.00    +0.000 OA
ATOM     22  H   UNL     1      46.981   7.067  15.500  0.00  0.00    +0.000 HD
BRANCH  20  23
ATOM     23  C   UNL     1      49.283   6.261  16.256  0.00  0.00    +0.000 A 
ATOM     24  C   UNL     1      50.304   6.714  17.076  0.00  0.00    +0.000 A 
ATOM     25  O   UNL     1      50.352   6.014  18.240  0.00  0.00    +0.000 OA
ATOM     26  C   UNL     1      49.375   5.069  18.185  0.00  0.00    +0.000 A 
ATOM     27  N   UNL     1      49.143   4.165  19.170  0.00  0.00    +0.000 NA
ATOM     28  C   UNL     1      48.204   3.323  18.883  0.00  0.00    +0.000 A 
ATOM     29  N   UNL     1      47.472   3.320  17.711  0.00  0.00    +0.000 N 
ATOM     30  C   UNL     1      47.648   4.253  16.721  0.00  0.00    +0.000 A 
ATOM     31  O   UNL     1      46.946   4.288  15.711  0.00  0.00    +0.000 OA
ATOM     32  C   UNL     1      48.707   5.187  16.985  0.00  0.00    +0.000 A 
ATOM     33  H   UNL     1      46.748   2.635  17.560  0.00  0.00    +0.000 HD
ENDBRANCH  20  23
ENDBRANCH  18  19
ENDBRANCH   4  18
TORSDOF 6
ENDMDL
MODEL 2
REMARK VINA RESULT:    -8.558      2.070      2.641
REMARK INTER + INTRA:         -12.336
REMARK INTER:                 -11.425
REMARK INTRA:                  -0.910
REMARK UNBOUND:                -0.776
REMARK  Name = 
REMARK  6 active torsions:
REMARK  status: ('A' for Active; 'I' for Inactive)
REMARK    1  A    between atoms: C_2  and  C_25
REMARK    2  A    between atoms: N_3  and  C_4
REMARK    3  A    between atoms: C_4  and  C_5
REMARK    4  A    between atoms: C_8  and  C_9
REMARK    5  A    between atoms: C_9  and  N_10
REMARK    6  A    between atoms: C_11  and  C_13
REMARK                            x       y       z     vdW  Elec       q    Type
REMARK                         _______ _______ _______ _____ _____    ______ ____
ROOT
ATOM      1  C   UNL     1      45.680   4.429  12.609  0.00  0.00    +0.000 A 
ATOM      2  C   UNL     1      45.914   5.768  12.261  0.00  0.00    +0.000 A 
ATOM      3  C   UNL     1      46.745   6.579  13.045  0.00  0.00    +0.000 A 
ATOM      4  C   UNL     1      47.380   6.066  14.184  0.00  0.00    +0.000 A 
ATOM      5  C   UNL     1      47.151   4.725  14.527  0.00  0.00    +0.000 A 
ATOM      6  C   UNL     1      46.321   3.914  13.744  0.00  0.00    +0.000 A 
ENDROOT
BRANCH   1   7
ATOM      7  C   UNL     1      44.731   3.581  11.801  0.00  0.00    +0.000 C 
BRANCH   7  10
ATOM      8  O   UNL     1      44.240   4.364   9.180  0.00  0.00    +0.000 OA
ATOM      9  C   UNL     1      45.043   3.458   9.380  0.00  0.00    +0.000 C 
ATOM     10  N   UNL     1      45.350   2.982  10.641  0.00  0.00    +0.000 N 
ATOM     11  H   UNL     1      46.180   2.420  10.774  0.00  0.00    +0.000 HD
BRANCH   9  12
ATOM     12  C   UNL     1      45.765   2.834   8.241  0.00  0.00    +0.000 A 
ATOM     13  C   UNL     1      46.172   1.498   8.346  0.00  0.00    +0.000 A 
ATOM     14  C   UNL     1      46.860   0.889   7.295  0.00  0.00    +0.000 A 
ATOM     15  C   UNL     1      47.154   1.617   6.141  0.00  0.00    +0.000 A 
ATOM     16  C   UNL     1      46.772   2.955   6.041  0.00  0.00    +0.000 A 
ATOM     17  C   UNL     1      46.081   3.567   7.089  0.00  0.00    +0.000 A 
ENDBRANCH   9  12
ENDBRANCH   7  10
ENDBRANCH   1   7
BRANCH   4  18
ATOM     18  C   UNL     1      48.275   6.929  15.046  0.00  0.00    +0.000 C 
BRANCH  18  19
ATOM     19  N   UNL     1      49.361   6.172  15.618  0.00  0.00    +0.000 N 
ATOM     20  C   UNL     1      49.344   5.765  16.931  0.00  0.00    +0.000 C 
ATOM     21  O   UNL     1      48.406   6.009  17.687  0.00  0.00    +0.000 OA
ATOM     22  H   UNL     1      50.233   6.145  15.098  0.00  0.00    +0.000 HD
BRANCH  20  23
ATOM     23  C   UNL     1      50.495   4.994  17.363  0.00  0.00    +0.000 A 
ATOM     24  C   UNL     1      51.643   5.554  17.899  0.00  0.00    +0.000 A 
ATOM     25  O   UNL     1      52.546   4.599  18.243  0.00  0.00    +0.000 OA
ATOM     26  C   UNL     1      52.009   3.394  17.908  0.00  0.00    +0.000 A 
ATOM     27  N   UNL     1      52.644   2.209  18.086  0.00  0.00    +0.000 NA
ATOM     28  C   UNL     1      51.973   1.195  17.644  0.00  0.00    +0.000 A 
ATOM     29  N   UNL     1      50.723   1.266  17.060  0.00  0.00    +0.000 N 
ATOM     30  C   UNL     1      50.034   2.443  16.915  0.00  0.00    +0.000 A 
ATOM     31  O   UNL     1      48.892   2.490  16.459  0.00  0.00    +0.000 OA
ATOM     32  C   UNL     1      50.759   3.599  17.362  0.00  0.00    +0.000 A 
ATOM     33  H   UNL     1      50.256   0.429  16.745  0.00  0.00    +0.000 HD
ENDBRANCH  20  23
ENDBRANCH  18  19
ENDBRANCH   4  18
TORSDOF 6
ENDMDL
MODEL 3
REMARK VINA RESULT:    -8.448      1.178      1.770
REMARK INTER + INTRA:         -12.187
REMARK INTER:                 -11.187
REMARK INTRA:                  -1.000
REMARK UNBOUND:                -0.776
REMARK  Name = 
REMARK  6 active torsions:
REMARK  status: ('A' for Active; 'I' for Inactive)
REMARK    1  A    between atoms: C_2  and  C_25
REMARK    2  A    between atoms: N_3  and  C_4
REMARK    3  A    between atoms: C_4  and  C_5
REMARK    4  A    between atoms: C_8  and  C_9
REMARK    5  A    between atoms: C_9  and  N_10
REMARK    6  A    between atoms: C_11  and  C_13
REMARK                            x       y       z     vdW  Elec       q    Type
REMARK                         _______ _______ _______ _____ _____    ______ ____
ROOT
ATOM      1  C   UNL     1      45.240   6.472  11.447  0.00  0.00    +0.000 A 
ATOM      2  C   UNL     1      44.872   7.798  11.720  0.00  0.00    +0.000 A 
ATOM      3  C   UNL     1      45.617   8.582  12.610  0.00  0.00    +0.000 A 
ATOM      4  C   UNL     1      46.761   8.067  13.234  0.00  0.00    +0.000 A 
ATOM      5  C   UNL     1      47.132   6.743  12.955  0.00  0.00    +0.000 A 
ATOM      6  C   UNL     1      46.389   5.960  12.064  0.00  0.00    +0.000 A 
ENDROOT
BRANCH   1   7
ATOM      7  C   UNL     1      44.396   5.612  10.540  0.00  0.00    +0.000 C 
BRANCH   7  10
ATOM      8  O   UNL     1      43.999   2.939   9.894  0.00  0.00    +0.000 OA
ATOM      9  C   UNL     1      44.880   3.559   9.307  0.00  0.00    +0.000 C 
ATOM     10  N   UNL     1      45.171   4.887   9.561  0.00  0.00    +0.000 N 
ATOM     11  H   UNL     1      45.721   5.413   8.896  0.00  0.00    +0.000 HD
BRANCH   9  12
ATOM     12  C   UNL     1      45.678   2.896   8.242  0.00  0.00    +0.000 A 
ATOM     13  C   UNL     1      46.044   1.554   8.406  0.00  0.00    +0.000 A 
ATOM     14  C   UNL     1      46.801   0.909   7.426  0.00  0.00    +0.000 A 
ATOM     15  C   UNL     1      47.203   1.606   6.286  0.00  0.00    +0.000 A 
ATOM     16  C   UNL     1      46.861   2.949   6.130  0.00  0.00    +0.000 A 
ATOM     17  C   UNL     1      46.102   3.598   7.106  0.00  0.00    +0.000 A 
ENDBRANCH   9  12
ENDBRANCH   7  10
ENDBRANCH   1   7
BRANCH   4  18
ATOM     18  C   UNL     1      47.573   8.896  14.204  0.00  0.00    +0.000 C 
BRANCH  18  19
ATOM     19  N   UNL     1      47.848   8.178  15.424  0.00  0.00    +0.000 N 
ATOM     20  C   UNL     1      49.122   8.076  15.930  0.00  0.00    +0.000 C 
ATOM     21  O   UNL     1      50.094   8.596  15.386  0.00  0.00    +0.000 OA
ATOM     22  H   UNL     1      47.120   7.561  15.774  0.00  0.00    +0.000 HD
BRANCH  20  23
ATOM     23  C   UNL     1      49.244   7.342  17.176  0.00  0.00    +0.000 A 
ATOM     24  C   UNL     1      49.749   7.884  18.346  0.00  0.00    +0.000 A 
ATOM     25  O   UNL     1      49.719   6.983  19.363  0.00  0.00    +0.000 OA
ATOM     26  C   UNL     1      49.217   5.822  18.861  0.00  0.00    +0.000 A 
ATOM     27  N   UNL     1      49.065   4.688  19.589  0.00  0.00    +0.000 NA
ATOM     28  C   UNL     1      48.624   3.688  18.897  0.00  0.00    +0.000 A 
ATOM     29  N   UNL     1      48.309   3.732  17.553  0.00  0.00    +0.000 N 
ATOM     30  C   UNL     1      48.402   4.878  16.803  0.00  0.00    +0.000 A 
ATOM     31  O   UNL     1      48.054   4.927  15.624  0.00  0.00    +0.000 OA
ATOM     32  C   UNL     1      48.922   6.004  17.526  0.00  0.00    +0.000 A 
ATOM     33  H   UNL     1      47.962   2.912  17.080  0.00  0.00    +0.000 HD
ENDBRANCH  20  23
ENDBRANCH  18  19
ENDBRANCH   4  18
TORSDOF 6
ENDMDL
MODEL 4
REMARK VINA RESULT:    -8.112      2.067      9.412
REMARK INTER + INTRA:         -11.733
REMARK INTER:                 -10.760
REMARK INTRA:                  -0.973
REMARK UNBOUND:                -0.776
REMARK  Name = 
REMARK  6 active torsions:
REMARK  status: ('A' for Active; 'I' for Inactive)
REMARK    1  A    between atoms: C_2  and  C_25
REMARK    2  A    between atoms: N_3  and  C_4
REMARK    3  A    between atoms: C_4  and  C_5
REMARK    4  A    between atoms: C_8  and  C_9
REMARK    5  A    between atoms: C_9  and  N_10
REMARK    6  A    between atoms: C_11  and  C_13
REMARK                            x       y       z     vdW  Elec       q    Type
REMARK                         _______ _______ _______ _____ _____    ______ ____
ROOT
ATOM      1  C   UNL     1      47.771   7.852  13.768  0.00  0.00    +0.000 A 
ATOM      2  C   UNL     1      48.048   6.715  12.994  0.00  0.00    +0.000 A 
ATOM      3  C   UNL     1      47.131   6.255  12.040  0.00  0.00    +0.000 A 
ATOM      4  C   UNL     1      45.924   6.932  11.821  0.00  0.00    +0.000 A 
ATOM      5  C   UNL     1      45.651   8.072  12.590  0.00  0.00    +0.000 A 
ATOM      6  C   UNL     1      46.568   8.533  13.543  0.00  0.00    +0.000 A 
ENDROOT
BRANCH   1   7
ATOM      7  C   UNL     1      48.731   8.303  14.840  0.00  0.00    +0.000 C 
BRANCH   7  10
ATOM      8  O   UNL     1      49.893   6.044  15.966  0.00  0.00    +0.000 OA
ATOM      9  C   UNL     1      49.055   6.658  16.618  0.00  0.00    +0.000 C 
ATOM     10  N   UNL     1      48.405   7.785  16.149  0.00  0.00    +0.000 N 
ATOM     11  H   UNL     1      47.919   8.387  16.798  0.00  0.00    +0.000 HD
BRANCH   9  12
ATOM     12  C   UNL     1      48.713   6.220  17.997  0.00  0.00    +0.000 A 
ATOM     13  C   UNL     1      47.917   7.053  18.794  0.00  0.00    +0.000 A 
ATOM     14  C   UNL     1      47.587   6.671  20.096  0.00  0.00    +0.000 A 
ATOM     15  C   UNL     1      48.062   5.463  20.609  0.00  0.00    +0.000 A 
ATOM     16  C   UNL     1      48.875   4.642  19.827  0.00  0.00    +0.000 A 
ATOM     17  C   UNL     1      49.205   5.019  18.523  0.00  0.00    +0.000 A 
ENDBRANCH   9  12
ENDBRANCH   7  10
ENDBRANCH   1   7
BRANCH   4  18
ATOM     18  C   UNL     1      44.920   6.445  10.800  0.00  0.00    +0.000 C 
BRANCH  18  19
ATOM     19  N   UNL     1      45.353   5.227  10.160  0.00  0.00    +0.000 N 
ATOM     20  C   UNL     1      44.465   4.231   9.828  0.00  0.00    +0.000 C 
ATOM     21  O   UNL     1      43.259   4.321  10.043  0.00  0.00    +0.000 OA
ATOM     22  H   UNL     1      46.349   5.027  10.169  0.00  0.00    +0.000 HD
BRANCH  20  23
ATOM     23  C   UNL     1      45.042   3.073   9.170  0.00  0.00    +0.000 A 
ATOM     24  C   UNL     1      44.638   1.770   9.408  0.00  0.00    +0.000 A 
ATOM     25  O   UNL     1      45.325   0.890   8.633  0.00  0.00    +0.000 OA
ATOM     26  C   UNL     1      46.214   1.608   7.893  0.00  0.00    +0.000 A 
ATOM     27  N   UNL     1      47.090   1.054   7.020  0.00  0.00    +0.000 NA
ATOM     28  C   UNL     1      47.880   1.918   6.468  0.00  0.00    +0.000 A 
ATOM     29  N   UNL     1      47.855   3.279   6.702  0.00  0.00    +0.000 N 
ATOM     30  C   UNL     1      46.945   3.873   7.540  0.00  0.00    +0.000 A 
ATOM     31  O   UNL     1      46.882   5.093   7.691  0.00  0.00    +0.000 OA
ATOM     32  C   UNL     1      46.071   2.945   8.201  0.00  0.00    +0.000 A 
ATOM     33  H   UNL     1      48.498   3.893   6.228  0.00  0.00    +0.000 HD
ENDBRANCH  20  23
ENDBRANCH  18  19
ENDBRANCH   4  18
TORSDOF 6
ENDMDL
MODEL 5
REMARK VINA RESULT:    -7.369      2.908      4.691
REMARK INTER + INTRA:         -10.730
REMARK INTER:                  -9.534
REMARK INTRA:                  -1.196
REMARK UNBOUND:                -0.776
REMARK  Name = 
REMARK  6 active torsions:
REMARK  status: ('A' for Active; 'I' for Inactive)
REMARK    1  A    between atoms: C_2  and  C_25
REMARK    2  A    between atoms: N_3  and  C_4
REMARK    3  A    between atoms: C_4  and  C_5
REMARK    4  A    between atoms: C_8  and  C_9
REMARK    5  A    between atoms: C_9  and  N_10
REMARK    6  A    between atoms: C_11  and  C_13
REMARK                            x       y       z     vdW  Elec       q    Type
REMARK                         _______ _______ _______ _____ _____    ______ ____
ROOT
ATOM      1  C   UNL     1      45.418   5.028  11.957  0.00  0.00    +0.000 A 
ATOM      2  C   UNL     1      45.957   6.323  11.914  0.00  0.00    +0.000 A 
ATOM      3  C   UNL     1      46.853   6.760  12.897  0.00  0.00    +0.000 A 
ATOM      4  C   UNL     1      47.250   5.908  13.937  0.00  0.00    +0.000 A 
ATOM      5  C   UNL     1      46.715   4.612  13.975  0.00  0.00    +0.000 A 
ATOM      6  C   UNL     1      45.821   4.173  12.992  0.00  0.00    +0.000 A 
ENDROOT
BRANCH   1   7
ATOM      7  C   UNL     1      44.402   4.585  10.934  0.00  0.00    +0.000 C 
BRANCH   7  10
ATOM      8  O   UNL     1      45.662   5.341   8.577  0.00  0.00    +0.000 OA
ATOM      9  C   UNL     1      45.558   4.145   8.827  0.00  0.00    +0.000 C 
ATOM     10  N   UNL     1      44.938   3.659   9.964  0.00  0.00    +0.000 N 
ATOM     11  H   UNL     1      45.091   2.701  10.245  0.00  0.00    +0.000 HD
BRANCH   9  12
ATOM     12  C   UNL     1      46.140   3.134   7.905  0.00  0.00    +0.000 A 
ATOM     13  C   UNL     1      46.215   1.800   8.323  0.00  0.00    +0.000 A 
ATOM     14  C   UNL     1      46.765   0.831   7.481  0.00  0.00    +0.000 A 
ATOM     15  C   UNL     1      47.251   1.195   6.224  0.00  0.00    +0.000 A 
ATOM     16  C   UNL     1      47.200   2.527   5.814  0.00  0.00    +0.000 A 
ATOM     17  C   UNL     1      46.648   3.499   6.652  0.00  0.00    +0.000 A 
ENDBRANCH   9  12
ENDBRANCH   7  10
ENDBRANCH   1   7
BRANCH   4  18
ATOM     18  C   UNL     1      48.210   6.367  15.011  0.00  0.00    +0.000 C 
BRANCH  18  19
ATOM     19  N   UNL     1      49.361   7.033  14.453  0.00  0.00    +0.000 N 
ATOM     20  C   UNL     1      49.574   8.379  14.633  0.00  0.00    +0.000 C 
ATOM     21  O   UNL     1      48.811   9.088  15.284  0.00  0.00    +0.000 OA
ATOM     22  H   UNL     1      49.885   6.534  13.738  0.00  0.00    +0.000 HD
BRANCH  20  23
ATOM     23  C   UNL     1      50.785   8.906  14.031  0.00  0.00    +0.000 A 
ATOM     24  C   UNL     1      51.690   9.715  14.699  0.00  0.00    +0.000 A 
ATOM     25  O   UNL     1      52.746  10.037  13.906  0.00  0.00    +0.000 OA
ATOM     26  C   UNL     1      52.530   9.462  12.691  0.00  0.00    +0.000 A 
ATOM     27  N   UNL     1      53.371   9.592  11.635  0.00  0.00    +0.000 NA
ATOM     28  C   UNL     1      52.942   9.011  10.563  0.00  0.00    +0.000 A 
ATOM     29  N   UNL     1      51.760   8.303  10.463  0.00  0.00    +0.000 N 
ATOM     30  C   UNL     1      50.915   8.110  11.528  0.00  0.00    +0.000 A 
ATOM     31  O   UNL     1      49.900   7.419  11.451  0.00  0.00    +0.000 OA
ATOM     32  C   UNL     1      51.339   8.770  12.731  0.00  0.00    +0.000 A 
ATOM     33  H   UNL     1      51.493   7.869   9.593  0.00  0.00    +0.000 HD
ENDBRANCH  20  23
ENDBRANCH  18  19
ENDBRANCH   4  18
TORSDOF 6
ENDMDL
MODEL 6
REMARK VINA RESULT:    -7.209      3.393      8.453
REMARK INTER + INTRA:         -10.513
REMARK INTER:                  -9.484
REMARK INTRA:                  -1.030
REMARK UNBOUND:                -0.776
REMARK  Name = 
REMARK  6 active torsions:
REMARK  status: ('A' for Active; 'I' for Inactive)
REMARK    1  A    between atoms: C_2  and  C_25
REMARK    2  A    between atoms: N_3  and  C_4
REMARK    3  A    between atoms: C_4  and  C_5
REMARK    4  A    between atoms: C_8  and  C_9
REMARK    5  A    between atoms: C_9  and  N_10
REMARK    6  A    between atoms: C_11  and  C_13
REMARK                            x       y       z     vdW  Elec       q    Type
REMARK                         _______ _______ _______ _____ _____    ______ ____
ROOT
ATOM      1  C   UNL     1      50.208   7.231  15.630  0.00  0.00    +0.000 A 
ATOM      2  C   UNL     1      48.860   6.860  15.514  0.00  0.00    +0.000 A 
ATOM      3  C   UNL     1      48.144   7.117  14.337  0.00  0.00    +0.000 A 
ATOM      4  C   UNL     1      48.763   7.731  13.240  0.00  0.00    +0.000 A 
ATOM      5  C   UNL     1      50.113   8.096  13.356  0.00  0.00    +0.000 A 
ATOM      6  C   UNL     1      50.829   7.838  14.531  0.00  0.00    +0.000 A 
ENDROOT
BRANCH   1   7
ATOM      7  C   UNL     1      50.954   7.014  16.923  0.00  0.00    +0.000 C 
BRANCH   7  10
ATOM      8  O   UNL     1      49.994   4.958  18.526  0.00  0.00    +0.000 OA
ATOM      9  C   UNL     1      50.990   4.749  17.840  0.00  0.00    +0.000 C 
ATOM     10  N   UNL     1      51.558   5.706  17.018  0.00  0.00    +0.000 N 
ATOM     11  H   UNL     1      52.211   5.423  16.301  0.00  0.00    +0.000 HD
BRANCH   9  12
ATOM     12  C   UNL     1      51.630   3.408  17.839  0.00  0.00    +0.000 A 
ATOM     13  C   UNL     1      52.959   3.292  18.267  0.00  0.00    +0.000 A 
ATOM     14  C   UNL     1      53.589   2.045  18.268  0.00  0.00    +0.000 A 
ATOM     15  C   UNL     1      52.896   0.915  17.832  0.00  0.00    +0.000 A 
ATOM     16  C   UNL     1      51.580   1.030  17.383  0.00  0.00    +0.000 A 
ATOM     17  C   UNL     1      50.946   2.275  17.382  0.00  0.00    +0.000 A 
ENDBRANCH   9  12
ENDBRANCH   7  10
ENDBRANCH   1   7
BRANCH   4  18
ATOM     18  C   UNL     1      48.003   8.022  11.966  0.00  0.00    +0.000 C 
BRANCH  18  19
ATOM     19  N   UNL     1      46.900   7.112  11.778  0.00  0.00    +0.000 N 
ATOM     20  C   UNL     1      45.595   7.520  11.923  0.00  0.00    +0.000 C 
ATOM     21  O   UNL     1      45.291   8.676  12.207  0.00  0.00    +0.000 OA
ATOM     22  H   UNL     1      47.115   6.119  11.763  0.00  0.00    +0.000 HD
BRANCH  20  23
ATOM     23  C   UNL     1      44.591   6.500  11.684  0.00  0.00    +0.000 A 
ATOM     24  C   UNL     1      43.355   6.753  11.111  0.00  0.00    +0.000 A 
ATOM     25  O   UNL     1      42.629   5.612  10.978  0.00  0.00    +0.000 OA
ATOM     26  C   UNL     1      43.373   4.595  11.491  0.00  0.00    +0.000 A 
ATOM     27  N   UNL     1      42.953   3.307  11.550  0.00  0.00    +0.000 NA
ATOM     28  C   UNL     1      43.798   2.517  12.129  0.00  0.00    +0.000 A 
ATOM     29  N   UNL     1      45.024   2.901  12.635  0.00  0.00    +0.000 N 
ATOM     30  C   UNL     1      45.499   4.186  12.543  0.00  0.00    +0.000 A 
ATOM     31  O   UNL     1      46.620   4.506  12.933  0.00  0.00    +0.000 OA
ATOM     32  C   UNL     1      44.575   5.103  11.937  0.00  0.00    +0.000 A 
ATOM     33  H   UNL     1      45.635   2.226  13.068  0.00  0.00    +0.000 HD
ENDBRANCH  20  23
ENDBRANCH  18  19
ENDBRANCH   4  18
TORSDOF 6
ENDMDL
MODEL 7
REMARK VINA RESULT:    -7.120      4.628      7.997
REMARK INTER + INTRA:         -10.393
REMARK INTER:                  -9.358
REMARK INTRA:                  -1.034
REMARK UNBOUND:                -0.776
REMARK  Name = 
REMARK  6 active torsions:
REMARK  status: ('A' for Active; 'I' for Inactive)
REMARK    1  A    between atoms: C_2  and  C_25
REMARK    2  A    between atoms: N_3  and  C_4
REMARK    3  A    between atoms: C_4  and  C_5
REMARK    4  A    between atoms: C_8  and  C_9
REMARK    5  A    between atoms: C_9  and  N_10
REMARK    6  A    between atoms: C_11  and  C_13
REMARK                            x       y       z     vdW  Elec       q    Type
REMARK                         _______ _______ _______ _____ _____    ______ ____
ROOT
ATOM      1  C   UNL     1      49.836   9.007  11.801  0.00  0.00    +0.000 A 
ATOM      2  C   UNL     1      49.443   7.661  11.759  0.00  0.00    +0.000 A 
ATOM      3  C   UNL     1      48.096   7.302  11.887  0.00  0.00    +0.000 A 
ATOM      4  C   UNL     1      47.104   8.281  12.040  0.00  0.00    +0.000 A 
ATOM      5  C   UNL     1      47.497   9.627  12.075  0.00  0.00    +0.000 A 
ATOM      6  C   UNL     1      48.844   9.986  11.946  0.00  0.00    +0.000 A 
ENDROOT
BRANCH   1   7
ATOM      7  C   UNL     1      51.295   9.384  11.731  0.00  0.00    +0.000 C 
BRANCH   7  10
ATOM      8  O   UNL     1      52.267   9.892   9.178  0.00  0.00    +0.000 OA
ATOM      9  C   UNL     1      52.530   8.813   9.702  0.00  0.00    +0.000 C 
ATOM     10  N   UNL     1      52.086   8.454  10.961  0.00  0.00    +0.000 N 
ATOM     11  H   UNL     1      52.523   7.679  11.441  0.00  0.00    +0.000 HD
BRANCH   9  12
ATOM     12  C   UNL     1      53.391   7.829   8.994  0.00  0.00    +0.000 A 
ATOM     13  C   UNL     1      52.793   6.708   8.405  0.00  0.00    +0.000 A 
ATOM     14  C   UNL     1      53.578   5.763   7.741  0.00  0.00    +0.000 A 
ATOM     15  C   UNL     1      54.963   5.930   7.676  0.00  0.00    +0.000 A 
ATOM     16  C   UNL     1      55.564   7.033   8.282  0.00  0.00    +0.000 A 
ATOM     17  C   UNL     1      54.782   7.982   8.944  0.00  0.00    +0.000 A 
ENDBRANCH   9  12
ENDBRANCH   7  10
ENDBRANCH   1   7
BRANCH   4  18
ATOM     18  C   UNL     1      45.645   7.910  12.187  0.00  0.00    +0.000 C 
BRANCH  18  19
ATOM     19  N   UNL     1      45.393   6.549  11.783  0.00  0.00    +0.000 N 
ATOM     20  C   UNL     1      44.148   6.136  11.373  0.00  0.00    +0.000 C 
ATOM     21  O   UNL     1      43.185   6.897  11.314  0.00  0.00    +0.000 OA
ATOM     22  H   UNL     1      46.096   5.855  12.026  0.00  0.00    +0.000 HD
BRANCH  20  23
ATOM     23  C   UNL     1      44.049   4.743  10.977  0.00  0.00    +0.000 A 
ATOM     24  C   UNL     1      43.235   3.817  11.607  0.00  0.00    +0.000 A 
ATOM     25  O   UNL     1      43.316   2.599  11.011  0.00  0.00    +0.000 OA
ATOM     26  C   UNL     1      44.213   2.705   9.992  0.00  0.00    +0.000 A 
ATOM     27  N   UNL     1      44.568   1.673   9.188  0.00  0.00    +0.000 NA
ATOM     28  C   UNL     1      45.478   1.985   8.323  0.00  0.00    +0.000 A 
ATOM     29  N   UNL     1      46.046   3.236   8.186  0.00  0.00    +0.000 N 
ATOM     30  C   UNL     1      45.670   4.313   8.950  0.00  0.00    +0.000 A 
ATOM     31  O   UNL     1      46.129   5.441   8.776  0.00  0.00    +0.000 OA
ATOM     32  C   UNL     1      44.685   4.000   9.947  0.00  0.00    +0.000 A 
ATOM     33  H   UNL     1      46.747   3.407   7.482  0.00  0.00    +0.000 HD
ENDBRANCH  20  23
ENDBRANCH  18  19
ENDBRANCH   4  18
TORSDOF 6
ENDMDL
MODEL 8
REMARK VINA RESULT:    -6.948      2.138      3.312
REMARK INTER + INTRA:         -10.161
REMARK INTER:                  -9.406
REMARK INTRA:                  -0.755
REMARK UNBOUND:                -0.776
REMARK  Name = 
REMARK  6 active torsions:
REMARK  status: ('A' for Active; 'I' for Inactive)
REMARK    1  A    between atoms: C_2  and  C_25
REMARK    2  A    between atoms: N_3  and  C_4
REMARK    3  A    between atoms: C_4  and  C_5
REMARK    4  A    between atoms: C_8  and  C_9
REMARK    5  A    between atoms: C_9  and  N_10
REMARK    6  A    between atoms: C_11  and  C_13
REMARK                            x       y       z     vdW  Elec       q    Type
REMARK                         _______ _______ _______ _____ _____    ______ ____
ROOT
ATOM      1  C   UNL     1      45.618   4.440  12.505  0.00  0.00    +0.000 A 
ATOM      2  C   UNL     1      45.841   5.813  12.321  0.00  0.00    +0.000 A 
ATOM      3  C   UNL     1      46.686   6.525  13.183  0.00  0.00    +0.000 A 
ATOM      4  C   UNL     1      47.345   5.879  14.236  0.00  0.00    +0.000 A 
ATOM      5  C   UNL     1      47.126   4.505  14.415  0.00  0.00    +0.000 A 
ATOM      6  C   UNL     1      46.283   3.792  13.554  0.00  0.00    +0.000 A 
ENDROOT
BRANCH   1   7
ATOM      7  C   UNL     1      44.654   3.694  11.617  0.00  0.00    +0.000 C 
BRANCH   7  10
ATOM      8  O   UNL     1      44.285   4.383   8.951  0.00  0.00    +0.000 OA
ATOM      9  C   UNL     1      45.054   3.465   9.217  0.00  0.00    +0.000 C 
ATOM     10  N   UNL     1      45.300   3.032  10.507  0.00  0.00    +0.000 N 
ATOM     11  H   UNL     1      46.108   2.455  10.694  0.00  0.00    +0.000 HD
BRANCH   9  12
ATOM     12  C   UNL     1      45.802   2.777   8.132  0.00  0.00    +0.000 A 
ATOM     13  C   UNL     1      46.186   1.443   8.316  0.00  0.00    +0.000 A 
ATOM     14  C   UNL     1      46.897   0.774   7.316  0.00  0.00    +0.000 A 
ATOM     15  C   UNL     1      47.235   1.441   6.137  0.00  0.00    +0.000 A 
ATOM     16  C   UNL     1      46.874   2.777   5.961  0.00  0.00    +0.000 A 
ATOM     17  C   UNL     1      46.161   3.448   6.957  0.00  0.00    +0.000 A 
ENDBRANCH   9  12
ENDBRANCH   7  10
ENDBRANCH   1   7
BRANCH   4  18
ATOM     18  C   UNL     1      48.255   6.633  15.180  0.00  0.00    +0.000 C 
BRANCH  18  19
ATOM     19  N   UNL     1      49.198   5.757  15.831  0.00  0.00    +0.000 N 
ATOM     20  C   UNL     1      49.503   5.888  17.165  0.00  0.00    +0.000 C 
ATOM     21  O   UNL     1      48.987   6.743  17.881  0.00  0.00    +0.000 OA
ATOM     22  H   UNL     1      49.798   5.195  15.233  0.00  0.00    +0.000 HD
BRANCH  20  23
ATOM     23  C   UNL     1      50.454   4.924  17.687  0.00  0.00    +0.000 A 
ATOM     24  C   UNL     1      50.360   3.557  17.479  0.00  0.00    +0.000 A 
ATOM     25  O   UNL     1      51.399   2.897  18.055  0.00  0.00    +0.000 OA
ATOM     26  C   UNL     1      52.177   3.826  18.674  0.00  0.00    +0.000 A 
ATOM     27  N   UNL     1      53.296   3.525  19.378  0.00  0.00    +0.000 NA
ATOM     28  C   UNL     1      53.848   4.556  19.931  0.00  0.00    +0.000 A 
ATOM     29  N   UNL     1      53.387   5.854  19.826  0.00  0.00    +0.000 N 
ATOM     30  C   UNL     1      52.288   6.196  19.078  0.00  0.00    +0.000 A 
ATOM     31  O   UNL     1      51.924   7.362  18.932  0.00  0.00    +0.000 OA
ATOM     32  C   UNL     1      51.625   5.074  18.475  0.00  0.00    +0.000 A 
ATOM     33  H   UNL     1      53.875   6.610  20.280  0.00  0.00    +0.000 HD
ENDBRANCH  20  23
ENDBRANCH  18  19
ENDBRANCH   4  18
TORSDOF 6
ENDMDL
MODEL 9
REMARK VINA RESULT:    -6.809      2.890      4.649
REMARK INTER + INTRA:          -9.973
REMARK INTER:                  -9.188
REMARK INTRA:                  -0.785
REMARK UNBOUND:                -0.776
REMARK  Name = 
REMARK  6 active torsions:
REMARK  status: ('A' for Active; 'I' for Inactive)
REMARK    1  A    between atoms: C_2  and  C_25
REMARK    2  A    between atoms: N_3  and  C_4
REMARK    3  A    between atoms: C_4  and  C_5
REMARK    4  A    between atoms: C_8  and  C_9
REMARK    5  A    between atoms: C_9  and  N_10
REMARK    6  A    between atoms: C_11  and  C_13
REMARK                            x       y       z     vdW  Elec       q    Type
REMARK                         _______ _______ _______ _____ _____    ______ ____
ROOT
ATOM      1  C   UNL     1      47.244   7.737  13.582  0.00  0.00    +0.000 A 
ATOM      2  C   UNL     1      47.767   8.803  14.329  0.00  0.00    +0.000 A 
ATOM      3  C   UNL     1      48.675   8.573  15.371  0.00  0.00    +0.000 A 
ATOM      4  C   UNL     1      49.100   7.273  15.678  0.00  0.00    +0.000 A 
ATOM      5  C   UNL     1      48.581   6.209  14.926  0.00  0.00    +0.000 A 
ATOM      6  C   UNL     1      47.674   6.438  13.884  0.00  0.00    +0.000 A 
ENDROOT
BRANCH   1   7
ATOM      7  C   UNL     1      46.215   7.984  12.508  0.00  0.00    +0.000 C 
BRANCH   7  10
ATOM      8  O   UNL     1      44.253   6.018  12.595  0.00  0.00    +0.000 OA
ATOM      9  C   UNL     1      45.082   5.979  11.691  0.00  0.00    +0.000 C 
ATOM     10  N   UNL     1      46.107   6.898  11.562  0.00  0.00    +0.000 N 
ATOM     11  H   UNL     1      46.604   6.972  10.685  0.00  0.00    +0.000 HD
BRANCH   9  12
ATOM     12  C   UNL     1      44.999   4.926  10.646  0.00  0.00    +0.000 A 
ATOM     13  C   UNL     1      44.352   3.721  10.949  0.00  0.00    +0.000 A 
ATOM     14  C   UNL     1      44.267   2.710   9.989  0.00  0.00    +0.000 A 
ATOM     15  C   UNL     1      44.837   2.897   8.728  0.00  0.00    +0.000 A 
ATOM     16  C   UNL     1      45.502   4.087   8.430  0.00  0.00    +0.000 A 
ATOM     17  C   UNL     1      45.587   5.101   9.387  0.00  0.00    +0.000 A 
ENDBRANCH   9  12
ENDBRANCH   7  10
ENDBRANCH   1   7
BRANCH   4  18
ATOM     18  C   UNL     1      50.074   7.006  16.803  0.00  0.00    +0.000 C 
BRANCH  18  19
ATOM     19  N   UNL     1      50.528   5.637  16.806  0.00  0.00    +0.000 N 
ATOM     20  C   UNL     1      50.126   4.745  17.772  0.00  0.00    +0.000 C 
ATOM     21  O   UNL     1      49.353   5.053  18.676  0.00  0.00    +0.000 OA
ATOM     22  H   UNL     1      51.325   5.411  16.216  0.00  0.00    +0.000 HD
BRANCH  20  23
ATOM     23  C   UNL     1      50.648   3.397  17.635  0.00  0.00    +0.000 A 
ATOM     24  C   UNL     1      49.986   2.377  16.972  0.00  0.00    +0.000 A 
ATOM     25  O   UNL     1      50.717   1.231  16.971  0.00  0.00    +0.000 OA
ATOM     26  C   UNL     1      51.862   1.481  17.662  0.00  0.00    +0.000 A 
ATOM     27  N   UNL     1      52.825   0.553  17.887  0.00  0.00    +0.000 NA
ATOM     28  C   UNL     1      53.801   0.991  18.615  0.00  0.00    +0.000 A 
ATOM     29  N   UNL     1      53.900   2.274  19.119  0.00  0.00    +0.000 N 
ATOM     30  C   UNL     1      52.968   3.248  18.864  0.00  0.00    +0.000 A 
ATOM     31  O   UNL     1      53.098   4.407  19.257  0.00  0.00    +0.000 OA
ATOM     32  C   UNL     1      51.850   2.793  18.087  0.00  0.00    +0.000 A 
ATOM     33  H   UNL     1      54.696   2.546  19.674  0.00  0.00    +0.000 HD
ENDBRANCH  20  23
ENDBRANCH  18  19
ENDBRANCH   4  18
TORSDOF 6
ENDMDL
