MODEL 1
REMARK VINA RESULT:    -8.380      0.000      0.000
REMARK INTER + INTRA:         -11.806
REMARK INTER:                 -11.320
REMARK INTRA:                  -0.486
REMARK UNBOUND:                -0.486
REMARK  Name = 
REMARK  7 active torsions:
REMARK  status: ('A' for Active; 'I' for Inactive)
REMARK    1  A    between atoms: C_1  and  C_2
REMARK    2  A    between atoms: C_2  and  C_3
REMARK    3  A    between atoms: C_8  and  C_9
REMARK    4  A    between atoms: N_11  and  C_12
REMARK    5  A    between atoms: C_12  and  C_13
REMARK    6  A    between atoms: C_16  and  C_17
REMARK    7  A    between atoms: C_17  and  C_18
REMARK                            x       y       z     vdW  Elec       q    Type
REMARK                         _______ _______ _______ _____ _____    ______ ____
ROOT
ATOM      1  C   UNL     1      47.677   6.930  13.386  0.00  0.00    +0.000 C 
ATOM      2  O   UNL     1      48.127   6.982  12.243  0.00  0.00    +0.000 OA
ATOM      3  N   UNL     1      46.344   7.103  13.647  0.00  0.00    +0.000 N 
ATOM      4  H   UNL     1      45.989   6.980  14.588  0.00  0.00    +0.000 HD
ENDROOT
BRANCH   1  10
ATOM      5  C   UNL     1      48.680   4.392  18.009  0.00  0.00    +0.000 A 
ATOM      6  N   UNL     1      49.600   5.275  17.772  0.00  0.00    +0.000 NA
ATOM      7  C   UNL     1      49.461   5.937  16.590  0.00  0.00    +0.000 A 
ATOM      8  S   UNL     1      50.574   7.136  16.128  0.00  0.00    +0.000 S 
ATOM      9  C   UNL     1      49.702   7.472  14.701  0.00  0.00    +0.000 A 
ATOM     10  C   UNL     1      48.561   6.697  14.543  0.00  0.00    +0.000 A 
ATOM     11  C   UNL     1      48.466   5.760  15.644  0.00  0.00    +0.000 A 
ATOM     12  C   UNL     1      47.504   4.711  15.921  0.00  0.00    +0.000 A 
ATOM     13  O   UNL     1      46.618   4.356  15.150  0.00  0.00    +0.000 OA
ATOM     14  N   UNL     1      47.659   4.098  17.138  0.00  0.00    +0.000 N 
ATOM     15  H   UNL     1      46.990   3.368  17.347  0.00  0.00    +0.000 HD
BRANCH   5  17
ATOM     16  C   UNL     1      48.743   4.503  20.493  0.00  0.00    +0.000 C 
ATOM     17  C   UNL     1      48.677   3.587  19.285  0.00  0.00    +0.000 C 
ENDBRANCH   5  17
ENDBRANCH   1  10
BRANCH   3  18
ATOM     18  C   UNL     1      45.348   7.324  12.630  0.00  0.00    +0.000 C 
BRANCH  18  19
ATOM     19  C   UNL     1      45.107   6.084  11.806  0.00  0.00    +0.000 A 
ATOM     20  C   UNL     1      45.393   6.087  10.435  0.00  0.00    +0.000 A 
ATOM     21  C   UNL     1      45.243   4.925   9.672  0.00  0.00    +0.000 A 
ATOM     22  C   UNL     1      44.807   3.730  10.263  0.00  0.00    +0.000 A 
ATOM     23  C   UNL     1      44.478   3.740  11.625  0.00  0.00    +0.000 A 
ATOM     24  C   UNL     1      44.610   4.909  12.385  0.00  0.00    +0.000 A 
BRANCH  22  25
ATOM     25  C   UNL     1      44.681   2.461   9.449  0.00  0.00    +0.000 C 
BRANCH  25  26
ATOM     26  C   UNL     1      45.685   2.279   8.327  0.00  0.00    +0.000 A 
ATOM     27  C   UNL     1      45.835   3.245   7.331  0.00  0.00    +0.000 A 
ATOM     28  C   UNL     1      46.669   2.982   6.246  0.00  0.00    +0.000 A 
ATOM     29  C   UNL     1      47.336   1.767   6.180  0.00  0.00    +0.000 A 
ATOM     30  C   UNL     1      47.151   0.866   7.214  0.00  0.00    +0.000 A 
ATOM     31  N   UNL     1      46.343   1.090   8.275  0.00  0.00    +0.000 NA
ENDBRANCH  25  26
ENDBRANCH  22  25
ENDBRANCH  18  19
ENDBRANCH   3  18
TORSDOF 6
ENDMDL
MODEL 2
REMARK VINA RESULT:    -8.049      2.122      4.215
REMARK INTER + INTRA:         -11.358
REMARK INTER:                 -10.415
REMARK INTRA:                  -0.943
REMARK UNBOUND:                -0.486
REMARK  Name = 
REMARK  7 active torsions:
REMARK  status: ('A' for Active; 'I' for Inactive)
REMARK    1  A    between atoms: C_1  and  C_2
REMARK    2  A    between atoms: C_2  and  C_3
REMARK    3  A    between atoms: C_8  and  C_9
REMARK    4  A    between atoms: N_11  and  C_12
REMARK    5  A    between atoms: C_12  and  C_13
REMARK    6  A    between atoms: C_16  and  C_17
REMARK    7  A    between atoms: C_17  and  C_18
REMARK                            x       y       z     vdW  Elec       q    Type
REMARK                         _______ _______ _______ _____ _____    ______ ____
ROOT
ATOM      1  C   UNL     1      47.374   5.469  14.266  0.00  0.00    +0.000 C 
ATOM      2  O   UNL     1      47.511   4.284  14.558  0.00  0.00    +0.000 OA
ATOM      3  N   UNL     1      46.199   5.960  13.762  0.00  0.00    +0.000 N 
ATOM      4  H   UNL     1      46.088   6.954  13.601  0.00  0.00    +0.000 HD
ENDROOT
BRANCH   1  10
ATOM      5  C   UNL     1      50.869   8.911  12.084  0.00  0.00    +0.000 A 
ATOM      6  N   UNL     1      51.101   8.778  13.354  0.00  0.00    +0.000 NA
ATOM      7  C   UNL     1      50.230   7.962  14.008  0.00  0.00    +0.000 A 
ATOM      8  S   UNL     1      50.395   7.670  15.676  0.00  0.00    +0.000 S 
ATOM      9  C   UNL     1      49.074   6.591  15.672  0.00  0.00    +0.000 A 
ATOM     10  C   UNL     1      48.485   6.426  14.426  0.00  0.00    +0.000 A 
ATOM     11  C   UNL     1      49.150   7.286  13.467  0.00  0.00    +0.000 A 
ATOM     12  C   UNL     1      48.889   7.524  12.061  0.00  0.00    +0.000 A 
ATOM     13  O   UNL     1      47.923   7.085  11.446  0.00  0.00    +0.000 OA
ATOM     14  N   UNL     1      49.814   8.320  11.434  0.00  0.00    +0.000 N 
ATOM     15  H   UNL     1      49.647   8.490  10.451  0.00  0.00    +0.000 HD
BRANCH   5  17
ATOM     16  C   UNL     1      50.949  10.855  10.535  0.00  0.00    +0.000 C 
ATOM     17  C   UNL     1      51.757   9.763  11.212  0.00  0.00    +0.000 C 
ENDBRANCH   5  17
ENDBRANCH   1  10
BRANCH   3  18
ATOM     18  C   UNL     1      45.017   5.162  13.560  0.00  0.00    +0.000 C 
BRANCH  18  19
ATOM     19  C   UNL     1      44.846   4.776  12.111  0.00  0.00    +0.000 A 
ATOM     20  C   UNL     1      45.365   5.595  11.101  0.00  0.00    +0.000 A 
ATOM     21  C   UNL     1      45.278   5.214   9.758  0.00  0.00    +0.000 A 
ATOM     22  C   UNL     1      44.672   4.002   9.394  0.00  0.00    +0.000 A 
ATOM     23  C   UNL     1      44.113   3.205  10.402  0.00  0.00    +0.000 A 
ATOM     24  C   UNL     1      44.184   3.596  11.745  0.00  0.00    +0.000 A 
BRANCH  22  25
ATOM     25  C   UNL     1      44.611   3.569   7.945  0.00  0.00    +0.000 C 
BRANCH  25  26
ATOM     26  C   UNL     1      45.856   2.906   7.388  0.00  0.00    +0.000 A 
ATOM     27  C   UNL     1      46.477   3.392   6.236  0.00  0.00    +0.000 A 
ATOM     28  C   UNL     1      47.536   2.677   5.680  0.00  0.00    +0.000 A 
ATOM     29  C   UNL     1      47.955   1.500   6.285  0.00  0.00    +0.000 A 
ATOM     30  C   UNL     1      47.302   1.091   7.434  0.00  0.00    +0.000 A 
ATOM     31  N   UNL     1      46.267   1.760   7.993  0.00  0.00    +0.000 NA
ENDBRANCH  25  26
ENDBRANCH  22  25
ENDBRANCH  18  19
ENDBRANCH   3  18
TORSDOF 6
ENDMDL
MODEL 3
REMARK VINA RESULT:    -8.014      1.756      2.262
REMARK INTER + INTRA:         -11.311
REMARK INTER:                 -10.500
REMARK INTRA:                  -0.811
REMARK UNBOUND:                -0.486
REMARK  Name = 
REMARK  7 active torsions:
REMARK  status: ('A' for Active; 'I' for Inactive)
REMARK    1  A    between atoms: C_1  and  C_2
REMARK    2  A    between atoms: C_2  and  C_3
REMARK    3  A    between atoms: C_8  and  C_9
REMARK    4  A    between atoms: N_11  and  C_12
REMARK    5  A    between atoms: C_12  and  C_13
REMARK    6  A    between atoms: C_16  and  C_17
REMARK    7  A    between atoms: C_17  and  C_18
REMARK                            x       y       z     vdW  Elec       q    Type
REMARK                         _______ _______ _______ _____ _____    ______ ____
ROOT
ATOM      1  C   UNL     1      47.730   5.676  14.634  0.00  0.00    +0.000 C 
ATOM      2  O   UNL     1      48.693   6.022  13.954  0.00  0.00    +0.000 OA
ATOM      3  N   UNL     1      46.442   5.950  14.259  0.00  0.00    +0.000 N 
ATOM      4  H   UNL     1      45.665   5.588  14.798  0.00  0.00    +0.000 HD
ENDROOT
BRANCH   1  10
ATOM      5  C   UNL     1      49.661   5.563  19.642  0.00  0.00    +0.000 A 
ATOM      6  N   UNL     1      49.145   4.414  19.333  0.00  0.00    +0.000 NA
ATOM      7  C   UNL     1      48.580   4.359  18.095  0.00  0.00    +0.000 A 
ATOM      8  S   UNL     1      47.867   2.924  17.526  0.00  0.00    +0.000 S 
ATOM      9  C   UNL     1      47.509   3.636  16.019  0.00  0.00    +0.000 A 
ATOM     10  C   UNL     1      47.917   4.958  15.909  0.00  0.00    +0.000 A 
ATOM     11  C   UNL     1      48.500   5.382  17.166  0.00  0.00    +0.000 A 
ATOM     12  C   UNL     1      49.025   6.667  17.587  0.00  0.00    +0.000 A 
ATOM     13  O   UNL     1      48.949   7.700  16.931  0.00  0.00    +0.000 OA
ATOM     14  N   UNL     1      49.619   6.666  18.824  0.00  0.00    +0.000 N 
ATOM     15  H   UNL     1      49.995   7.554  19.127  0.00  0.00    +0.000 HD
BRANCH   5  17
ATOM     16  C   UNL     1      50.977   7.162  21.021  0.00  0.00    +0.000 C 
ATOM     17  C   UNL     1      50.346   5.782  20.968  0.00  0.00    +0.000 C 
ENDBRANCH   5  17
ENDBRANCH   1  10
BRANCH   3  18
ATOM     18  C   UNL     1      46.089   6.629  13.038  0.00  0.00    +0.000 C 
BRANCH  18  19
ATOM     19  C   UNL     1      45.648   5.659  11.969  0.00  0.00    +0.000 A 
ATOM     20  C   UNL     1      45.695   6.033  10.620  0.00  0.00    +0.000 A 
ATOM     21  C   UNL     1      45.359   5.122   9.614  0.00  0.00    +0.000 A 
ATOM     22  C   UNL     1      44.970   3.812   9.934  0.00  0.00    +0.000 A 
ATOM     23  C   UNL     1      44.879   3.453  11.285  0.00  0.00    +0.000 A 
ATOM     24  C   UNL     1      45.198   4.372  12.293  0.00  0.00    +0.000 A 
BRANCH  22  25
ATOM     25  C   UNL     1      44.642   2.812   8.846  0.00  0.00    +0.000 C 
BRANCH  25  26
ATOM     26  C   UNL     1      45.768   2.463   7.892  0.00  0.00    +0.000 A 
ATOM     27  C   UNL     1      46.050   3.266   6.786  0.00  0.00    +0.000 A 
ATOM     28  C   UNL     1      47.001   2.842   5.861  0.00  0.00    +0.000 A 
ATOM     29  C   UNL     1      47.652   1.632   6.059  0.00  0.00    +0.000 A 
ATOM     30  C   UNL     1      47.331   0.899   7.188  0.00  0.00    +0.000 A 
ATOM     31  N   UNL     1      46.408   1.282   8.100  0.00  0.00    +0.000 NA
ENDBRANCH  25  26
ENDBRANCH  22  25
ENDBRANCH  18  19
ENDBRANCH   3  18
TORSDOF 6
ENDMDL
MODEL 4
REMARK VINA RESULT:    -7.915      3.467      4.188
REMARK INTER + INTRA:         -11.177
REMARK INTER:                 -10.134
REMARK INTRA:                  -1.043
REMARK UNBOUND:                -0.486
REMARK  Name = 
REMARK  7 active torsions:
REMARK  status: ('A' for Active; 'I' for Inactive)
REMARK    1  A    between atoms: C_1  and  C_2
REMARK    2  A    between atoms: C_2  and  C_3
REMARK    3  A    between atoms: C_8  and  C_9
REMARK    4  A    between atoms: N_11  and  C_12
REMARK    5  A    between atoms: C_12  and  C_13
REMARK    6  A    between atoms: C_16  and  C_17
REMARK    7  A    between atoms: C_17  and  C_18
REMARK                            x       y       z     vdW  Elec       q    Type
REMARK                         _______ _______ _______ _____ _____    ______ ____
ROOT
ATOM      1  C   UNL     1      45.606   8.098  12.258  0.00  0.00    +0.000 C 
ATOM      2  O   UNL     1      44.609   8.401  11.606  0.00  0.00    +0.000 OA
ATOM      3  N   UNL     1      45.620   7.021  13.102  0.00  0.00    +0.000 N 
ATOM      4  H   UNL     1      46.476   6.749  13.569  0.00  0.00    +0.000 HD
ENDROOT
BRANCH   1  10
ATOM      5  C   UNL     1      50.939   8.452  12.766  0.00  0.00    +0.000 A 
ATOM      6  N   UNL     1      50.435   9.615  12.492  0.00  0.00    +0.000 NA
ATOM      7  C   UNL     1      49.089   9.618  12.292  0.00  0.00    +0.000 A 
ATOM      8  S   UNL     1      48.265  11.062  11.933  0.00  0.00    +0.000 S 
ATOM      9  C   UNL     1      46.759  10.261  11.913  0.00  0.00    +0.000 A 
ATOM     10  C   UNL     1      46.841   8.901  12.177  0.00  0.00    +0.000 A 
ATOM     11  C   UNL     1      48.232   8.532  12.346  0.00  0.00    +0.000 A 
ATOM     12  C   UNL     1      48.853   7.243  12.582  0.00  0.00    +0.000 A 
ATOM     13  O   UNL     1      48.260   6.170  12.566  0.00  0.00    +0.000 OA
ATOM     14  N   UNL     1      50.204   7.292  12.817  0.00  0.00    +0.000 N 
ATOM     15  H   UNL     1      50.649   6.401  12.990  0.00  0.00    +0.000 HD
BRANCH   5  17
ATOM     16  C   UNL     1      53.154   9.584  12.796  0.00  0.00    +0.000 C 
ATOM     17  C   UNL     1      52.413   8.281  13.036  0.00  0.00    +0.000 C 
ENDBRANCH   5  17
ENDBRANCH   1  10
BRANCH   3  18
ATOM     18  C   UNL     1      44.503   6.129  13.284  0.00  0.00    +0.000 C 
BRANCH  18  19
ATOM     19  C   UNL     1      44.470   5.053  12.227  0.00  0.00    +0.000 A 
ATOM     20  C   UNL     1      43.685   5.220  11.080  0.00  0.00    +0.000 A 
ATOM     21  C   UNL     1      43.699   4.265  10.059  0.00  0.00    +0.000 A 
ATOM     22  C   UNL     1      44.504   3.120  10.160  0.00  0.00    +0.000 A 
ATOM     23  C   UNL     1      45.255   2.932  11.328  0.00  0.00    +0.000 A 
ATOM     24  C   UNL     1      45.225   3.879  12.358  0.00  0.00    +0.000 A 
BRANCH  22  25
ATOM     25  C   UNL     1      44.552   2.103   9.040  0.00  0.00    +0.000 C 
BRANCH  25  26
ATOM     26  C   UNL     1      45.729   2.205   8.089  0.00  0.00    +0.000 A 
ATOM     27  C   UNL     1      45.873   3.300   7.235  0.00  0.00    +0.000 A 
ATOM     28  C   UNL     1      46.892   3.293   6.284  0.00  0.00    +0.000 A 
ATOM     29  C   UNL     1      47.744   2.200   6.208  0.00  0.00    +0.000 A 
ATOM     30  C   UNL     1      47.550   1.160   7.099  0.00  0.00    +0.000 A 
ATOM     31  N   UNL     1      46.567   1.136   8.028  0.00  0.00    +0.000 NA
ENDBRANCH  25  26
ENDBRANCH  22  25
ENDBRANCH  18  19
ENDBRANCH   3  18
TORSDOF 6
ENDMDL
MODEL 5
REMARK VINA RESULT:    -7.410      1.842      2.303
REMARK INTER + INTRA:         -10.495
REMARK INTER:                  -9.664
REMARK INTRA:                  -0.831
REMARK UNBOUND:                -0.486
REMARK  Name = 
REMARK  7 active torsions:
REMARK  status: ('A' for Active; 'I' for Inactive)
REMARK    1  A    between atoms: C_1  and  C_2
REMARK    2  A    between atoms: C_2  and  C_3
REMARK    3  A    between atoms: C_8  and  C_9
REMARK    4  A    between atoms: N_11  and  C_12
REMARK    5  A    between atoms: C_12  and  C_13
REMARK    6  A    between atoms: C_16  and  C_17
REMARK    7  A    between atoms: C_17  and  C_18
REMARK                            x       y       z     vdW  Elec       q    Type
REMARK                         _______ _______ _______ _____ _____    ______ ____
ROOT
ATOM      1  C   UNL     1      46.906   7.908  13.500  0.00  0.00    +0.000 C 
ATOM      2  O   UNL     1      46.280   8.934  13.245  0.00  0.00    +0.000 OA
ATOM      3  N   UNL     1      46.312   6.675  13.489  0.00  0.00    +0.000 N 
ATOM      4  H   UNL     1      46.866   5.839  13.628  0.00  0.00    +0.000 HD
ENDROOT
BRANCH   1  10
ATOM      5  C   UNL     1      50.963   6.288  16.621  0.00  0.00    +0.000 A 
ATOM      6  N   UNL     1      51.369   7.202  15.794  0.00  0.00    +0.000 NA
ATOM      7  C   UNL     1      50.420   7.640  14.922  0.00  0.00    +0.000 A 
ATOM      8  S   UNL     1      50.780   8.845  13.777  0.00  0.00    +0.000 S 
ATOM      9  C   UNL     1      49.175   8.852  13.200  0.00  0.00    +0.000 A 
ATOM     10  C   UNL     1      48.338   7.957  13.853  0.00  0.00    +0.000 A 
ATOM     11  C   UNL     1      49.106   7.214  14.831  0.00  0.00    +0.000 A 
ATOM     12  C   UNL     1      48.723   6.139  15.727  0.00  0.00    +0.000 A 
ATOM     13  O   UNL     1      47.632   5.578  15.715  0.00  0.00    +0.000 OA
ATOM     14  N   UNL     1      49.697   5.757  16.613  0.00  0.00    +0.000 N 
ATOM     15  H   UNL     1      49.440   5.012  17.248  0.00  0.00    +0.000 HD
BRANCH   5  17
ATOM     16  C   UNL     1      53.300   5.598  17.123  0.00  0.00    +0.000 C 
ATOM     17  C   UNL     1      51.887   5.712  17.666  0.00  0.00    +0.000 C 
ENDBRANCH   5  17
ENDBRANCH   1  10
BRANCH   3  18
ATOM     18  C   UNL     1      44.928   6.453  13.152  0.00  0.00    +0.000 C 
BRANCH  18  19
ATOM     19  C   UNL     1      44.768   5.317  12.173  0.00  0.00    +0.000 A 
ATOM     20  C   UNL     1      44.021   5.499  11.003  0.00  0.00    +0.000 A 
ATOM     21  C   UNL     1      43.924   4.478  10.052  0.00  0.00    +0.000 A 
ATOM     22  C   UNL     1      44.575   3.251  10.247  0.00  0.00    +0.000 A 
ATOM     23  C   UNL     1      45.284   3.054  11.439  0.00  0.00    +0.000 A 
ATOM     24  C   UNL     1      45.366   4.069  12.400  0.00  0.00    +0.000 A 
BRANCH  22  25
ATOM     25  C   UNL     1      44.503   2.158   9.202  0.00  0.00    +0.000 C 
BRANCH  25  26
ATOM     26  C   UNL     1      45.611   2.144   8.167  0.00  0.00    +0.000 A 
ATOM     27  C   UNL     1      46.403   1.011   7.975  0.00  0.00    +0.000 A 
ATOM     28  C   UNL     1      47.495   1.081   7.112  0.00  0.00    +0.000 A 
ATOM     29  C   UNL     1      47.771   2.274   6.459  0.00  0.00    +0.000 A 
ATOM     30  C   UNL     1      46.931   3.349   6.686  0.00  0.00    +0.000 A 
ATOM     31  N   UNL     1      45.868   3.313   7.523  0.00  0.00    +0.000 NA
ENDBRANCH  25  26
ENDBRANCH  22  25
ENDBRANCH  18  19
ENDBRANCH   3  18
TORSDOF 6
ENDMDL
MODEL 6
REMARK VINA RESULT:    -7.107      4.396      7.717
REMARK INTER + INTRA:         -10.086
REMARK INTER:                  -9.124
REMARK INTRA:                  -0.962
REMARK UNBOUND:                -0.486
REMARK  Name = 
REMARK  7 active torsions:
REMARK  status: ('A' for Active; 'I' for Inactive)
REMARK    1  A    between atoms: C_1  and  C_2
REMARK    2  A    between atoms: C_2  and  C_3
REMARK    3  A    between atoms: C_8  and  C_9
REMARK    4  A    between atoms: N_11  and  C_12
REMARK    5  A    between atoms: C_12  and  C_13
REMARK    6  A    between atoms: C_16  and  C_17
REMARK    7  A    between atoms: C_17  and  C_18
REMARK                            x       y       z     vdW  Elec       q    Type
REMARK                         _______ _______ _______ _____ _____    ______ ____
ROOT
ATOM      1  C   UNL     1      45.157   7.660  11.735  0.00  0.00    +0.000 C 
ATOM      2  O   UNL     1      44.459   8.526  11.213  0.00  0.00    +0.000 OA
ATOM      3  N   UNL     1      46.408   7.931  12.217  0.00  0.00    +0.000 N 
ATOM      4  H   UNL     1      46.932   7.218  12.710  0.00  0.00    +0.000 HD
ENDROOT
BRANCH   1  10
ATOM      5  C   UNL     1      44.628   2.760   9.603  0.00  0.00    +0.000 A 
ATOM      6  N   UNL     1      44.020   2.821  10.747  0.00  0.00    +0.000 NA
ATOM      7  C   UNL     1      44.142   4.014  11.393  0.00  0.00    +0.000 A 
ATOM      8  S   UNL     1      43.397   4.268  12.901  0.00  0.00    +0.000 S 
ATOM      9  C   UNL     1      43.938   5.884  12.956  0.00  0.00    +0.000 A 
ATOM     10  C   UNL     1      44.683   6.267  11.849  0.00  0.00    +0.000 A 
ATOM     11  C   UNL     1      44.836   5.131  10.962  0.00  0.00    +0.000 A 
ATOM     12  C   UNL     1      45.560   4.988   9.713  0.00  0.00    +0.000 A 
ATOM     13  O   UNL     1      46.301   5.841   9.236  0.00  0.00    +0.000 OA
ATOM     14  N   UNL     1      45.377   3.786   9.079  0.00  0.00    +0.000 N 
ATOM     15  H   UNL     1      45.871   3.676   8.204  0.00  0.00    +0.000 HD
BRANCH   5  17
ATOM     16  C   UNL     1      45.947   1.185   8.200  0.00  0.00    +0.000 C 
ATOM     17  C   UNL     1      44.572   1.516   8.752  0.00  0.00    +0.000 C 
ENDBRANCH   5  17
ENDBRANCH   1  10
BRANCH   3  18
ATOM     18  C   UNL     1      47.011   9.240  12.196  0.00  0.00    +0.000 C 
BRANCH  18  19
ATOM     19  C   UNL     1      48.453   9.183  11.755  0.00  0.00    +0.000 A 
ATOM     20  C   UNL     1      49.123  10.357  11.394  0.00  0.00    +0.000 A 
ATOM     21  C   UNL     1      50.479  10.330  11.052  0.00  0.00    +0.000 A 
ATOM     22  C   UNL     1      51.198   9.126  11.068  0.00  0.00    +0.000 A 
ATOM     23  C   UNL     1      50.516   7.944  11.386  0.00  0.00    +0.000 A 
ATOM     24  C   UNL     1      49.153   7.969  11.709  0.00  0.00    +0.000 A 
BRANCH  22  25
ATOM     25  C   UNL     1      52.675   9.098  10.737  0.00  0.00    +0.000 C 
BRANCH  25  26
ATOM     26  C   UNL     1      53.165   7.898   9.950  0.00  0.00    +0.000 A 
ATOM     27  C   UNL     1      52.847   7.744   8.599  0.00  0.00    +0.000 A 
ATOM     28  C   UNL     1      53.202   6.565   7.946  0.00  0.00    +0.000 A 
ATOM     29  C   UNL     1      53.865   5.570   8.650  0.00  0.00    +0.000 A 
ATOM     30  C   UNL     1      54.161   5.802   9.982  0.00  0.00    +0.000 A 
ATOM     31  N   UNL     1      53.825   6.933  10.644  0.00  0.00    +0.000 NA
ENDBRANCH  25  26
ENDBRANCH  22  25
ENDBRANCH  18  19
ENDBRANCH   3  18
TORSDOF 6
ENDMDL
MODEL 7
REMARK VINA RESULT:    -7.051      1.915      3.754
REMARK INTER + INTRA:         -10.010
REMARK INTER:                  -9.396
REMARK INTRA:                  -0.614
REMARK UNBOUND:                -0.486
REMARK  Name = 
REMARK  7 active torsions:
REMARK  status: ('A' for Active; 'I' for Inactive)
REMARK    1  A    between atoms: C_1  and  C_2
REMARK    2  A    between atoms: C_2  and  C_3
REMARK    3  A    between atoms: C_8  and  C_9
REMARK    4  A    between atoms: N_11  and  C_12
REMARK    5  A    between atoms: C_12  and  C_13
REMARK    6  A    between atoms: C_16  and  C_17
REMARK    7  A    between atoms: C_17  and  C_18
REMARK                            x       y       z     vdW  Elec       q    Type
REMARK                         _______ _______ _______ _____ _____    ______ ____
ROOT
ATOM      1  C   UNL     1      47.485   4.747  16.340  0.00  0.00    +0.000 C 
ATOM      2  O   UNL     1      46.799   4.269  17.239  0.00  0.00    +0.000 OA
ATOM      3  N   UNL     1      47.033   4.834  15.051  0.00  0.00    +0.000 N 
ATOM      4  H   UNL     1      47.589   5.301  14.345  0.00  0.00    +0.000 HD
ENDROOT
BRANCH   1  10
ATOM      5  C   UNL     1      51.596   7.936  15.015  0.00  0.00    +0.000 A 
ATOM      6  N   UNL     1      51.926   7.166  16.005  0.00  0.00    +0.000 NA
ATOM      7  C   UNL     1      50.928   6.353  16.449  0.00  0.00    +0.000 A 
ATOM      8  S   UNL     1      51.192   5.271  17.735  0.00  0.00    +0.000 S 
ATOM      9  C   UNL     1      49.608   4.650  17.609  0.00  0.00    +0.000 A 
ATOM     10  C   UNL     1      48.852   5.237  16.603  0.00  0.00    +0.000 A 
ATOM     11  C   UNL     1      49.633   6.277  15.965  0.00  0.00    +0.000 A 
ATOM     12  C   UNL     1      49.293   7.210  14.908  0.00  0.00    +0.000 A 
ATOM     13  O   UNL     1      48.171   7.345  14.431  0.00  0.00    +0.000 OA
ATOM     14  N   UNL     1      50.338   7.980  14.465  0.00  0.00    +0.000 N 
ATOM     15  H   UNL     1      50.117   8.631  13.724  0.00  0.00    +0.000 HD
BRANCH   5  17
ATOM     16  C   UNL     1      51.890   9.905  13.524  0.00  0.00    +0.000 C 
ATOM     17  C   UNL     1      52.595   8.880  14.393  0.00  0.00    +0.000 C 
ENDBRANCH   5  17
ENDBRANCH   1  10
BRANCH   3  18
ATOM     18  C   UNL     1      45.720   4.415  14.631  0.00  0.00    +0.000 C 
BRANCH  18  19
ATOM     19  C   UNL     1      45.598   4.387  13.127  0.00  0.00    +0.000 A 
ATOM     20  C   UNL     1      45.113   3.242  12.484  0.00  0.00    +0.000 A 
ATOM     21  C   UNL     1      44.927   3.226  11.098  0.00  0.00    +0.000 A 
ATOM     22  C   UNL     1      45.218   4.358  10.322  0.00  0.00    +0.000 A 
ATOM     23  C   UNL     1      45.746   5.488  10.961  0.00  0.00    +0.000 A 
ATOM     24  C   UNL     1      45.950   5.497  12.347  0.00  0.00    +0.000 A 
BRANCH  22  25
ATOM     25  C   UNL     1      44.981   4.358   8.828  0.00  0.00    +0.000 C 
BRANCH  25  26
ATOM     26  C   UNL     1      45.810   3.381   8.016  0.00  0.00    +0.000 A 
ATOM     27  C   UNL     1      45.865   2.028   8.354  0.00  0.00    +0.000 A 
ATOM     28  C   UNL     1      46.741   1.190   7.668  0.00  0.00    +0.000 A 
ATOM     29  C   UNL     1      47.539   1.715   6.661  0.00  0.00    +0.000 A 
ATOM     30  C   UNL     1      47.416   3.063   6.371  0.00  0.00    +0.000 A 
ATOM     31  N   UNL     1      46.579   3.902   7.023  0.00  0.00    +0.000 NA
ENDBRANCH  25  26
ENDBRANCH  22  25
ENDBRANCH  18  19
ENDBRANCH   3  18
TORSDOF 6
ENDMDL
MODEL 8
REMARK VINA RESULT:    -6.949      4.048      8.789
REMARK INTER + INTRA:          -9.872
REMARK INTER:                  -8.886
REMARK INTRA:                  -0.986
REMARK UNBOUND:                -0.486
REMARK  Name = 
REMARK  7 active torsions:
REMARK  status: ('A' for Active; 'I' for Inactive)
REMARK    1  A    between atoms: C_1  and  C_2
REMARK    2  A    between atoms: C_2  and  C_3
REMARK    3  A    between atoms: C_8  and  C_9
REMARK    4  A    between atoms: N_11  and  C_12
REMARK    5  A    between atoms: C_12  and  C_13
REMARK    6  A    between atoms: C_16  and  C_17
REMARK    7  A    between atoms: C_17  and  C_18
REMARK                            x       y       z     vdW  Elec       q    Type
REMARK                         _______ _______ _______ _____ _____    ______ ____
ROOT
ATOM      1  C   UNL     1      47.073   4.032  14.799  0.00  0.00    +0.000 C 
ATOM      2  O   UNL     1      47.395   2.938  14.341  0.00  0.00    +0.000 OA
ATOM      3  N   UNL     1      47.079   4.285  16.144  0.00  0.00    +0.000 N 
ATOM      4  H   UNL     1      46.882   5.216  16.489  0.00  0.00    +0.000 HD
ENDROOT
BRANCH   1  10
ATOM      5  C   UNL     1      47.781   9.009  12.915  0.00  0.00    +0.000 A 
ATOM      6  N   UNL     1      46.692   8.496  12.432  0.00  0.00    +0.000 NA
ATOM      7  C   UNL     1      46.452   7.211  12.812  0.00  0.00    +0.000 A 
ATOM      8  S   UNL     1      45.062   6.389  12.278  0.00  0.00    +0.000 S 
ATOM      9  C   UNL     1      45.464   5.005  13.190  0.00  0.00    +0.000 A 
ATOM     10  C   UNL     1      46.642   5.130  13.913  0.00  0.00    +0.000 A 
ATOM     11  C   UNL     1      47.237   6.421  13.634  0.00  0.00    +0.000 A 
ATOM     12  C   UNL     1      48.480   7.015  14.088  0.00  0.00    +0.000 A 
ATOM     13  O   UNL     1      49.336   6.427  14.740  0.00  0.00    +0.000 OA
ATOM     14  N   UNL     1      48.661   8.322  13.714  0.00  0.00    +0.000 N 
ATOM     15  H   UNL     1      49.521   8.750  14.030  0.00  0.00    +0.000 HD
BRANCH   5  17
ATOM     16  C   UNL     1      48.989  10.493  11.325  0.00  0.00    +0.000 C 
ATOM     17  C   UNL     1      48.179  10.432  12.607  0.00  0.00    +0.000 C 
ENDBRANCH   5  17
ENDBRANCH   1  10
BRANCH   3  18
ATOM     18  C   UNL     1      47.486   3.326  17.140  0.00  0.00    +0.000 C 
BRANCH  18  19
ATOM     19  C   UNL     1      48.987   3.271  17.279  0.00  0.00    +0.000 A 
ATOM     20  C   UNL     1      49.702   4.422  17.633  0.00  0.00    +0.000 A 
ATOM     21  C   UNL     1      51.084   4.369  17.836  0.00  0.00    +0.000 A 
ATOM     22  C   UNL     1      51.785   3.162  17.694  0.00  0.00    +0.000 A 
ATOM     23  C   UNL     1      51.076   2.021  17.296  0.00  0.00    +0.000 A 
ATOM     24  C   UNL     1      49.694   2.078  17.074  0.00  0.00    +0.000 A 
BRANCH  22  25
ATOM     25  C   UNL     1      53.275   3.094  17.950  0.00  0.00    +0.000 C 
BRANCH  25  26
ATOM     26  C   UNL     1      53.905   1.716  17.890  0.00  0.00    +0.000 A 
ATOM     27  C   UNL     1      54.276   1.146  16.671  0.00  0.00    +0.000 A 
ATOM     28  C   UNL     1      54.726  -0.173  16.645  0.00  0.00    +0.000 A 
ATOM     29  C   UNL     1      54.801  -0.891  17.830  0.00  0.00    +0.000 A 
ATOM     30  C   UNL     1      54.432  -0.253  19.001  0.00  0.00    +0.000 A 
ATOM     31  N   UNL     1      53.985   1.023  19.057  0.00  0.00    +0.000 NA
ENDBRANCH  25  26
ENDBRANCH  22  25
ENDBRANCH  18  19
ENDBRANCH   3  18
TORSDOF 6
ENDMDL
MODEL 9
REMARK VINA RESULT:    -6.560      3.906      9.086
REMARK INTER + INTRA:          -9.346
REMARK INTER:                  -8.244
REMARK INTRA:                  -1.102
REMARK UNBOUND:                -0.486
REMARK  Name = 
REMARK  7 active torsions:
REMARK  status: ('A' for Active; 'I' for Inactive)
REMARK    1  A    between atoms: C_1  and  C_2
REMARK    2  A    between atoms: C_2  and  C_3
REMARK    3  A    between atoms: C_8  and  C_9
REMARK    4  A    between atoms: N_11  and  C_12
REMARK    5  A    between atoms: C_12  and  C_13
REMARK    6  A    between atoms: C_16  and  C_17
REMARK    7  A    between atoms: C_17  and  C_18
REMARK                            x       y       z     vdW  Elec       q    Type
REMARK                         _______ _______ _______ _____ _____    ______ ____
ROOT
ATOM      1  C   UNL     1      47.173   4.203  14.806  0.00  0.00    +0.000 C 
ATOM      2  O   UNL     1      47.481   3.042  14.549  0.00  0.00    +0.000 OA
ATOM      3  N   UNL     1      47.141   4.676  16.090  0.00  0.00    +0.000 N 
ATOM      4  H   UNL     1      46.958   5.656  16.269  0.00  0.00    +0.000 HD
ENDROOT
BRANCH   1  10
ATOM      5  C   UNL     1      47.974   8.851  12.242  0.00  0.00    +0.000 A 
ATOM      6  N   UNL     1      46.927   8.250  11.768  0.00  0.00    +0.000 NA
ATOM      7  C   UNL     1      46.671   7.033  12.321  0.00  0.00    +0.000 A 
ATOM      8  S   UNL     1      45.330   6.114  11.822  0.00  0.00    +0.000 S 
ATOM      9  C   UNL     1      45.676   4.892  12.959  0.00  0.00    +0.000 A 
ATOM     10  C   UNL     1      46.798   5.146  13.736  0.00  0.00    +0.000 A 
ATOM     11  C   UNL     1      47.401   6.392  13.306  0.00  0.00    +0.000 A 
ATOM     12  C   UNL     1      48.603   7.071  13.751  0.00  0.00    +0.000 A 
ATOM     13  O   UNL     1      49.415   6.604  14.544  0.00  0.00    +0.000 OA
ATOM     14  N   UNL     1      48.800   8.310  13.197  0.00  0.00    +0.000 N 
ATOM     15  H   UNL     1      49.631   8.797  13.503  0.00  0.00    +0.000 HD
BRANCH   5  17
ATOM     16  C   UNL     1      48.405  11.212  12.898  0.00  0.00    +0.000 C 
ATOM     17  C   UNL     1      48.382  10.218  11.751  0.00  0.00    +0.000 C 
ENDBRANCH   5  17
ENDBRANCH   1  10
BRANCH   3  18
ATOM     18  C   UNL     1      47.493   3.890  17.245  0.00  0.00    +0.000 C 
BRANCH  18  19
ATOM     19  C   UNL     1      48.987   3.732  17.379  0.00  0.00    +0.000 A 
ATOM     20  C   UNL     1      49.795   4.857  17.583  0.00  0.00    +0.000 A 
ATOM     21  C   UNL     1      51.173   4.720  17.781  0.00  0.00    +0.000 A 
ATOM     22  C   UNL     1      51.775   3.452  17.783  0.00  0.00    +0.000 A 
ATOM     23  C   UNL     1      50.972   2.331  17.533  0.00  0.00    +0.000 A 
ATOM     24  C   UNL     1      49.595   2.471  17.317  0.00  0.00    +0.000 A 
BRANCH  22  25
ATOM     25  C   UNL     1      53.259   3.297  18.035  0.00  0.00    +0.000 C 
BRANCH  25  26
ATOM     26  C   UNL     1      54.079   4.573  18.028  0.00  0.00    +0.000 A 
ATOM     27  C   UNL     1      54.605   5.084  16.840  0.00  0.00    +0.000 A 
ATOM     28  C   UNL     1      55.463   6.181  16.891  0.00  0.00    +0.000 A 
ATOM     29  C   UNL     1      55.775   6.744  18.121  0.00  0.00    +0.000 A 
ATOM     30  C   UNL     1      55.201   6.193  19.253  0.00  0.00    +0.000 A 
ATOM     31  N   UNL     1      54.370   5.126  19.235  0.00  0.00    +0.000 NA
ENDBRANCH  25  26
ENDBRANCH  22  25
ENDBRANCH  18  19
ENDBRANCH   3  18
TORSDOF 6
ENDMDL
