MODEL 1
REMARK VINA RESULT:    -7.247      0.000      0.000
REMARK INTER + INTRA:          -9.529
REMARK INTER:                  -9.153
REMARK INTRA:                  -0.376
REMARK UNBOUND:                -0.376
REMARK  Name = 
REMARK  5 active torsions:
REMARK  status: ('A' for Active; 'I' for Inactive)
REMARK    1  A    between atoms: N_1  and  C_2
REMARK    2  A    between atoms: C_2  and  C_3
REMARK    3  A    between atoms: C_6  and  O_7
REMARK    4  A    between atoms: O_7  and  C_8
REMARK    5  A    between atoms: C_8  and  C_9
REMARK                            x       y       z     vdW  Elec       q    Type
REMARK                         _______ _______ _______ _____ _____    ______ ____
ROOT
ATOM      1  C   UNL     1      46.587   2.323   7.539  0.00  0.00    +0.000 A 
ATOM      2  C   UNL     1      46.377   3.708   7.573  0.00  0.00    +0.000 A 
ATOM      3  C   UNL     1      45.425   4.271   8.430  0.00  0.00    +0.000 A 
ATOM      4  C   UNL     1      44.659   3.454   9.262  0.00  0.00    +0.000 A 
ATOM      5  C   UNL     1      44.873   2.075   9.245  0.00  0.00    +0.000 A 
ATOM      6  C   UNL     1      45.822   1.511   8.386  0.00  0.00    +0.000 A 
ENDROOT
BRANCH   1   7
ATOM      7  C   UNL     1      47.593   1.722   6.590  0.00  0.00    +0.000 C 
BRANCH   7   8
ATOM      8  N   UNL     1      48.702   2.631   6.320  0.00  0.00    +0.000 NA
ATOM      9  H   UNL     1      49.491   2.095   5.964  0.00  0.00    +0.000 HD
ATOM     10  H   UNL     1      49.008   3.042   7.201  0.00  0.00    +0.000 HD
ENDBRANCH   7   8
ENDBRANCH   1   7
BRANCH   4  11
ATOM     11  O   UNL     1      43.720   3.895  10.157  0.00  0.00    +0.000 OA
BRANCH  11  12
ATOM     12  C   UNL     1      43.778   3.291  11.455  0.00  0.00    +0.000 C 
BRANCH  12  13
ATOM     13  C   UNL     1      44.847   3.955  12.300  0.00  0.00    +0.000 A 
ATOM     14  N   UNL     1      45.783   3.156  12.860  0.00  0.00    +0.000 NA
ATOM     15  C   UNL     1      46.733   3.763  13.593  0.00  0.00    +0.000 A 
ATOM     16  C   UNL     1      46.793   5.121  13.783  0.00  0.00    +0.000 A 
ATOM     17  C   UNL     1      45.804   5.850  13.167  0.00  0.00    +0.000 A 
ATOM     18  N   UNL     1      44.827   5.300  12.421  0.00  0.00    +0.000 NA
ENDBRANCH  12  13
ENDBRANCH  11  12
ENDBRANCH   4  11
TORSDOF 5
ENDMDL
MODEL 2
REMARK VINA RESULT:    -6.833      0.892      1.642
REMARK INTER + INTRA:          -9.006
REMARK INTER:                  -8.620
REMARK INTRA:                  -0.386
REMARK UNBOUND:                -0.376
REMARK  Name = 
REMARK  5 active torsions:
REMARK  status: ('A' for Active; 'I' for Inactive)
REMARK    1  A    between atoms: N_1  and  C_2
REMARK    2  A    between atoms: C_2  and  C_3
REMARK    3  A    between atoms: C_6  and  O_7
REMARK    4  A    between atoms: O_7  and  C_8
REMARK    5  A    between atoms: C_8  and  C_9
REMARK                            x       y       z     vdW  Elec       q    Type
REMARK                         _______ _______ _______ _____ _____    ______ ____
ROOT
ATOM      1  C   UNL     1      46.570   2.315   7.583  0.00  0.00    +0.000 A 
ATOM      2  C   UNL     1      45.744   1.609   8.468  0.00  0.00    +0.000 A 
ATOM      3  C   UNL     1      44.779   2.273   9.234  0.00  0.00    +0.000 A 
ATOM      4  C   UNL     1      44.631   3.656   9.134  0.00  0.00    +0.000 A 
ATOM      5  C   UNL     1      45.440   4.363   8.242  0.00  0.00    +0.000 A 
ATOM      6  C   UNL     1      46.408   3.701   7.479  0.00  0.00    +0.000 A 
ENDROOT
BRANCH   1   7
ATOM      7  C   UNL     1      47.629   1.596   6.785  0.00  0.00    +0.000 C 
BRANCH   7   8
ATOM      8  N   UNL     1      48.703   2.491   6.367  0.00  0.00    +0.000 NA
ATOM      9  H   UNL     1      48.930   2.304   5.393  0.00  0.00    +0.000 HD
ATOM     10  H   UNL     1      49.540   2.269   6.905  0.00  0.00    +0.000 HD
ENDBRANCH   7   8
ENDBRANCH   1   7
BRANCH   4  11
ATOM     11  O   UNL     1      43.707   4.404   9.812  0.00  0.00    +0.000 OA
BRANCH  11  12
ATOM     12  C   UNL     1      43.723   4.256  11.238  0.00  0.00    +0.000 C 
BRANCH  12  13
ATOM     13  C   UNL     1      44.699   5.235  11.860  0.00  0.00    +0.000 A 
ATOM     14  N   UNL     1      45.545   4.756  12.799  0.00  0.00    +0.000 NA
ATOM     15  C   UNL     1      46.416   5.634  13.330  0.00  0.00    +0.000 A 
ATOM     16  C   UNL     1      46.481   6.955  12.960  0.00  0.00    +0.000 A 
ATOM     17  C   UNL     1      45.587   7.344  11.992  0.00  0.00    +0.000 A 
ATOM     18  N   UNL     1      44.693   6.513  11.424  0.00  0.00    +0.000 NA
ENDBRANCH  12  13
ENDBRANCH  11  12
ENDBRANCH   4  11
TORSDOF 5
ENDMDL
MODEL 3
REMARK VINA RESULT:    -6.434      1.949      5.713
REMARK INTER + INTRA:          -8.502
REMARK INTER:                  -8.187
REMARK INTRA:                  -0.315
REMARK UNBOUND:                -0.376
REMARK  Name = 
REMARK  5 active torsions:
REMARK  status: ('A' for Active; 'I' for Inactive)
REMARK    1  A    between atoms: N_1  and  C_2
REMARK    2  A    between atoms: C_2  and  C_3
REMARK    3  A    between atoms: C_6  and  O_7
REMARK    4  A    between atoms: O_7  and  C_8
REMARK    5  A    between atoms: C_8  and  C_9
REMARK                            x       y       z     vdW  Elec       q    Type
REMARK                         _______ _______ _______ _____ _____    ______ ____
ROOT
ATOM      1  C   UNL     1      46.642   5.849  12.600  0.00  0.00    +0.000 A 
ATOM      2  C   UNL     1      46.028   4.639  12.952  0.00  0.00    +0.000 A 
ATOM      3  C   UNL     1      45.204   3.960  12.047  0.00  0.00    +0.000 A 
ATOM      4  C   UNL     1      44.974   4.486  10.776  0.00  0.00    +0.000 A 
ATOM      5  C   UNL     1      45.595   5.683  10.413  0.00  0.00    +0.000 A 
ATOM      6  C   UNL     1      46.415   6.365  11.318  0.00  0.00    +0.000 A 
ENDROOT
BRANCH   1   7
ATOM      7  C   UNL     1      47.502   6.590  13.593  0.00  0.00    +0.000 C 
BRANCH   7   8
ATOM      8  N   UNL     1      47.856   5.759  14.739  0.00  0.00    +0.000 NA
ATOM      9  H   UNL     1      48.637   5.159  14.485  0.00  0.00    +0.000 HD
ATOM     10  H   UNL     1      47.074   5.140  14.947  0.00  0.00    +0.000 HD
ENDBRANCH   7   8
ENDBRANCH   1   7
BRANCH   4  11
ATOM     11  O   UNL     1      44.211   3.898   9.803  0.00  0.00    +0.000 OA
BRANCH  11  12
ATOM     12  C   UNL     1      44.501   2.519   9.545  0.00  0.00    +0.000 C 
BRANCH  12  13
ATOM     13  C   UNL     1      45.511   2.391   8.423  0.00  0.00    +0.000 A 
ATOM     14  N   UNL     1      46.206   1.235   8.341  0.00  0.00    +0.000 NA
ATOM     15  C   UNL     1      47.088   1.131   7.330  0.00  0.00    +0.000 A 
ATOM     16  C   UNL     1      47.298   2.122   6.402  0.00  0.00    +0.000 A 
ATOM     17  C   UNL     1      46.538   3.255   6.564  0.00  0.00    +0.000 A 
ATOM     18  N   UNL     1      45.640   3.417   7.555  0.00  0.00    +0.000 NA
ENDBRANCH  12  13
ENDBRANCH  11  12
ENDBRANCH   4  11
TORSDOF 5
ENDMDL
MODEL 4
REMARK VINA RESULT:    -5.836      2.367      5.475
REMARK INTER + INTRA:          -7.747
REMARK INTER:                  -7.370
REMARK INTRA:                  -0.376
REMARK UNBOUND:                -0.376
REMARK  Name = 
REMARK  5 active torsions:
REMARK  status: ('A' for Active; 'I' for Inactive)
REMARK    1  A    between atoms: N_1  and  C_2
REMARK    2  A    between atoms: C_2  and  C_3
REMARK    3  A    between atoms: C_6  and  O_7
REMARK    4  A    between atoms: O_7  and  C_8
REMARK    5  A    between atoms: C_8  and  C_9
REMARK                            x       y       z     vdW  Elec       q    Type
REMARK                         _______ _______ _______ _____ _____    ______ ____
ROOT
ATOM      1  C   UNL     1      47.347   6.863  12.819  0.00  0.00    +0.000 A 
ATOM      2  C   UNL     1      46.426   7.391  11.904  0.00  0.00    +0.000 A 
ATOM      3  C   UNL     1      45.364   6.616  11.424  0.00  0.00    +0.000 A 
ATOM      4  C   UNL     1      45.211   5.296  11.846  0.00  0.00    +0.000 A 
ATOM      5  C   UNL     1      46.115   4.768  12.769  0.00  0.00    +0.000 A 
ATOM      6  C   UNL     1      47.180   5.540  13.246  0.00  0.00    +0.000 A 
ENDROOT
BRANCH   1   7
ATOM      7  C   UNL     1      48.507   7.694  13.306  0.00  0.00    +0.000 C 
BRANCH   7   8
ATOM      8  N   UNL     1      49.759   6.946  13.302  0.00  0.00    +0.000 NA
ATOM      9  H   UNL     1      49.550   5.950  13.304  0.00  0.00    +0.000 HD
ATOM     10  H   UNL     1      50.256   7.137  14.171  0.00  0.00    +0.000 HD
ENDBRANCH   7   8
ENDBRANCH   1   7
BRANCH   4  11
ATOM     11  O   UNL     1      44.199   4.456  11.465  0.00  0.00    +0.000 OA
BRANCH  11  12
ATOM     12  C   UNL     1      43.802   4.555  10.092  0.00  0.00    +0.000 C 
BRANCH  12  13
ATOM     13  C   UNL     1      44.748   3.767   9.209  0.00  0.00    +0.000 A 
ATOM     14  N   UNL     1      44.825   2.433   9.415  0.00  0.00    +0.000 NA
ATOM     15  C   UNL     1      45.657   1.746   8.612  0.00  0.00    +0.000 A 
ATOM     16  C   UNL     1      46.404   2.328   7.618  0.00  0.00    +0.000 A 
ATOM     17  C   UNL     1      46.251   3.686   7.480  0.00  0.00    +0.000 A 
ATOM     18  N   UNL     1      45.434   4.428   8.252  0.00  0.00    +0.000 NA
ENDBRANCH  12  13
ENDBRANCH  11  12
ENDBRANCH   4  11
TORSDOF 5
ENDMDL
MODEL 5
REMARK VINA RESULT:    -5.466      4.003      8.126
REMARK INTER + INTRA:          -7.280
REMARK INTER:                  -7.000
REMARK INTRA:                  -0.280
REMARK UNBOUND:                -0.376
REMARK  Name = 
REMARK  5 active torsions:
REMARK  status: ('A' for Active; 'I' for Inactive)
REMARK    1  A    between atoms: N_1  and  C_2
REMARK    2  A    between atoms: C_2  and  C_3
REMARK    3  A    between atoms: C_6  and  O_7
REMARK    4  A    between atoms: O_7  and  C_8
REMARK    5  A    between atoms: C_8  and  C_9
REMARK                            x       y       z     vdW  Elec       q    Type
REMARK                         _______ _______ _______ _____ _____    ______ ____
ROOT
ATOM      1  C   UNL     1      48.626   4.507  18.579  0.00  0.00    +0.000 A 
ATOM      2  C   UNL     1      48.266   3.191  18.261  0.00  0.00    +0.000 A 
ATOM      3  C   UNL     1      47.793   2.863  16.985  0.00  0.00    +0.000 A 
ATOM      4  C   UNL     1      47.664   3.850  16.009  0.00  0.00    +0.000 A 
ATOM      5  C   UNL     1      48.036   5.161  16.314  0.00  0.00    +0.000 A 
ATOM      6  C   UNL     1      48.505   5.491  17.590  0.00  0.00    +0.000 A 
ENDROOT
BRANCH   1   7
ATOM      7  C   UNL     1      49.105   4.857  19.966  0.00  0.00    +0.000 C 
BRANCH   7   8
ATOM      8  N   UNL     1      48.508   4.000  20.984  0.00  0.00    +0.000 NA
ATOM      9  H   UNL     1      48.450   4.515  21.860  0.00  0.00    +0.000 HD
ATOM     10  H   UNL     1      49.133   3.213  21.155  0.00  0.00    +0.000 HD
ENDBRANCH   7   8
ENDBRANCH   1   7
BRANCH   4  11
ATOM     11  O   UNL     1      47.239   3.641  14.724  0.00  0.00    +0.000 OA
BRANCH  11  12
ATOM     12  C   UNL     1      46.817   4.815  14.018  0.00  0.00    +0.000 C 
BRANCH  12  13
ATOM     13  C   UNL     1      45.521   4.549  13.279  0.00  0.00    +0.000 A 
ATOM     14  N   UNL     1      45.347   3.317  12.752  0.00  0.00    +0.000 NA
ATOM     15  C   UNL     1      44.184   3.092  12.113  0.00  0.00    +0.000 A 
ATOM     16  C   UNL     1      43.195   4.035  11.986  0.00  0.00    +0.000 A 
ATOM     17  C   UNL     1      43.460   5.254  12.562  0.00  0.00    +0.000 A 
ATOM     18  N   UNL     1      44.604   5.538  13.214  0.00  0.00    +0.000 NA
ENDBRANCH  12  13
ENDBRANCH  11  12
ENDBRANCH   4  11
TORSDOF 5
ENDMDL
MODEL 6
REMARK VINA RESULT:    -5.232      4.293      5.607
REMARK INTER + INTRA:          -6.984
REMARK INTER:                  -6.678
REMARK INTRA:                  -0.306
REMARK UNBOUND:                -0.376
REMARK  Name = 
REMARK  5 active torsions:
REMARK  status: ('A' for Active; 'I' for Inactive)
REMARK    1  A    between atoms: N_1  and  C_2
REMARK    2  A    between atoms: C_2  and  C_3
REMARK    3  A    between atoms: C_6  and  O_7
REMARK    4  A    between atoms: O_7  and  C_8
REMARK    5  A    between atoms: C_8  and  C_9
REMARK                            x       y       z     vdW  Elec       q    Type
REMARK                         _______ _______ _______ _____ _____    ______ ____
ROOT
ATOM      1  C   UNL     1      43.943   4.942  12.277  0.00  0.00    +0.000 A 
ATOM      2  C   UNL     1      44.732   5.905  12.920  0.00  0.00    +0.000 A 
ATOM      3  C   UNL     1      45.960   5.560  13.497  0.00  0.00    +0.000 A 
ATOM      4  C   UNL     1      46.413   4.243  13.447  0.00  0.00    +0.000 A 
ATOM      5  C   UNL     1      45.640   3.281  12.794  0.00  0.00    +0.000 A 
ATOM      6  C   UNL     1      44.411   3.624  12.221  0.00  0.00    +0.000 A 
ENDROOT
BRANCH   1   7
ATOM      7  C   UNL     1      42.607   5.316  11.686  0.00  0.00    +0.000 C 
BRANCH   7   8
ATOM      8  N   UNL     1      42.637   6.628  11.048  0.00  0.00    +0.000 NA
ATOM      9  H   UNL     1      43.598   6.959  11.016  0.00  0.00    +0.000 HD
ATOM     10  H   UNL     1      42.124   7.287  11.632  0.00  0.00    +0.000 HD
ENDBRANCH   7   8
ENDBRANCH   1   7
BRANCH   4  11
ATOM     11  O   UNL     1      47.606   3.797  13.952  0.00  0.00    +0.000 OA
BRANCH  11  12
ATOM     12  C   UNL     1      47.541   3.221  15.263  0.00  0.00    +0.000 C 
BRANCH  12  13
ATOM     13  C   UNL     1      47.755   4.286  16.320  0.00  0.00    +0.000 A 
ATOM     14  N   UNL     1      47.040   4.179  17.463  0.00  0.00    +0.000 NA
ATOM     15  C   UNL     1      47.253   5.123  18.397  0.00  0.00    +0.000 A 
ATOM     16  C   UNL     1      48.146   6.155  18.243  0.00  0.00    +0.000 A 
ATOM     17  C   UNL     1      48.831   6.173  17.053  0.00  0.00    +0.000 A 
ATOM     18  N   UNL     1      48.661   5.257  16.080  0.00  0.00    +0.000 NA
ENDBRANCH  12  13
ENDBRANCH  11  12
ENDBRANCH   4  11
TORSDOF 5
ENDMDL
MODEL 7
REMARK VINA RESULT:    -5.125      3.612      5.471
REMARK INTER + INTRA:          -6.849
REMARK INTER:                  -6.637
REMARK INTRA:                  -0.212
REMARK UNBOUND:                -0.376
REMARK  Name = 
REMARK  5 active torsions:
REMARK  status: ('A' for Active; 'I' for Inactive)
REMARK    1  A    between atoms: N_1  and  C_2
REMARK    2  A    between atoms: C_2  and  C_3
REMARK    3  A    between atoms: C_6  and  O_7
REMARK    4  A    between atoms: O_7  and  C_8
REMARK    5  A    between atoms: C_8  and  C_9
REMARK                            x       y       z     vdW  Elec       q    Type
REMARK                         _______ _______ _______ _____ _____    ______ ____
ROOT
ATOM      1  C   UNL     1      44.665   4.600  11.264  0.00  0.00    +0.000 A 
ATOM      2  C   UNL     1      45.015   3.447  11.980  0.00  0.00    +0.000 A 
ATOM      3  C   UNL     1      45.969   3.498  13.003  0.00  0.00    +0.000 A 
ATOM      4  C   UNL     1      46.595   4.703  13.320  0.00  0.00    +0.000 A 
ATOM      5  C   UNL     1      46.240   5.859  12.622  0.00  0.00    +0.000 A 
ATOM      6  C   UNL     1      45.290   5.808  11.596  0.00  0.00    +0.000 A 
ENDROOT
BRANCH   1   7
ATOM      7  C   UNL     1      43.660   4.530  10.142  0.00  0.00    +0.000 C 
BRANCH   7   8
ATOM      8  N   UNL     1      44.297   4.312   8.847  0.00  0.00    +0.000 NA
ATOM      9  H   UNL     1      45.295   4.176   8.988  0.00  0.00    +0.000 HD
ATOM     10  H   UNL     1      44.199   5.160   8.289  0.00  0.00    +0.000 HD
ENDBRANCH   7   8
ENDBRANCH   1   7
BRANCH   4  11
ATOM     11  O   UNL     1      47.520   4.876  14.315  0.00  0.00    +0.000 OA
BRANCH  11  12
ATOM     12  C   UNL     1      47.213   4.233  15.558  0.00  0.00    +0.000 C 
BRANCH  12  13
ATOM     13  C   UNL     1      48.484   3.912  16.316  0.00  0.00    +0.000 A 
ATOM     14  N   UNL     1      49.227   4.953  16.755  0.00  0.00    +0.000 NA
ATOM     15  C   UNL     1      50.344   4.651  17.440  0.00  0.00    +0.000 A 
ATOM     16  C   UNL     1      50.745   3.366  17.710  0.00  0.00    +0.000 A 
ATOM     17  C   UNL     1      49.920   2.376  17.231  0.00  0.00    +0.000 A 
ATOM     18  N   UNL     1      48.790   2.616  16.539  0.00  0.00    +0.000 NA
ENDBRANCH  12  13
ENDBRANCH  11  12
ENDBRANCH   4  11
TORSDOF 5
ENDMDL
MODEL 8
REMARK VINA RESULT:    -4.964      4.677      6.118
REMARK INTER + INTRA:          -6.645
REMARK INTER:                  -6.363
REMARK INTRA:                  -0.282
REMARK UNBOUND:                -0.376
REMARK  Name = 
REMARK  5 active torsions:
REMARK  status: ('A' for Active; 'I' for Inactive)
REMARK    1  A    between atoms: N_1  and  C_2
REMARK    2  A    between atoms: C_2  and  C_3
REMARK    3  A    between atoms: C_6  and  O_7
REMARK    4  A    between atoms: O_7  and  C_8
REMARK    5  A    between atoms: C_8  and  C_9
REMARK                            x       y       z     vdW  Elec       q    Type
REMARK                         _______ _______ _______ _____ _____    ______ ____
ROOT
ATOM      1  C   UNL     1      45.372   7.975  11.946  0.00  0.00    +0.000 A 
ATOM      2  C   UNL     1      45.143   6.666  11.499  0.00  0.00    +0.000 A 
ATOM      3  C   UNL     1      45.917   5.600  11.971  0.00  0.00    +0.000 A 
ATOM      4  C   UNL     1      46.938   5.827  12.893  0.00  0.00    +0.000 A 
ATOM      5  C   UNL     1      47.161   7.126  13.355  0.00  0.00    +0.000 A 
ATOM      6  C   UNL     1      46.392   8.194  12.880  0.00  0.00    +0.000 A 
ENDROOT
BRANCH   1   7
ATOM      7  C   UNL     1      44.554   9.122  11.408  0.00  0.00    +0.000 C 
BRANCH   7   8
ATOM      8  N   UNL     1      44.275  10.124  12.431  0.00  0.00    +0.000 NA
ATOM      9  H   UNL     1      44.781   9.882  13.280  0.00  0.00    +0.000 HD
ATOM     10  H   UNL     1      43.284  10.083  12.665  0.00  0.00    +0.000 HD
ENDBRANCH   7   8
ENDBRANCH   1   7
BRANCH   4  11
ATOM     11  O   UNL     1      47.738   4.861  13.442  0.00  0.00    +0.000 OA
BRANCH  11  12
ATOM     12  C   UNL     1      47.047   3.771  14.064  0.00  0.00    +0.000 C 
BRANCH  12  13
ATOM     13  C   UNL     1      47.531   3.581  15.487  0.00  0.00    +0.000 A 
ATOM     14  N   UNL     1      48.463   2.626  15.704  0.00  0.00    +0.000 NA
ATOM     15  C   UNL     1      48.894   2.481  16.970  0.00  0.00    +0.000 A 
ATOM     16  C   UNL     1      48.444   3.246  18.017  0.00  0.00    +0.000 A 
ATOM     17  C   UNL     1      47.505   4.196  17.696  0.00  0.00    +0.000 A 
ATOM     18  N   UNL     1      47.035   4.389  16.448  0.00  0.00    +0.000 NA
ENDBRANCH  12  13
ENDBRANCH  11  12
ENDBRANCH   4  11
TORSDOF 5
ENDMDL
MODEL 9
REMARK VINA RESULT:    -4.961      4.476      5.768
REMARK INTER + INTRA:          -6.642
REMARK INTER:                  -6.348
REMARK INTRA:                  -0.294
REMARK UNBOUND:                -0.376
REMARK  Name = 
REMARK  5 active torsions:
REMARK  status: ('A' for Active; 'I' for Inactive)
REMARK    1  A    between atoms: N_1  and  C_2
REMARK    2  A    between atoms: C_2  and  C_3
REMARK    3  A    between atoms: C_6  and  O_7
REMARK    4  A    between atoms: O_7  and  C_8
REMARK    5  A    between atoms: C_8  and  C_9
REMARK                            x       y       z     vdW  Elec       q    Type
REMARK                         _______ _______ _______ _____ _____    ______ ____
ROOT
ATOM      1  C   UNL     1      44.526   5.457  11.737  0.00  0.00    +0.000 A 
ATOM      2  C   UNL     1      45.402   6.551  11.690  0.00  0.00    +0.000 A 
ATOM      3  C   UNL     1      46.601   6.543  12.413  0.00  0.00    +0.000 A 
ATOM      4  C   UNL     1      46.938   5.444  13.202  0.00  0.00    +0.000 A 
ATOM      5  C   UNL     1      46.077   4.345  13.241  0.00  0.00    +0.000 A 
ATOM      6  C   UNL     1      44.877   4.353  12.522  0.00  0.00    +0.000 A 
ENDROOT
BRANCH   1   7
ATOM      7  C   UNL     1      43.222   5.488  10.980  0.00  0.00    +0.000 C 
BRANCH   7   8
ATOM      8  N   UNL     1      42.181   6.203  11.710  0.00  0.00    +0.000 NA
ATOM      9  H   UNL     1      42.173   7.175  11.410  0.00  0.00    +0.000 HD
ATOM     10  H   UNL     1      42.423   6.209  12.700  0.00  0.00    +0.000 HD
ENDBRANCH   7   8
ENDBRANCH   1   7
BRANCH   4  11
ATOM     11  O   UNL     1      48.092   5.315  13.928  0.00  0.00    +0.000 OA
BRANCH  11  12
ATOM     12  C   UNL     1      48.140   6.072  15.144  0.00  0.00    +0.000 C 
BRANCH  12  13
ATOM     13  C   UNL     1      48.243   5.148  16.340  0.00  0.00    +0.000 A 
ATOM     14  N   UNL     1      48.247   3.817  16.098  0.00  0.00    +0.000 NA
ATOM     15  C   UNL     1      48.355   3.010  17.169  0.00  0.00    +0.000 A 
ATOM     16  C   UNL     1      48.466   3.470  18.457  0.00  0.00    +0.000 A 
ATOM     17  C   UNL     1      48.463   4.837  18.601  0.00  0.00    +0.000 A 
ATOM     18  N   UNL     1      48.357   5.695  17.568  0.00  0.00    +0.000 NA
ENDBRANCH  12  13
ENDBRANCH  11  12
ENDBRANCH   4  11
TORSDOF 5
ENDMDL
