MODEL 1
REMARK VINA RESULT:    -7.533      0.000      0.000
REMARK INTER + INTRA:         -11.760
REMARK INTER:                 -11.057
REMARK INTRA:                  -0.704
REMARK UNBOUND:                -0.704
REMARK  Name = 
REMARK  9 active torsions:
REMARK  status: ('A' for Active; 'I' for Inactive)
REMARK    1  A    between atoms: C_1  and  C_2
REMARK    2  A    between atoms: C_2  and  O_3
REMARK    3  A    between atoms: O_3  and  C_4
REMARK    4  A    between atoms: C_6  and  C_7
REMARK    5  A    between atoms: C_12  and  N_13
REMARK    6  A    between atoms: N_13  and  C_14
REMARK    7  A    between atoms: C_14  and  C_15
REMARK    8  A    between atoms: C_15  and  C_16
REMARK    9  A    between atoms: C_19  and  C_20
REMARK                            x       y       z     vdW  Elec       q    Type
REMARK                         _______ _______ _______ _____ _____    ______ ____
ROOT
ATOM      1  C   UNL     1      46.679   5.043  13.788  0.00  0.00    +0.000 A 
ATOM      2  C   UNL     1      47.865   5.774  13.673  0.00  0.00    +0.000 A 
ATOM      3  C   UNL     1      48.054   6.672  12.627  0.00  0.00    +0.000 A 
ATOM      4  C   UNL     1      47.012   6.814  11.730  0.00  0.00    +0.000 A 
ATOM      5  N   UNL     1      45.836   6.132  11.812  0.00  0.00    +0.000 NA
ATOM      6  C   UNL     1      45.665   5.248  12.826  0.00  0.00    +0.000 A 
ENDROOT
BRANCH   3   7
ATOM      7  C   UNL     1      49.350   7.391  12.563  0.00  0.00    +0.000 C 
ATOM      8  N   UNL     1      50.177   7.383  13.646  0.00  0.00    +0.000 N 
ATOM      9  O   UNL     1      49.686   7.998  11.552  0.00  0.00    +0.000 OA
ATOM     10  H   UNL     1      49.995   6.940  14.533  0.00  0.00    +0.000 HD
ATOM     11  H   UNL     1      51.040   7.905  13.549  0.00  0.00    +0.000 HD
ENDBRANCH   3   7
BRANCH   6  12
ATOM     12  N   UNL     1      44.457   4.587  12.788  0.00  0.00    +0.000 N 
ATOM     13  H   UNL     1      43.814   4.867  13.519  0.00  0.00    +0.000 HD
BRANCH  12  14
ATOM     14  C   UNL     1      44.176   3.453  11.930  0.00  0.00    +0.000 C 
BRANCH  14  15
ATOM     15  C   UNL     1      43.737   3.862  10.522  0.00  0.00    +0.000 C 
BRANCH  15  16
ATOM     16  C   UNL     1      44.737   3.380   9.488  0.00  0.00    +0.000 A 
ATOM     17  C   UNL     1      45.377   4.290   8.634  0.00  0.00    +0.000 A 
ATOM     18  C   UNL     1      46.288   3.843   7.671  0.00  0.00    +0.000 A 
ATOM     19  C   UNL     1      46.568   2.479   7.547  0.00  0.00    +0.000 A 
ATOM     20  C   UNL     1      45.914   1.564   8.375  0.00  0.00    +0.000 A 
ATOM     21  C   UNL     1      45.000   2.011   9.336  0.00  0.00    +0.000 A 
BRANCH  19  22
ATOM     22  C   UNL     1      47.526   2.023   6.578  0.00  0.00    +0.000 C 
ATOM     23  N   UNL     1      48.297   1.658   5.794  0.00  0.00    +0.000 NA
ENDBRANCH  19  22
ENDBRANCH  15  16
ENDBRANCH  14  15
ENDBRANCH  12  14
ENDBRANCH   6  12
BRANCH   1  24
ATOM     24  O   UNL     1      46.461   4.152  14.810  0.00  0.00    +0.000 OA
BRANCH  24  26
ATOM     25  C   UNL     1      47.891   3.054  16.380  0.00  0.00    +0.000 C 
ATOM     26  C   UNL     1      47.184   4.347  16.023  0.00  0.00    +0.000 C 
ENDBRANCH  24  26
ENDBRANCH   1  24
TORSDOF 8
ENDMDL
MODEL 2
REMARK VINA RESULT:    -7.123      1.757      3.078
REMARK INTER + INTRA:         -11.158
REMARK INTER:                 -10.511
REMARK INTRA:                  -0.647
REMARK UNBOUND:                -0.704
REMARK  Name = 
REMARK  9 active torsions:
REMARK  status: ('A' for Active; 'I' for Inactive)
REMARK    1  A    between atoms: C_1  and  C_2
REMARK    2  A    between atoms: C_2  and  O_3
REMARK    3  A    between atoms: O_3  and  C_4
REMARK    4  A    between atoms: C_6  and  C_7
REMARK    5  A    between atoms: C_12  and  N_13
REMARK    6  A    between atoms: N_13  and  C_14
REMARK    7  A    between atoms: C_14  and  C_15
REMARK    8  A    between atoms: C_15  and  C_16
REMARK    9  A    between atoms: C_19  and  C_20
REMARK                            x       y       z     vdW  Elec       q    Type
REMARK                         _______ _______ _______ _____ _____    ______ ____
ROOT
ATOM      1  C   UNL     1      47.230   6.311  13.239  0.00  0.00    +0.000 A 
ATOM      2  C   UNL     1      47.979   6.356  14.418  0.00  0.00    +0.000 A 
ATOM      3  C   UNL     1      47.811   5.394  15.410  0.00  0.00    +0.000 A 
ATOM      4  C   UNL     1      46.889   4.395  15.162  0.00  0.00    +0.000 A 
ATOM      5  N   UNL     1      46.148   4.308  14.022  0.00  0.00    +0.000 NA
ATOM      6  C   UNL     1      46.307   5.257  13.067  0.00  0.00    +0.000 A 
ENDROOT
BRANCH   3   7
ATOM      7  C   UNL     1      48.628   5.525  16.641  0.00  0.00    +0.000 C 
ATOM      8  N   UNL     1      48.093   6.126  17.742  0.00  0.00    +0.000 N 
ATOM      9  O   UNL     1      49.780   5.106  16.683  0.00  0.00    +0.000 OA
ATOM     10  H   UNL     1      47.171   6.527  17.814  0.00  0.00    +0.000 HD
ATOM     11  H   UNL     1      48.704   6.201  18.547  0.00  0.00    +0.000 HD
ENDBRANCH   3   7
BRANCH   6  12
ATOM     12  N   UNL     1      45.479   5.091  11.978  0.00  0.00    +0.000 N 
ATOM     13  H   UNL     1      45.408   5.913  11.389  0.00  0.00    +0.000 HD
BRANCH  12  14
ATOM     14  C   UNL     1      44.619   3.942  11.776  0.00  0.00    +0.000 C 
BRANCH  14  15
ATOM     15  C   UNL     1      43.958   3.924  10.396  0.00  0.00    +0.000 C 
BRANCH  15  16
ATOM     16  C   UNL     1      44.934   3.439   9.341  0.00  0.00    +0.000 A 
ATOM     17  C   UNL     1      45.535   4.344   8.454  0.00  0.00    +0.000 A 
ATOM     18  C   UNL     1      46.424   3.894   7.471  0.00  0.00    +0.000 A 
ATOM     19  C   UNL     1      46.720   2.532   7.360  0.00  0.00    +0.000 A 
ATOM     20  C   UNL     1      46.103   1.621   8.223  0.00  0.00    +0.000 A 
ATOM     21  C   UNL     1      45.213   2.071   9.203  0.00  0.00    +0.000 A 
BRANCH  19  22
ATOM     22  C   UNL     1      47.655   2.072   6.371  0.00  0.00    +0.000 C 
ATOM     23  N   UNL     1      48.406   1.703   5.570  0.00  0.00    +0.000 NA
ENDBRANCH  19  22
ENDBRANCH  15  16
ENDBRANCH  14  15
ENDBRANCH  12  14
ENDBRANCH   6  12
BRANCH   1  24
ATOM     24  O   UNL     1      47.375   7.243  12.241  0.00  0.00    +0.000 OA
BRANCH  24  26
ATOM     25  C   UNL     1      45.667   8.814  12.817  0.00  0.00    +0.000 C 
ATOM     26  C   UNL     1      47.150   8.611  12.575  0.00  0.00    +0.000 C 
ENDBRANCH  24  26
ENDBRANCH   1  24
TORSDOF 8
ENDMDL
MODEL 3
REMARK VINA RESULT:    -6.983      1.958      3.327
REMARK INTER + INTRA:         -10.953
REMARK INTER:                 -10.223
REMARK INTRA:                  -0.730
REMARK UNBOUND:                -0.704
REMARK  Name = 
REMARK  9 active torsions:
REMARK  status: ('A' for Active; 'I' for Inactive)
REMARK    1  A    between atoms: C_1  and  C_2
REMARK    2  A    between atoms: C_2  and  O_3
REMARK    3  A    between atoms: O_3  and  C_4
REMARK    4  A    between atoms: C_6  and  C_7
REMARK    5  A    between atoms: C_12  and  N_13
REMARK    6  A    between atoms: N_13  and  C_14
REMARK    7  A    between atoms: C_14  and  C_15
REMARK    8  A    between atoms: C_15  and  C_16
REMARK    9  A    between atoms: C_19  and  C_20
REMARK                            x       y       z     vdW  Elec       q    Type
REMARK                         _______ _______ _______ _____ _____    ______ ____
ROOT
ATOM      1  C   UNL     1      45.719   7.582  12.159  0.00  0.00    +0.000 A 
ATOM      2  C   UNL     1      47.035   7.725  12.608  0.00  0.00    +0.000 A 
ATOM      3  C   UNL     1      47.704   6.664  13.211  0.00  0.00    +0.000 A 
ATOM      4  C   UNL     1      47.013   5.472  13.324  0.00  0.00    +0.000 A 
ATOM      5  N   UNL     1      45.736   5.288  12.889  0.00  0.00    +0.000 NA
ATOM      6  C   UNL     1      45.085   6.331  12.315  0.00  0.00    +0.000 A 
ENDROOT
BRANCH   3   7
ATOM      7  C   UNL     1      49.091   6.902  13.681  0.00  0.00    +0.000 C 
ATOM      8  N   UNL     1      50.016   7.408  12.816  0.00  0.00    +0.000 N 
ATOM      9  O   UNL     1      49.420   6.646  14.833  0.00  0.00    +0.000 OA
ATOM     10  H   UNL     1      49.865   7.633  11.845  0.00  0.00    +0.000 HD
ATOM     11  H   UNL     1      50.949   7.535  13.189  0.00  0.00    +0.000 HD
ENDBRANCH   3   7
BRANCH   6  12
ATOM     12  N   UNL     1      43.788   6.042  11.951  0.00  0.00    +0.000 N 
ATOM     13  H   UNL     1      43.121   6.128  12.709  0.00  0.00    +0.000 HD
BRANCH  12  14
ATOM     14  C   UNL     1      43.409   5.470  10.674  0.00  0.00    +0.000 C 
BRANCH  14  15
ATOM     15  C   UNL     1      43.473   3.940  10.662  0.00  0.00    +0.000 C 
BRANCH  15  16
ATOM     16  C   UNL     1      44.480   3.456   9.636  0.00  0.00    +0.000 A 
ATOM     17  C   UNL     1      44.743   2.087   9.484  0.00  0.00    +0.000 A 
ATOM     18  C   UNL     1      45.683   1.642   8.548  0.00  0.00    +0.000 A 
ATOM     19  C   UNL     1      46.376   2.561   7.755  0.00  0.00    +0.000 A 
ATOM     20  C   UNL     1      46.141   3.929   7.920  0.00  0.00    +0.000 A 
ATOM     21  C   UNL     1      45.203   4.373   8.858  0.00  0.00    +0.000 A 
BRANCH  19  22
ATOM     22  C   UNL     1      47.320   2.103   6.773  0.00  0.00    +0.000 C 
ATOM     23  N   UNL     1      48.079   1.734   5.979  0.00  0.00    +0.000 NA
ENDBRANCH  19  22
ENDBRANCH  15  16
ENDBRANCH  14  15
ENDBRANCH  12  14
ENDBRANCH   6  12
BRANCH   1  24
ATOM     24  O   UNL     1      45.033   8.609  11.558  0.00  0.00    +0.000 OA
BRANCH  24  26
ATOM     25  C   UNL     1      44.805  10.950  11.127  0.00  0.00    +0.000 C 
ATOM     26  C   UNL     1      45.085   9.893  12.177  0.00  0.00    +0.000 C 
ENDBRANCH  24  26
ENDBRANCH   1  24
TORSDOF 8
ENDMDL
MODEL 4
REMARK VINA RESULT:    -6.805      3.059      6.980
REMARK INTER + INTRA:         -10.692
REMARK INTER:                 -10.016
REMARK INTRA:                  -0.676
REMARK UNBOUND:                -0.704
REMARK  Name = 
REMARK  9 active torsions:
REMARK  status: ('A' for Active; 'I' for Inactive)
REMARK    1  A    between atoms: C_1  and  C_2
REMARK    2  A    between atoms: C_2  and  O_3
REMARK    3  A    between atoms: O_3  and  C_4
REMARK    4  A    between atoms: C_6  and  C_7
REMARK    5  A    between atoms: C_12  and  N_13
REMARK    6  A    between atoms: N_13  and  C_14
REMARK    7  A    between atoms: C_14  and  C_15
REMARK    8  A    between atoms: C_15  and  C_16
REMARK    9  A    between atoms: C_19  and  C_20
REMARK                            x       y       z     vdW  Elec       q    Type
REMARK                         _______ _______ _______ _____ _____    ______ ____
ROOT
ATOM      1  C   UNL     1      44.636   2.870   9.635  0.00  0.00    +0.000 A 
ATOM      2  C   UNL     1      45.390   1.882   8.994  0.00  0.00    +0.000 A 
ATOM      3  C   UNL     1      46.278   2.209   7.973  0.00  0.00    +0.000 A 
ATOM      4  C   UNL     1      46.385   3.548   7.644  0.00  0.00    +0.000 A 
ATOM      5  N   UNL     1      45.679   4.541   8.251  0.00  0.00    +0.000 NA
ATOM      6  C   UNL     1      44.806   4.213   9.235  0.00  0.00    +0.000 A 
ENDROOT
BRANCH   3   7
ATOM      7  C   UNL     1      47.024   1.101   7.328  0.00  0.00    +0.000 C 
ATOM      8  N   UNL     1      46.743  -0.188   7.672  0.00  0.00    +0.000 N 
ATOM      9  O   UNL     1      47.894   1.327   6.495  0.00  0.00    +0.000 OA
ATOM     10  H   UNL     1      46.069  -0.489   8.359  0.00  0.00    +0.000 HD
ATOM     11  H   UNL     1      47.296  -0.900   7.211  0.00  0.00    +0.000 HD
ENDBRANCH   3   7
BRANCH   6  12
ATOM     12  N   UNL     1      44.118   5.291   9.749  0.00  0.00    +0.000 N 
ATOM     13  H   UNL     1      43.220   5.451   9.307  0.00  0.00    +0.000 HD
BRANCH  12  14
ATOM     14  C   UNL     1      44.681   6.246  10.682  0.00  0.00    +0.000 C 
BRANCH  14  15
ATOM     15  C   UNL     1      46.004   5.777  11.293  0.00  0.00    +0.000 C 
BRANCH  15  16
ATOM     16  C   UNL     1      46.731   6.936  11.949  0.00  0.00    +0.000 A 
ATOM     17  C   UNL     1      46.088   7.732  12.907  0.00  0.00    +0.000 A 
ATOM     18  C   UNL     1      46.755   8.810  13.500  0.00  0.00    +0.000 A 
ATOM     19  C   UNL     1      48.072   9.109  13.138  0.00  0.00    +0.000 A 
ATOM     20  C   UNL     1      48.710   8.337  12.163  0.00  0.00    +0.000 A 
ATOM     21  C   UNL     1      48.042   7.261  11.569  0.00  0.00    +0.000 A 
BRANCH  19  22
ATOM     22  C   UNL     1      48.766  10.197  13.768  0.00  0.00    +0.000 C 
ATOM     23  N   UNL     1      49.328  11.073  14.279  0.00  0.00    +0.000 NA
ENDBRANCH  19  22
ENDBRANCH  15  16
ENDBRANCH  14  15
ENDBRANCH  12  14
ENDBRANCH   6  12
BRANCH   1  24
ATOM     24  O   UNL     1      43.755   2.579  10.647  0.00  0.00    +0.000 OA
BRANCH  24  26
ATOM     25  C   UNL     1      43.402   3.581  12.789  0.00  0.00    +0.000 C 
ATOM     26  C   UNL     1      44.248   2.613  11.985  0.00  0.00    +0.000 C 
ENDBRANCH  24  26
ENDBRANCH   1  24
TORSDOF 8
ENDMDL
MODEL 5
REMARK VINA RESULT:    -6.177      3.315      7.834
REMARK INTER + INTRA:          -9.769
REMARK INTER:                  -9.238
REMARK INTRA:                  -0.531
REMARK UNBOUND:                -0.704
REMARK  Name = 
REMARK  9 active torsions:
REMARK  status: ('A' for Active; 'I' for Inactive)
REMARK    1  A    between atoms: C_1  and  C_2
REMARK    2  A    between atoms: C_2  and  O_3
REMARK    3  A    between atoms: O_3  and  C_4
REMARK    4  A    between atoms: C_6  and  C_7
REMARK    5  A    between atoms: C_12  and  N_13
REMARK    6  A    between atoms: N_13  and  C_14
REMARK    7  A    between atoms: C_14  and  C_15
REMARK    8  A    between atoms: C_15  and  C_16
REMARK    9  A    between atoms: C_19  and  C_20
REMARK                            x       y       z     vdW  Elec       q    Type
REMARK                         _______ _______ _______ _____ _____    ______ ____
ROOT
ATOM      1  C   UNL     1      46.142   5.854  12.680  0.00  0.00    +0.000 A 
ATOM      2  C   UNL     1      45.415   5.447  11.558  0.00  0.00    +0.000 A 
ATOM      3  C   UNL     1      44.980   4.131  11.427  0.00  0.00    +0.000 A 
ATOM      4  C   UNL     1      45.285   3.266  12.461  0.00  0.00    +0.000 A 
ATOM      5  N   UNL     1      45.980   3.626  13.575  0.00  0.00    +0.000 NA
ATOM      6  C   UNL     1      46.414   4.906  13.689  0.00  0.00    +0.000 A 
ENDROOT
BRANCH   3   7
ATOM      7  C   UNL     1      44.233   3.772  10.196  0.00  0.00    +0.000 C 
ATOM      8  N   UNL     1      43.761   4.761   9.384  0.00  0.00    +0.000 N 
ATOM      9  O   UNL     1      44.028   2.601   9.901  0.00  0.00    +0.000 OA
ATOM     10  H   UNL     1      43.849   5.754   9.539  0.00  0.00    +0.000 HD
ATOM     11  H   UNL     1      43.246   4.455   8.567  0.00  0.00    +0.000 HD
ENDBRANCH   3   7
BRANCH   6  12
ATOM     12  N   UNL     1      47.139   5.146  14.836  0.00  0.00    +0.000 N 
ATOM     13  H   UNL     1      47.740   5.959  14.777  0.00  0.00    +0.000 HD
BRANCH  12  14
ATOM     14  C   UNL     1      47.215   4.231  15.957  0.00  0.00    +0.000 C 
BRANCH  14  15
ATOM     15  C   UNL     1      48.067   4.767  17.111  0.00  0.00    +0.000 C 
BRANCH  15  16
ATOM     16  C   UNL     1      49.325   3.937  17.278  0.00  0.00    +0.000 A 
ATOM     17  C   UNL     1      49.306   2.555  17.042  0.00  0.00    +0.000 A 
ATOM     18  C   UNL     1      50.464   1.787  17.211  0.00  0.00    +0.000 A 
ATOM     19  C   UNL     1      51.655   2.392  17.623  0.00  0.00    +0.000 A 
ATOM     20  C   UNL     1      51.675   3.765  17.886  0.00  0.00    +0.000 A 
ATOM     21  C   UNL     1      50.516   4.530  17.720  0.00  0.00    +0.000 A 
BRANCH  19  22
ATOM     22  C   UNL     1      52.851   1.610  17.768  0.00  0.00    +0.000 C 
ATOM     23  N   UNL     1      53.814   0.976  17.884  0.00  0.00    +0.000 NA
ENDBRANCH  19  22
ENDBRANCH  15  16
ENDBRANCH  14  15
ENDBRANCH  12  14
ENDBRANCH   6  12
BRANCH   1  24
ATOM     24  O   UNL     1      46.583   7.145  12.839  0.00  0.00    +0.000 OA
BRANCH  24  26
ATOM     25  C   UNL     1      46.222   9.411  12.166  0.00  0.00    +0.000 C 
ATOM     26  C   UNL     1      45.608   8.186  12.814  0.00  0.00    +0.000 C 
ENDBRANCH  24  26
ENDBRANCH   1  24
TORSDOF 8
ENDMDL
MODEL 6
REMARK VINA RESULT:    -6.156      2.534      4.027
REMARK INTER + INTRA:          -9.739
REMARK INTER:                  -9.137
REMARK INTRA:                  -0.603
REMARK UNBOUND:                -0.704
REMARK  Name = 
REMARK  9 active torsions:
REMARK  status: ('A' for Active; 'I' for Inactive)
REMARK    1  A    between atoms: C_1  and  C_2
REMARK    2  A    between atoms: C_2  and  O_3
REMARK    3  A    between atoms: O_3  and  C_4
REMARK    4  A    between atoms: C_6  and  C_7
REMARK    5  A    between atoms: C_12  and  N_13
REMARK    6  A    between atoms: N_13  and  C_14
REMARK    7  A    between atoms: C_14  and  C_15
REMARK    8  A    between atoms: C_15  and  C_16
REMARK    9  A    between atoms: C_19  and  C_20
REMARK                            x       y       z     vdW  Elec       q    Type
REMARK                         _______ _______ _______ _____ _____    ______ ____
ROOT
ATOM      1  C   UNL     1      48.031   5.806  15.245  0.00  0.00    +0.000 A 
ATOM      2  C   UNL     1      48.578   5.562  16.508  0.00  0.00    +0.000 A 
ATOM      3  C   UNL     1      48.353   4.355  17.163  0.00  0.00    +0.000 A 
ATOM      4  C   UNL     1      47.586   3.416  16.499  0.00  0.00    +0.000 A 
ATOM      5  N   UNL     1      47.046   3.610  15.263  0.00  0.00    +0.000 NA
ATOM      6  C   UNL     1      47.257   4.794  14.638  0.00  0.00    +0.000 A 
ENDROOT
BRANCH   3   7
ATOM      7  C   UNL     1      48.949   4.181  18.510  0.00  0.00    +0.000 C 
ATOM      8  N   UNL     1      48.394   3.291  19.382  0.00  0.00    +0.000 N 
ATOM      9  O   UNL     1      49.930   4.830  18.855  0.00  0.00    +0.000 OA
ATOM     10  H   UNL     1      47.577   2.724  19.215  0.00  0.00    +0.000 HD
ATOM     11  H   UNL     1      48.835   3.228  20.291  0.00  0.00    +0.000 HD
ENDBRANCH   3   7
BRANCH   6  12
ATOM     12  N   UNL     1      46.631   4.894  13.414  0.00  0.00    +0.000 N 
ATOM     13  H   UNL     1      47.222   4.641  12.631  0.00  0.00    +0.000 HD
BRANCH  12  14
ATOM     14  C   UNL     1      45.328   5.494  13.213  0.00  0.00    +0.000 C 
BRANCH  14  15
ATOM     15  C   UNL     1      44.337   4.556  12.518  0.00  0.00    +0.000 C 
BRANCH  15  16
ATOM     16  C   UNL     1      44.796   4.243  11.107  0.00  0.00    +0.000 A 
ATOM     17  C   UNL     1      45.329   5.250  10.289  0.00  0.00    +0.000 A 
ATOM     18  C   UNL     1      45.739   4.964   8.982  0.00  0.00    +0.000 A 
ATOM     19  C   UNL     1      45.616   3.668   8.474  0.00  0.00    +0.000 A 
ATOM     20  C   UNL     1      45.059   2.665   9.273  0.00  0.00    +0.000 A 
ATOM     21  C   UNL     1      44.648   2.952  10.578  0.00  0.00    +0.000 A 
BRANCH  19  22
ATOM     22  C   UNL     1      46.063   3.367   7.142  0.00  0.00    +0.000 C 
ATOM     23  N   UNL     1      46.426   3.127   6.069  0.00  0.00    +0.000 NA
ENDBRANCH  19  22
ENDBRANCH  15  16
ENDBRANCH  14  15
ENDBRANCH  12  14
ENDBRANCH   6  12
BRANCH   1  24
ATOM     24  O   UNL     1      48.238   6.985  14.571  0.00  0.00    +0.000 OA
BRANCH  24  26
ATOM     25  C   UNL     1      49.623   7.487  12.688  0.00  0.00    +0.000 C 
ATOM     26  C   UNL     1      49.575   7.306  14.193  0.00  0.00    +0.000 C 
ENDBRANCH  24  26
ENDBRANCH   1  24
TORSDOF 8
ENDMDL
MODEL 7
REMARK VINA RESULT:    -5.183      2.767      4.745
REMARK INTER + INTRA:          -8.310
REMARK INTER:                  -7.693
REMARK INTRA:                  -0.617
REMARK UNBOUND:                -0.704
REMARK  Name = 
REMARK  9 active torsions:
REMARK  status: ('A' for Active; 'I' for Inactive)
REMARK    1  A    between atoms: C_1  and  C_2
REMARK    2  A    between atoms: C_2  and  O_3
REMARK    3  A    between atoms: O_3  and  C_4
REMARK    4  A    between atoms: C_6  and  C_7
REMARK    5  A    between atoms: C_12  and  N_13
REMARK    6  A    between atoms: N_13  and  C_14
REMARK    7  A    between atoms: C_14  and  C_15
REMARK    8  A    between atoms: C_15  and  C_16
REMARK    9  A    between atoms: C_19  and  C_20
REMARK                            x       y       z     vdW  Elec       q    Type
REMARK                         _______ _______ _______ _____ _____    ______ ____
ROOT
ATOM      1  C   UNL     1      48.685   6.696  15.330  0.00  0.00    +0.000 A 
ATOM      2  C   UNL     1      48.838   6.092  16.582  0.00  0.00    +0.000 A 
ATOM      3  C   UNL     1      48.263   4.853  16.853  0.00  0.00    +0.000 A 
ATOM      4  C   UNL     1      47.559   4.253  15.826  0.00  0.00    +0.000 A 
ATOM      5  N   UNL     1      47.398   4.801  14.589  0.00  0.00    +0.000 NA
ATOM      6  C   UNL     1      47.949   6.014  14.338  0.00  0.00    +0.000 A 
ENDROOT
BRANCH   3   7
ATOM      7  C   UNL     1      48.452   4.290  18.212  0.00  0.00    +0.000 C 
ATOM      8  N   UNL     1      47.670   3.251  18.623  0.00  0.00    +0.000 N 
ATOM      9  O   UNL     1      49.296   4.748  18.974  0.00  0.00    +0.000 OA
ATOM     10  H   UNL     1      46.932   2.813  18.093  0.00  0.00    +0.000 HD
ATOM     11  H   UNL     1      47.834   2.919  19.566  0.00  0.00    +0.000 HD
ENDBRANCH   3   7
BRANCH   6  12
ATOM     12  N   UNL     1      47.688   6.489  13.070  0.00  0.00    +0.000 N 
ATOM     13  H   UNL     1      48.332   6.148  12.366  0.00  0.00    +0.000 HD
BRANCH  12  14
ATOM     14  C   UNL     1      46.727   7.532  12.773  0.00  0.00    +0.000 C 
BRANCH  14  15
ATOM     15  C   UNL     1      45.280   7.033  12.780  0.00  0.00    +0.000 C 
BRANCH  15  16
ATOM     16  C   UNL     1      45.136   5.799  11.910  0.00  0.00    +0.000 A 
ATOM     17  C   UNL     1      44.760   4.570  12.470  0.00  0.00    +0.000 A 
ATOM     18  C   UNL     1      44.641   3.429  11.669  0.00  0.00    +0.000 A 
ATOM     19  C   UNL     1      44.902   3.502  10.297  0.00  0.00    +0.000 A 
ATOM     20  C   UNL     1      45.304   4.717   9.736  0.00  0.00    +0.000 A 
ATOM     21  C   UNL     1      45.425   5.857  10.538  0.00  0.00    +0.000 A 
BRANCH  19  22
ATOM     22  C   UNL     1      44.752   2.337   9.469  0.00  0.00    +0.000 C 
ATOM     23  N   UNL     1      44.628   1.397   8.803  0.00  0.00    +0.000 NA
ENDBRANCH  19  22
ENDBRANCH  15  16
ENDBRANCH  14  15
ENDBRANCH  12  14
ENDBRANCH   6  12
BRANCH   1  24
ATOM     24  O   UNL     1      49.242   7.915  15.031  0.00  0.00    +0.000 OA
BRANCH  24  26
ATOM     25  C   UNL     1      51.355   9.032  15.116  0.00  0.00    +0.000 C 
ATOM     26  C   UNL     1      50.550   7.924  14.463  0.00  0.00    +0.000 C 
ENDBRANCH  24  26
ENDBRANCH   1  24
TORSDOF 8
ENDMDL
MODEL 8
REMARK VINA RESULT:    -5.089      4.515      6.309
REMARK INTER + INTRA:          -8.173
REMARK INTER:                  -6.902
REMARK INTRA:                  -1.271
REMARK UNBOUND:                -0.704
REMARK  Name = 
REMARK  9 active torsions:
REMARK  status: ('A' for Active; 'I' for Inactive)
REMARK    1  A    between atoms: C_1  and  C_2
REMARK    2  A    between atoms: C_2  and  O_3
REMARK    3  A    between atoms: O_3  and  C_4
REMARK    4  A    between atoms: C_6  and  C_7
REMARK    5  A    between atoms: C_12  and  N_13
REMARK    6  A    between atoms: N_13  and  C_14
REMARK    7  A    between atoms: C_14  and  C_15
REMARK    8  A    between atoms: C_15  and  C_16
REMARK    9  A    between atoms: C_19  and  C_20
REMARK                            x       y       z     vdW  Elec       q    Type
REMARK                         _______ _______ _______ _____ _____    ______ ____
ROOT
ATOM      1  C   UNL     1      48.753   5.461  16.613  0.00  0.00    +0.000 A 
ATOM      2  C   UNL     1      49.933   5.249  17.331  0.00  0.00    +0.000 A 
ATOM      3  C   UNL     1      50.344   3.962  17.667  0.00  0.00    +0.000 A 
ATOM      4  C   UNL     1      49.543   2.919  17.242  0.00  0.00    +0.000 A 
ATOM      5  N   UNL     1      48.393   3.082  16.530  0.00  0.00    +0.000 NA
ATOM      6  C   UNL     1      47.992   4.339  16.220  0.00  0.00    +0.000 A 
ENDROOT
BRANCH   3   7
ATOM      7  C   UNL     1      51.597   3.822  18.450  0.00  0.00    +0.000 C 
ATOM      8  N   UNL     1      52.268   2.635  18.437  0.00  0.00    +0.000 N 
ATOM      9  O   UNL     1      52.035   4.755  19.113  0.00  0.00    +0.000 OA
ATOM     10  H   UNL     1      51.990   1.797  17.950  0.00  0.00    +0.000 HD
ATOM     11  H   UNL     1      53.107   2.594  19.003  0.00  0.00    +0.000 HD
ENDBRANCH   3   7
BRANCH   6  12
ATOM     12  N   UNL     1      46.797   4.386  15.535  0.00  0.00    +0.000 N 
ATOM     13  H   UNL     1      45.981   4.355  16.134  0.00  0.00    +0.000 HD
BRANCH  12  14
ATOM     14  C   UNL     1      46.680   4.281  14.094  0.00  0.00    +0.000 C 
BRANCH  14  15
ATOM     15  C   UNL     1      45.738   5.327  13.492  0.00  0.00    +0.000 C 
BRANCH  15  16
ATOM     16  C   UNL     1      46.521   6.525  12.988  0.00  0.00    +0.000 A 
ATOM     17  C   UNL     1      45.903   7.776  12.852  0.00  0.00    +0.000 A 
ATOM     18  C   UNL     1      46.622   8.877  12.373  0.00  0.00    +0.000 A 
ATOM     19  C   UNL     1      47.968   8.739  12.020  0.00  0.00    +0.000 A 
ATOM     20  C   UNL     1      48.583   7.489  12.127  0.00  0.00    +0.000 A 
ATOM     21  C   UNL     1      47.862   6.388  12.603  0.00  0.00    +0.000 A 
BRANCH  19  22
ATOM     22  C   UNL     1      48.714   9.876  11.556  0.00  0.00    +0.000 C 
ATOM     23  N   UNL     1      49.317  10.793  11.186  0.00  0.00    +0.000 NA
ENDBRANCH  19  22
ENDBRANCH  15  16
ENDBRANCH  14  15
ENDBRANCH  12  14
ENDBRANCH   6  12
BRANCH   1  24
ATOM     24  O   UNL     1      48.323   6.718  16.264  0.00  0.00    +0.000 OA
BRANCH  24  26
ATOM     25  C   UNL     1      48.643   9.006  15.650  0.00  0.00    +0.000 C 
ATOM     26  C   UNL     1      49.299   7.647  15.799  0.00  0.00    +0.000 C 
ENDBRANCH  24  26
ENDBRANCH   1  24
TORSDOF 8
ENDMDL
MODEL 9
REMARK VINA RESULT:    -5.024      3.546      5.989
REMARK INTER + INTRA:          -8.077
REMARK INTER:                  -7.388
REMARK INTRA:                  -0.689
REMARK UNBOUND:                -0.704
REMARK  Name = 
REMARK  9 active torsions:
REMARK  status: ('A' for Active; 'I' for Inactive)
REMARK    1  A    between atoms: C_1  and  C_2
REMARK    2  A    between atoms: C_2  and  O_3
REMARK    3  A    between atoms: O_3  and  C_4
REMARK    4  A    between atoms: C_6  and  C_7
REMARK    5  A    between atoms: C_12  and  N_13
REMARK    6  A    between atoms: N_13  and  C_14
REMARK    7  A    between atoms: C_14  and  C_15
REMARK    8  A    between atoms: C_15  and  C_16
REMARK    9  A    between atoms: C_19  and  C_20
REMARK                            x       y       z     vdW  Elec       q    Type
REMARK                         _______ _______ _______ _____ _____    ______ ____
ROOT
ATOM      1  C   UNL     1      48.937   7.832  16.875  0.00  0.00    +0.000 A 
ATOM      2  C   UNL     1      48.692   7.175  18.084  0.00  0.00    +0.000 A 
ATOM      3  C   UNL     1      48.509   5.795  18.124  0.00  0.00    +0.000 A 
ATOM      4  C   UNL     1      48.600   5.118  16.923  0.00  0.00    +0.000 A 
ATOM      5  N   UNL     1      48.850   5.718  15.726  0.00  0.00    +0.000 NA
ATOM      6  C   UNL     1      49.012   7.064  15.694  0.00  0.00    +0.000 A 
ENDROOT
BRANCH   3   7
ATOM      7  C   UNL     1      48.230   5.176  19.443  0.00  0.00    +0.000 C 
ATOM      8  N   UNL     1      47.095   5.514  20.119  0.00  0.00    +0.000 N 
ATOM      9  O   UNL     1      49.008   4.368  19.938  0.00  0.00    +0.000 OA
ATOM     10  H   UNL     1      46.400   6.181  19.820  0.00  0.00    +0.000 HD
ATOM     11  H   UNL     1      46.967   5.071  21.020  0.00  0.00    +0.000 HD
ENDBRANCH   3   7
BRANCH   6  12
ATOM     12  N   UNL     1      49.219   7.567  14.427  0.00  0.00    +0.000 N 
ATOM     13  H   UNL     1      49.440   8.555  14.410  0.00  0.00    +0.000 HD
BRANCH  12  14
ATOM     14  C   UNL     1      48.953   6.832  13.206  0.00  0.00    +0.000 C 
BRANCH  14  15
ATOM     15  C   UNL     1      47.740   7.364  12.440  0.00  0.00    +0.000 C 
BRANCH  15  16
ATOM     16  C   UNL     1      46.712   6.267  12.237  0.00  0.00    +0.000 A 
ATOM     17  C   UNL     1      45.984   6.182  11.042  0.00  0.00    +0.000 A 
ATOM     18  C   UNL     1      45.026   5.178  10.862  0.00  0.00    +0.000 A 
ATOM     19  C   UNL     1      44.780   4.249  11.877  0.00  0.00    +0.000 A 
ATOM     20  C   UNL     1      45.483   4.343  13.081  0.00  0.00    +0.000 A 
ATOM     21  C   UNL     1      46.438   5.349  13.262  0.00  0.00    +0.000 A 
BRANCH  19  22
ATOM     22  C   UNL     1      43.818   3.200  11.681  0.00  0.00    +0.000 C 
ATOM     23  N   UNL     1      43.039   2.357  11.524  0.00  0.00    +0.000 NA
ENDBRANCH  19  22
ENDBRANCH  15  16
ENDBRANCH  14  15
ENDBRANCH  12  14
ENDBRANCH   6  12
BRANCH   1  24
ATOM     24  O   UNL     1      49.125   9.191  16.804  0.00  0.00    +0.000 OA
BRANCH  24  26
ATOM     25  C   UNL     1      49.111  11.053  18.303  0.00  0.00    +0.000 C 
ATOM     26  C   UNL     1      49.861   9.814  17.855  0.00  0.00    +0.000 C 
ENDBRANCH  24  26
ENDBRANCH   1  24
TORSDOF 8
ENDMDL
