MODEL 1
REMARK VINA RESULT:    -7.180      0.000      0.000
REMARK INTER + INTRA:          -9.304
REMARK INTER:                  -9.069
REMARK INTRA:                  -0.235
REMARK UNBOUND:                -0.235
REMARK  Name = 
REMARK  7 active torsions:
REMARK  status: ('A' for Active; 'I' for Inactive)
REMARK    1  A    between atoms: C_1  and  C_2
REMARK    2  A    between atoms: C_2  and  C_3
REMARK    3  A    between atoms: C_2  and  N_4
REMARK    4  A    between atoms: C_2  and  C_5
REMARK    5  A    between atoms: C_5  and  C_6
REMARK    6  A    between atoms: C_9  and  C_10
REMARK    7  A    between atoms: C_10  and  N_11
REMARK                            x       y       z     vdW  Elec       q    Type
REMARK                         _______ _______ _______ _____ _____    ______ ____
ROOT
ATOM      1  C   UNL     1      45.129   3.419   8.477  0.00  0.00    +0.000 A 
ATOM      2  C   UNL     1      45.429   4.717   8.882  0.00  0.00    +0.000 A 
ATOM      3  C   UNL     1      45.253   5.088  10.216  0.00  0.00    +0.000 A 
ATOM      4  C   UNL     1      44.755   4.147  11.116  0.00  0.00    +0.000 A 
ATOM      5  N   UNL     1      44.441   2.883  10.741  0.00  0.00    +0.000 NA
ATOM      6  C   UNL     1      44.635   2.549   9.443  0.00  0.00    +0.000 A 
ENDROOT
BRANCH   1   7
ATOM      7  C   UNL     1      45.335   2.964   7.053  0.00  0.00    +0.000 C 
BRANCH   7   9
ATOM      8  C   UNL     1      46.873   2.569   5.103  0.00  0.00    +0.000 C 
ATOM      9  C   UNL     1      46.803   2.648   6.638  0.00  0.00    +0.000 C 
ATOM     10  C   UNL     1      47.292   1.315   7.226  0.00  0.00    +0.000 C 
BRANCH   9  11
ATOM     11  N   UNL     1      47.715   3.722   7.062  0.00  0.00    +0.000 NA
ATOM     12  H   UNL     1      48.670   3.492   6.785  0.00  0.00    +0.000 HD
ATOM     13  H   UNL     1      47.736   3.766   8.082  0.00  0.00    +0.000 HD
ENDBRANCH   9  11
ENDBRANCH   7   9
ENDBRANCH   1   7
BRANCH   4  14
ATOM     14  C   UNL     1      44.571   4.489  12.573  0.00  0.00    +0.000 C 
BRANCH  14  15
ATOM     15  N   UNL     1      45.807   4.969  13.161  0.00  0.00    +0.000 N 
ATOM     16  C   UNL     1      46.762   4.173  13.738  0.00  0.00    +0.000 A 
ATOM     17  N   UNL     1      47.795   4.871  14.151  0.00  0.00    +0.000 NA
ATOM     18  C   UNL     1      47.491   6.175  13.846  0.00  0.00    +0.000 A 
ATOM     19  C   UNL     1      48.252   7.335  14.051  0.00  0.00    +0.000 A 
ATOM     20  C   UNL     1      47.718   8.569  13.660  0.00  0.00    +0.000 A 
ATOM     21  C   UNL     1      46.444   8.648  13.094  0.00  0.00    +0.000 A 
ATOM     22  C   UNL     1      45.671   7.501  12.879  0.00  0.00    +0.000 A 
ATOM     23  C   UNL     1      46.232   6.273  13.255  0.00  0.00    +0.000 A 
ENDBRANCH  14  15
ENDBRANCH   4  14
TORSDOF 5
ENDMDL
MODEL 2
REMARK VINA RESULT:    -6.915      2.002      6.524
REMARK INTER + INTRA:          -8.969
REMARK INTER:                  -8.582
REMARK INTRA:                  -0.387
REMARK UNBOUND:                -0.235
REMARK  Name = 
REMARK  7 active torsions:
REMARK  status: ('A' for Active; 'I' for Inactive)
REMARK    1  A    between atoms: C_1  and  C_2
REMARK    2  A    between atoms: C_2  and  C_3
REMARK    3  A    between atoms: C_2  and  N_4
REMARK    4  A    between atoms: C_2  and  C_5
REMARK    5  A    between atoms: C_5  and  C_6
REMARK    6  A    between atoms: C_9  and  C_10
REMARK    7  A    between atoms: C_10  and  N_11
REMARK                            x       y       z     vdW  Elec       q    Type
REMARK                         _______ _______ _______ _____ _____    ______ ____
ROOT
ATOM      1  C   UNL     1      46.630   7.735  12.997  0.00  0.00    +0.000 A 
ATOM      2  C   UNL     1      46.406   6.387  13.268  0.00  0.00    +0.000 A 
ATOM      3  C   UNL     1      45.346   5.720  12.652  0.00  0.00    +0.000 A 
ATOM      4  C   UNL     1      44.515   6.432  11.788  0.00  0.00    +0.000 A 
ATOM      5  N   UNL     1      44.704   7.747  11.522  0.00  0.00    +0.000 NA
ATOM      6  C   UNL     1      45.749   8.363  12.125  0.00  0.00    +0.000 A 
ENDROOT
BRANCH   1   7
ATOM      7  C   UNL     1      47.784   8.487  13.614  0.00  0.00    +0.000 C 
BRANCH   7   9
ATOM      8  C   UNL     1      50.143   9.309  13.332  0.00  0.00    +0.000 C 
ATOM      9  C   UNL     1      49.204   8.113  13.095  0.00  0.00    +0.000 C 
ATOM     10  C   UNL     1      49.198   7.777  11.595  0.00  0.00    +0.000 C 
BRANCH   9  11
ATOM     11  N   UNL     1      49.755   6.970  13.839  0.00  0.00    +0.000 NA
ATOM     12  H   UNL     1      48.995   6.423  14.243  0.00  0.00    +0.000 HD
ATOM     13  H   UNL     1      50.291   7.314  14.638  0.00  0.00    +0.000 HD
ENDBRANCH   9  11
ENDBRANCH   7   9
ENDBRANCH   1   7
BRANCH   4  14
ATOM     14  C   UNL     1      43.371   5.753  11.077  0.00  0.00    +0.000 C 
BRANCH  14  15
ATOM     15  N   UNL     1      43.705   4.384  10.731  0.00  0.00    +0.000 N 
ATOM     16  C   UNL     1      43.217   3.272  11.367  0.00  0.00    +0.000 A 
ATOM     17  N   UNL     1      43.656   2.164  10.817  0.00  0.00    +0.000 NA
ATOM     18  C   UNL     1      44.478   2.572   9.795  0.00  0.00    +0.000 A 
ATOM     19  C   UNL     1      45.195   1.799   8.870  0.00  0.00    +0.000 A 
ATOM     20  C   UNL     1      45.982   2.452   7.914  0.00  0.00    +0.000 A 
ATOM     21  C   UNL     1      46.069   3.845   7.891  0.00  0.00    +0.000 A 
ATOM     22  C   UNL     1      45.358   4.633   8.804  0.00  0.00    +0.000 A 
ATOM     23  C   UNL     1      44.557   3.962   9.737  0.00  0.00    +0.000 A 
ENDBRANCH  14  15
ENDBRANCH   4  14
TORSDOF 5
ENDMDL
MODEL 3
REMARK VINA RESULT:    -6.528      1.603      6.725
REMARK INTER + INTRA:          -8.480
REMARK INTER:                  -8.104
REMARK INTRA:                  -0.377
REMARK UNBOUND:                -0.235
REMARK  Name = 
REMARK  7 active torsions:
REMARK  status: ('A' for Active; 'I' for Inactive)
REMARK    1  A    between atoms: C_1  and  C_2
REMARK    2  A    between atoms: C_2  and  C_3
REMARK    3  A    between atoms: C_2  and  N_4
REMARK    4  A    between atoms: C_2  and  C_5
REMARK    5  A    between atoms: C_5  and  C_6
REMARK    6  A    between atoms: C_9  and  C_10
REMARK    7  A    between atoms: C_10  and  N_11
REMARK                            x       y       z     vdW  Elec       q    Type
REMARK                         _______ _______ _______ _____ _____    ______ ____
ROOT
ATOM      1  C   UNL     1      46.422   6.180  12.762  0.00  0.00    +0.000 A 
ATOM      2  C   UNL     1      46.061   4.841  12.886  0.00  0.00    +0.000 A 
ATOM      3  C   UNL     1      45.318   4.224  11.878  0.00  0.00    +0.000 A 
ATOM      4  C   UNL     1      44.933   4.977  10.770  0.00  0.00    +0.000 A 
ATOM      5  N   UNL     1      45.259   6.286  10.635  0.00  0.00    +0.000 NA
ATOM      6  C   UNL     1      45.992   6.852  11.623  0.00  0.00    +0.000 A 
ENDROOT
BRANCH   1   7
ATOM      7  C   UNL     1      47.253   6.878  13.810  0.00  0.00    +0.000 C 
BRANCH   7   9
ATOM      8  C   UNL     1      49.569   7.402  14.639  0.00  0.00    +0.000 C 
ATOM      9  C   UNL     1      48.690   7.299  13.380  0.00  0.00    +0.000 C 
ATOM     10  C   UNL     1      48.700   8.656  12.657  0.00  0.00    +0.000 C 
BRANCH   9  11
ATOM     11  N   UNL     1      49.299   6.285  12.505  0.00  0.00    +0.000 NA
ATOM     12  H   UNL     1      50.093   5.854  12.978  0.00  0.00    +0.000 HD
ATOM     13  H   UNL     1      49.694   6.743  11.682  0.00  0.00    +0.000 HD
ENDBRANCH   9  11
ENDBRANCH   7   9
ENDBRANCH   1   7
BRANCH   4  14
ATOM     14  C   UNL     1      44.151   4.352   9.642  0.00  0.00    +0.000 C 
BRANCH  14  15
ATOM     15  N   UNL     1      44.822   3.173   9.127  0.00  0.00    +0.000 N 
ATOM     16  C   UNL     1      44.526   1.883   9.485  0.00  0.00    +0.000 A 
ATOM     17  N   UNL     1      45.264   1.015   8.832  0.00  0.00    +0.000 NA
ATOM     18  C   UNL     1      46.083   1.772   8.031  0.00  0.00    +0.000 A 
ATOM     19  C   UNL     1      47.057   1.354   7.111  0.00  0.00    +0.000 A 
ATOM     20  C   UNL     1      47.780   2.326   6.409  0.00  0.00    +0.000 A 
ATOM     21  C   UNL     1      47.553   3.685   6.633  0.00  0.00    +0.000 A 
ATOM     22  C   UNL     1      46.584   4.121   7.544  0.00  0.00    +0.000 A 
ATOM     23  C   UNL     1      45.853   3.134   8.219  0.00  0.00    +0.000 A 
ENDBRANCH  14  15
ENDBRANCH   4  14
TORSDOF 5
ENDMDL
MODEL 4
REMARK VINA RESULT:    -5.711      3.581      8.307
REMARK INTER + INTRA:          -7.449
REMARK INTER:                  -6.974
REMARK INTRA:                  -0.475
REMARK UNBOUND:                -0.235
REMARK  Name = 
REMARK  7 active torsions:
REMARK  status: ('A' for Active; 'I' for Inactive)
REMARK    1  A    between atoms: C_1  and  C_2
REMARK    2  A    between atoms: C_2  and  C_3
REMARK    3  A    between atoms: C_2  and  N_4
REMARK    4  A    between atoms: C_2  and  C_5
REMARK    5  A    between atoms: C_5  and  C_6
REMARK    6  A    between atoms: C_9  and  C_10
REMARK    7  A    between atoms: C_10  and  N_11
REMARK                            x       y       z     vdW  Elec       q    Type
REMARK                         _______ _______ _______ _____ _____    ______ ____
ROOT
ATOM      1  C   UNL     1      47.960   5.414  17.459  0.00  0.00    +0.000 A 
ATOM      2  C   UNL     1      47.221   4.418  16.825  0.00  0.00    +0.000 A 
ATOM      3  C   UNL     1      47.142   4.390  15.431  0.00  0.00    +0.000 A 
ATOM      4  C   UNL     1      47.793   5.382  14.701  0.00  0.00    +0.000 A 
ATOM      5  N   UNL     1      48.504   6.370  15.296  0.00  0.00    +0.000 NA
ATOM      6  C   UNL     1      48.573   6.363  16.649  0.00  0.00    +0.000 A 
ENDROOT
BRANCH   1   7
ATOM      7  C   UNL     1      48.101   5.464  18.960  0.00  0.00    +0.000 C 
BRANCH   7   9
ATOM      8  C   UNL     1      49.547   4.979  20.960  0.00  0.00    +0.000 C 
ATOM      9  C   UNL     1      49.092   4.441  19.592  0.00  0.00    +0.000 C 
ATOM     10  C   UNL     1      50.331   4.221  18.709  0.00  0.00    +0.000 C 
BRANCH   9  11
ATOM     11  N   UNL     1      48.436   3.146  19.828  0.00  0.00    +0.000 NA
ATOM     12  H   UNL     1      48.611   2.523  19.040  0.00  0.00    +0.000 HD
ATOM     13  H   UNL     1      47.423   3.278  19.846  0.00  0.00    +0.000 HD
ENDBRANCH   9  11
ENDBRANCH   7   9
ENDBRANCH   1   7
BRANCH   4  14
ATOM     14  C   UNL     1      47.759   5.383  13.193  0.00  0.00    +0.000 C 
BRANCH  14  15
ATOM     15  N   UNL     1      46.470   5.827  12.696  0.00  0.00    +0.000 N 
ATOM     16  C   UNL     1      46.111   7.136  12.504  0.00  0.00    +0.000 A 
ATOM     17  N   UNL     1      44.901   7.241  12.007  0.00  0.00    +0.000 NA
ATOM     18  C   UNL     1      44.448   5.950  11.887  0.00  0.00    +0.000 A 
ATOM     19  C   UNL     1      43.223   5.481  11.392  0.00  0.00    +0.000 A 
ATOM     20  C   UNL     1      42.985   4.102  11.379  0.00  0.00    +0.000 A 
ATOM     21  C   UNL     1      43.940   3.208  11.868  0.00  0.00    +0.000 A 
ATOM     22  C   UNL     1      45.170   3.657  12.363  0.00  0.00    +0.000 A 
ATOM     23  C   UNL     1      45.399   5.039  12.345  0.00  0.00    +0.000 A 
ENDBRANCH  14  15
ENDBRANCH   4  14
TORSDOF 5
ENDMDL
MODEL 5
REMARK VINA RESULT:    -5.487      4.240      7.089
REMARK INTER + INTRA:          -7.166
REMARK INTER:                  -6.892
REMARK INTRA:                  -0.274
REMARK UNBOUND:                -0.235
REMARK  Name = 
REMARK  7 active torsions:
REMARK  status: ('A' for Active; 'I' for Inactive)
REMARK    1  A    between atoms: C_1  and  C_2
REMARK    2  A    between atoms: C_2  and  C_3
REMARK    3  A    between atoms: C_2  and  N_4
REMARK    4  A    between atoms: C_2  and  C_5
REMARK    5  A    between atoms: C_5  and  C_6
REMARK    6  A    between atoms: C_9  and  C_10
REMARK    7  A    between atoms: C_10  and  N_11
REMARK                            x       y       z     vdW  Elec       q    Type
REMARK                         _______ _______ _______ _____ _____    ______ ____
ROOT
ATOM      1  C   UNL     1      47.216   5.520  13.685  0.00  0.00    +0.000 A 
ATOM      2  C   UNL     1      46.807   4.359  14.337  0.00  0.00    +0.000 A 
ATOM      3  C   UNL     1      47.220   4.114  15.648  0.00  0.00    +0.000 A 
ATOM      4  C   UNL     1      48.060   5.036  16.271  0.00  0.00    +0.000 A 
ATOM      5  N   UNL     1      48.484   6.164  15.651  0.00  0.00    +0.000 NA
ATOM      6  C   UNL     1      48.055   6.380  14.384  0.00  0.00    +0.000 A 
ENDROOT
BRANCH   1   7
ATOM      7  C   UNL     1      46.767   5.842  12.281  0.00  0.00    +0.000 C 
BRANCH   7   9
ATOM      8  C   UNL     1      44.601   5.811  11.003  0.00  0.00    +0.000 C 
ATOM      9  C   UNL     1      45.365   6.507  12.144  0.00  0.00    +0.000 C 
ATOM     10  C   UNL     1      45.469   8.008  11.828  0.00  0.00    +0.000 C 
BRANCH   9  11
ATOM     11  N   UNL     1      44.573   6.329  13.371  0.00  0.00    +0.000 NA
ATOM     12  H   UNL     1      44.759   5.409  13.771  0.00  0.00    +0.000 HD
ATOM     13  H   UNL     1      43.579   6.322  13.135  0.00  0.00    +0.000 HD
ENDBRANCH   9  11
ENDBRANCH   7   9
ENDBRANCH   1   7
BRANCH   4  14
ATOM     14  C   UNL     1      48.515   4.832  17.695  0.00  0.00    +0.000 C 
BRANCH  14  15
ATOM     15  N   UNL     1      49.955   4.670  17.767  0.00  0.00    +0.000 N 
ATOM     16  C   UNL     1      50.850   5.688  17.970  0.00  0.00    +0.000 A 
ATOM     17  N   UNL     1      52.085   5.246  18.033  0.00  0.00    +0.000 NA
ATOM     18  C   UNL     1      51.991   3.889  17.845  0.00  0.00    +0.000 A 
ATOM     19  C   UNL     1      53.006   2.922  17.836  0.00  0.00    +0.000 A 
ATOM     20  C   UNL     1      52.659   1.584  17.612  0.00  0.00    +0.000 A 
ATOM     21  C   UNL     1      51.331   1.219  17.383  0.00  0.00    +0.000 A 
ATOM     22  C   UNL     1      50.304   2.170  17.391  0.00  0.00    +0.000 A 
ATOM     23  C   UNL     1      50.668   3.500  17.641  0.00  0.00    +0.000 A 
ENDBRANCH  14  15
ENDBRANCH   4  14
TORSDOF 5
ENDMDL
MODEL 6
REMARK VINA RESULT:    -5.452      3.576      5.952
REMARK INTER + INTRA:          -7.122
REMARK INTER:                  -6.651
REMARK INTRA:                  -0.471
REMARK UNBOUND:                -0.235
REMARK  Name = 
REMARK  7 active torsions:
REMARK  status: ('A' for Active; 'I' for Inactive)
REMARK    1  A    between atoms: C_1  and  C_2
REMARK    2  A    between atoms: C_2  and  C_3
REMARK    3  A    between atoms: C_2  and  N_4
REMARK    4  A    between atoms: C_2  and  C_5
REMARK    5  A    between atoms: C_5  and  C_6
REMARK    6  A    between atoms: C_9  and  C_10
REMARK    7  A    between atoms: C_10  and  N_11
REMARK                            x       y       z     vdW  Elec       q    Type
REMARK                         _______ _______ _______ _____ _____    ______ ____
ROOT
ATOM      1  C   UNL     1      46.460   5.573  12.526  0.00  0.00    +0.000 A 
ATOM      2  C   UNL     1      46.959   6.853  12.293  0.00  0.00    +0.000 A 
ATOM      3  C   UNL     1      47.933   7.385  13.142  0.00  0.00    +0.000 A 
ATOM      4  C   UNL     1      48.369   6.624  14.225  0.00  0.00    +0.000 A 
ATOM      5  N   UNL     1      47.885   5.384  14.480  0.00  0.00    +0.000 NA
ATOM      6  C   UNL     1      46.952   4.889  13.632  0.00  0.00    +0.000 A 
ENDROOT
BRANCH   1   7
ATOM      7  C   UNL     1      45.433   4.945  11.616  0.00  0.00    +0.000 C 
BRANCH   7   9
ATOM      8  C   UNL     1      43.542   3.642  12.640  0.00  0.00    +0.000 C 
ATOM      9  C   UNL     1      43.952   5.021  12.095  0.00  0.00    +0.000 C 
ATOM     10  C   UNL     1      42.998   5.408  10.953  0.00  0.00    +0.000 C 
BRANCH   9  11
ATOM     11  N   UNL     1      43.801   5.988  13.194  0.00  0.00    +0.000 NA
ATOM     12  H   UNL     1      43.108   6.692  12.940  0.00  0.00    +0.000 HD
ATOM     13  H   UNL     1      44.674   6.503  13.314  0.00  0.00    +0.000 HD
ENDBRANCH   9  11
ENDBRANCH   7   9
ENDBRANCH   1   7
BRANCH   4  14
ATOM     14  C   UNL     1      49.436   7.141  15.157  0.00  0.00    +0.000 C 
BRANCH  14  15
ATOM     15  N   UNL     1      48.855   7.689  16.368  0.00  0.00    +0.000 N 
ATOM     16  C   UNL     1      48.462   8.993  16.531  0.00  0.00    +0.000 A 
ATOM     17  N   UNL     1      47.933   9.198  17.714  0.00  0.00    +0.000 NA
ATOM     18  C   UNL     1      48.001   7.985  18.353  0.00  0.00    +0.000 A 
ATOM     19  C   UNL     1      47.560   7.631  19.637  0.00  0.00    +0.000 A 
ATOM     20  C   UNL     1      47.750   6.316  20.076  0.00  0.00    +0.000 A 
ATOM     21  C   UNL     1      48.384   5.376  19.262  0.00  0.00    +0.000 A 
ATOM     22  C   UNL     1      48.829   5.709  17.977  0.00  0.00    +0.000 A 
ATOM     23  C   UNL     1      48.607   7.024  17.546  0.00  0.00    +0.000 A 
ENDBRANCH  14  15
ENDBRANCH   4  14
TORSDOF 5
ENDMDL
MODEL 7
REMARK VINA RESULT:    -5.341      2.723      6.507
REMARK INTER + INTRA:          -6.981
REMARK INTER:                  -6.677
REMARK INTRA:                  -0.304
REMARK UNBOUND:                -0.235
REMARK  Name = 
REMARK  7 active torsions:
REMARK  status: ('A' for Active; 'I' for Inactive)
REMARK    1  A    between atoms: C_1  and  C_2
REMARK    2  A    between atoms: C_2  and  C_3
REMARK    3  A    between atoms: C_2  and  N_4
REMARK    4  A    between atoms: C_2  and  C_5
REMARK    5  A    between atoms: C_5  and  C_6
REMARK    6  A    between atoms: C_9  and  C_10
REMARK    7  A    between atoms: C_10  and  N_11
REMARK                            x       y       z     vdW  Elec       q    Type
REMARK                         _______ _______ _______ _____ _____    ______ ____
ROOT
ATOM      1  C   UNL     1      49.680   8.265  12.939  0.00  0.00    +0.000 A 
ATOM      2  C   UNL     1      49.208   7.260  13.781  0.00  0.00    +0.000 A 
ATOM      3  C   UNL     1      47.859   6.902  13.749  0.00  0.00    +0.000 A 
ATOM      4  C   UNL     1      47.004   7.581  12.883  0.00  0.00    +0.000 A 
ATOM      5  N   UNL     1      47.438   8.573  12.067  0.00  0.00    +0.000 NA
ATOM      6  C   UNL     1      48.754   8.888  12.111  0.00  0.00    +0.000 A 
ENDROOT
BRANCH   1   7
ATOM      7  C   UNL     1      51.136   8.661  12.916  0.00  0.00    +0.000 C 
BRANCH   7   9
ATOM      8  C   UNL     1      53.390   8.133  11.934  0.00  0.00    +0.000 C 
ATOM      9  C   UNL     1      51.908   8.364  11.595  0.00  0.00    +0.000 C 
ATOM     10  C   UNL     1      51.803   9.527  10.595  0.00  0.00    +0.000 C 
BRANCH   9  11
ATOM     11  N   UNL     1      51.410   7.136  10.956  0.00  0.00    +0.000 NA
ATOM     12  H   UNL     1      51.165   7.329   9.984  0.00  0.00    +0.000 HD
ATOM     13  H   UNL     1      50.535   6.854  11.401  0.00  0.00    +0.000 HD
ENDBRANCH   9  11
ENDBRANCH   7   9
ENDBRANCH   1   7
BRANCH   4  14
ATOM     14  C   UNL     1      45.543   7.217  12.792  0.00  0.00    +0.000 C 
BRANCH  14  15
ATOM     15  N   UNL     1      45.370   5.799  12.539  0.00  0.00    +0.000 N 
ATOM     16  C   UNL     1      45.211   4.843  13.509  0.00  0.00    +0.000 A 
ATOM     17  N   UNL     1      45.034   3.649  12.991  0.00  0.00    +0.000 NA
ATOM     18  C   UNL     1      45.099   3.834  11.632  0.00  0.00    +0.000 A 
ATOM     19  C   UNL     1      44.957   2.894  10.601  0.00  0.00    +0.000 A 
ATOM     20  C   UNL     1      45.075   3.327   9.275  0.00  0.00    +0.000 A 
ATOM     21  C   UNL     1      45.348   4.664   8.982  0.00  0.00    +0.000 A 
ATOM     22  C   UNL     1      45.489   5.617   9.997  0.00  0.00    +0.000 A 
ATOM     23  C   UNL     1      45.344   5.169  11.317  0.00  0.00    +0.000 A 
ENDBRANCH  14  15
ENDBRANCH   4  14
TORSDOF 5
ENDMDL
MODEL 8
REMARK VINA RESULT:    -5.170      2.413      7.635
REMARK INTER + INTRA:          -6.766
REMARK INTER:                  -6.332
REMARK INTRA:                  -0.434
REMARK UNBOUND:                -0.235
REMARK  Name = 
REMARK  7 active torsions:
REMARK  status: ('A' for Active; 'I' for Inactive)
REMARK    1  A    between atoms: C_1  and  C_2
REMARK    2  A    between atoms: C_2  and  C_3
REMARK    3  A    between atoms: C_2  and  N_4
REMARK    4  A    between atoms: C_2  and  C_5
REMARK    5  A    between atoms: C_5  and  C_6
REMARK    6  A    between atoms: C_9  and  C_10
REMARK    7  A    between atoms: C_10  and  N_11
REMARK                            x       y       z     vdW  Elec       q    Type
REMARK                         _______ _______ _______ _____ _____    ______ ____
ROOT
ATOM      1  C   UNL     1      49.359   8.224  14.360  0.00  0.00    +0.000 A 
ATOM      2  C   UNL     1      49.529   7.377  13.267  0.00  0.00    +0.000 A 
ATOM      3  C   UNL     1      48.444   7.087  12.436  0.00  0.00    +0.000 A 
ATOM      4  C   UNL     1      47.201   7.640  12.736  0.00  0.00    +0.000 A 
ATOM      5  N   UNL     1      47.009   8.454  13.803  0.00  0.00    +0.000 NA
ATOM      6  C   UNL     1      48.082   8.727  14.582  0.00  0.00    +0.000 A 
ENDROOT
BRANCH   1   7
ATOM      7  C   UNL     1      50.509   8.592  15.264  0.00  0.00    +0.000 C 
BRANCH   7   9
ATOM      8  C   UNL     1      51.980   7.983  17.210  0.00  0.00    +0.000 C 
ATOM      9  C   UNL     1      50.553   7.876  16.647  0.00  0.00    +0.000 C 
ATOM     10  C   UNL     1      50.173   6.390  16.536  0.00  0.00    +0.000 C 
BRANCH   9  11
ATOM     11  N   UNL     1      49.653   8.529  17.610  0.00  0.00    +0.000 NA
ATOM     12  H   UNL     1      48.896   8.997  17.111  0.00  0.00    +0.000 HD
ATOM     13  H   UNL     1      50.157   9.275  18.092  0.00  0.00    +0.000 HD
ENDBRANCH   9  11
ENDBRANCH   7   9
ENDBRANCH   1   7
BRANCH   4  14
ATOM     14  C   UNL     1      46.003   7.379  11.857  0.00  0.00    +0.000 C 
BRANCH  14  15
ATOM     15  N   UNL     1      45.529   6.016  12.007  0.00  0.00    +0.000 N 
ATOM     16  C   UNL     1      45.249   5.410  13.204  0.00  0.00    +0.000 A 
ATOM     17  N   UNL     1      44.797   4.188  13.037  0.00  0.00    +0.000 NA
ATOM     18  C   UNL     1      44.801   3.986  11.679  0.00  0.00    +0.000 A 
ATOM     19  C   UNL     1      44.399   2.859  10.948  0.00  0.00    +0.000 A 
ATOM     20  C   UNL     1      44.507   2.887   9.553  0.00  0.00    +0.000 A 
ATOM     21  C   UNL     1      45.023   4.008   8.900  0.00  0.00    +0.000 A 
ATOM     22  C   UNL     1      45.427   5.143   9.612  0.00  0.00    +0.000 A 
ATOM     23  C   UNL     1      45.289   5.105  11.005  0.00  0.00    +0.000 A 
ENDBRANCH  14  15
ENDBRANCH   4  14
TORSDOF 5
ENDMDL
MODEL 9
REMARK VINA RESULT:    -5.167      3.744      8.499
REMARK INTER + INTRA:          -6.762
REMARK INTER:                  -6.262
REMARK INTRA:                  -0.500
REMARK UNBOUND:                -0.235
REMARK  Name = 
REMARK  7 active torsions:
REMARK  status: ('A' for Active; 'I' for Inactive)
REMARK    1  A    between atoms: C_1  and  C_2
REMARK    2  A    between atoms: C_2  and  C_3
REMARK    3  A    between atoms: C_2  and  N_4
REMARK    4  A    between atoms: C_2  and  C_5
REMARK    5  A    between atoms: C_5  and  C_6
REMARK    6  A    between atoms: C_9  and  C_10
REMARK    7  A    between atoms: C_10  and  N_11
REMARK                            x       y       z     vdW  Elec       q    Type
REMARK                         _______ _______ _______ _____ _____    ______ ____
ROOT
ATOM      1  C   UNL     1      49.025   6.845  17.052  0.00  0.00    +0.000 A 
ATOM      2  C   UNL     1      49.235   7.890  16.155  0.00  0.00    +0.000 A 
ATOM      3  C   UNL     1      48.906   7.728  14.808  0.00  0.00    +0.000 A 
ATOM      4  C   UNL     1      48.391   6.505  14.384  0.00  0.00    +0.000 A 
ATOM      5  N   UNL     1      48.194   5.468  15.235  0.00  0.00    +0.000 NA
ATOM      6  C   UNL     1      48.510   5.660  16.538  0.00  0.00    +0.000 A 
ENDROOT
BRANCH   1   7
ATOM      7  C   UNL     1      49.334   6.987  18.522  0.00  0.00    +0.000 C 
BRANCH   7   9
ATOM      8  C   UNL     1      48.606   8.237  20.579  0.00  0.00    +0.000 C 
ATOM      9  C   UNL     1      48.125   7.308  19.451  0.00  0.00    +0.000 C 
ATOM     10  C   UNL     1      47.527   6.036  20.076  0.00  0.00    +0.000 C 
BRANCH   9  11
ATOM     11  N   UNL     1      47.070   8.023  18.717  0.00  0.00    +0.000 NA
ATOM     12  H   UNL     1      46.231   7.444  18.670  0.00  0.00    +0.000 HD
ATOM     13  H   UNL     1      47.360   8.151  17.746  0.00  0.00    +0.000 HD
ENDBRANCH   9  11
ENDBRANCH   7   9
ENDBRANCH   1   7
BRANCH   4  14
ATOM     14  C   UNL     1      47.996   6.286  12.945  0.00  0.00    +0.000 C 
BRANCH  14  15
ATOM     15  N   UNL     1      46.562   6.420  12.767  0.00  0.00    +0.000 N 
ATOM     16  C   UNL     1      45.887   7.611  12.710  0.00  0.00    +0.000 A 
ATOM     17  N   UNL     1      44.603   7.434  12.501  0.00  0.00    +0.000 NA
ATOM     18  C   UNL     1      44.434   6.072  12.439  0.00  0.00    +0.000 A 
ATOM     19  C   UNL     1      43.264   5.332  12.215  0.00  0.00    +0.000 A 
ATOM     20  C   UNL     1      43.343   3.934  12.205  0.00  0.00    +0.000 A 
ATOM     21  C   UNL     1      44.559   3.287  12.433  0.00  0.00    +0.000 A 
ATOM     22  C   UNL     1      45.737   4.008  12.655  0.00  0.00    +0.000 A 
ATOM     23  C   UNL     1      45.642   5.406  12.637  0.00  0.00    +0.000 A 
ENDBRANCH  14  15
ENDBRANCH   4  14
TORSDOF 5
ENDMDL
