MODEL 1
REMARK VINA RESULT:    -8.254      0.000      0.000
REMARK INTER + INTRA:         -10.867
REMARK INTER:                 -10.185
REMARK INTRA:                  -0.682
REMARK UNBOUND:                -0.682
REMARK  Name = 
REMARK  5 active torsions:
REMARK  status: ('A' for Active; 'I' for Inactive)
REMARK    1  A    between atoms: C_1  and  C_2
REMARK    2  A    between atoms: C_2  and  N_3
REMARK    3  A    between atoms: C_2  and  C_13
REMARK    4  A    between atoms: N_3  and  C_4
REMARK    5  A    between atoms: C_7  and  C_8
REMARK                            x       y       z     vdW  Elec       q    Type
REMARK                         _______ _______ _______ _____ _____    ______ ____
ROOT
ATOM      1  N   UNL     1      43.766   4.885   9.817  0.00  0.00    +0.000 N 
ATOM      2  H   UNL     1      44.037   5.839   9.576  0.00  0.00    +0.000 HD
ENDROOT
BRANCH   1   3
ATOM      3  C   UNL     1      44.571   3.964   9.135  0.00  0.00    +0.000 A 
ATOM      4  C   UNL     1      45.589   4.334   8.263  0.00  0.00    +0.000 A 
ATOM      5  C   UNL     1      46.408   3.378   7.661  0.00  0.00    +0.000 A 
ATOM      6  C   UNL     1      46.208   2.045   7.978  0.00  0.00    +0.000 A 
ATOM      7  N   UNL     1      45.261   1.615   8.852  0.00  0.00    +0.000 NA
ATOM      8  C   UNL     1      44.489   2.588   9.412  0.00  0.00    +0.000 A 
BRANCH   6   9
ATOM      9  C   UNL     1      47.092   1.013   7.347  0.00  0.00    +0.000 C 
ATOM     10  N   UNL     1      46.802  -0.289   7.647  0.00  0.00    +0.000 N 
ATOM     11  O   UNL     1      48.028   1.305   6.611  0.00  0.00    +0.000 OA
ATOM     12  H   UNL     1      46.041  -0.499   8.285  0.00  0.00    +0.000 HD
ATOM     13  H   UNL     1      47.392  -1.023   7.289  0.00  0.00    +0.000 HD
ENDBRANCH   6   9
ENDBRANCH   1   3
BRANCH   1  15
ATOM     14  C   UNL     1      42.348   5.572  11.762  0.00  0.00    +0.000 C 
ATOM     15  C   UNL     1      43.552   4.759  11.272  0.00  0.00    +0.000 C 
BRANCH  15  16
ATOM     16  C   UNL     1      44.809   5.258  11.980  0.00  0.00    +0.000 A 
ATOM     17  C   UNL     1      45.388   4.503  13.011  0.00  0.00    +0.000 A 
ATOM     18  C   UNL     1      46.550   4.948  13.648  0.00  0.00    +0.000 A 
ATOM     19  C   UNL     1      47.141   6.147  13.256  0.00  0.00    +0.000 A 
ATOM     20 CL   UNL     1      48.586   6.679  14.021  0.00  0.00    +0.000 Cl
ATOM     21  C   UNL     1      46.575   6.915  12.240  0.00  0.00    +0.000 A 
ATOM     22  C   UNL     1      45.414   6.473  11.608  0.00  0.00    +0.000 A 
ENDBRANCH  15  16
ENDBRANCH   1  15
TORSDOF 4
ENDMDL
MODEL 2
REMARK VINA RESULT:    -7.179      1.808      2.305
REMARK INTER + INTRA:          -9.541
REMARK INTER:                  -9.078
REMARK INTRA:                  -0.463
REMARK UNBOUND:                -0.682
REMARK  Name = 
REMARK  5 active torsions:
REMARK  status: ('A' for Active; 'I' for Inactive)
REMARK    1  A    between atoms: C_1  and  C_2
REMARK    2  A    between atoms: C_2  and  N_3
REMARK    3  A    between atoms: C_2  and  C_13
REMARK    4  A    between atoms: N_3  and  C_4
REMARK    5  A    between atoms: C_7  and  C_8
REMARK                            x       y       z     vdW  Elec       q    Type
REMARK                         _______ _______ _______ _____ _____    ______ ____
ROOT
ATOM      1  N   UNL     1      43.971   3.641  10.622  0.00  0.00    +0.000 N 
ATOM      2  H   UNL     1      43.312   4.372  10.354  0.00  0.00    +0.000 HD
ENDROOT
BRANCH   1   3
ATOM      3  C   UNL     1      44.851   3.370   9.566  0.00  0.00    +0.000 A 
ATOM      4  C   UNL     1      45.221   2.084   9.186  0.00  0.00    +0.000 A 
ATOM      5  C   UNL     1      46.046   1.866   8.083  0.00  0.00    +0.000 A 
ATOM      6  C   UNL     1      46.466   2.961   7.346  0.00  0.00    +0.000 A 
ATOM      7  N   UNL     1      46.110   4.240   7.634  0.00  0.00    +0.000 NA
ATOM      8  C   UNL     1      45.303   4.398   8.721  0.00  0.00    +0.000 A 
BRANCH   6   9
ATOM      9  C   UNL     1      47.341   2.735   6.152  0.00  0.00    +0.000 C 
ATOM     10  N   UNL     1      48.656   2.465   6.415  0.00  0.00    +0.000 N 
ATOM     11  O   UNL     1      46.919   2.793   5.002  0.00  0.00    +0.000 OA
ATOM     12  H   UNL     1      48.983   2.455   7.375  0.00  0.00    +0.000 HD
ATOM     13  H   UNL     1      49.300   2.352   5.648  0.00  0.00    +0.000 HD
ENDBRANCH   6   9
ENDBRANCH   1   3
BRANCH   1  15
ATOM     14  C   UNL     1      43.396   3.763  13.055  0.00  0.00    +0.000 C 
ATOM     15  C   UNL     1      44.486   3.880  11.983  0.00  0.00    +0.000 C 
BRANCH  15  16
ATOM     16  C   UNL     1      45.075   5.287  12.026  0.00  0.00    +0.000 A 
ATOM     17  C   UNL     1      44.305   6.390  11.624  0.00  0.00    +0.000 A 
ATOM     18  C   UNL     1      44.836   7.681  11.680  0.00  0.00    +0.000 A 
ATOM     19  C   UNL     1      46.136   7.879  12.139  0.00  0.00    +0.000 A 
ATOM     20 CL   UNL     1      46.777   9.473  12.234  0.00  0.00    +0.000 Cl
ATOM     21  C   UNL     1      46.918   6.796  12.533  0.00  0.00    +0.000 A 
ATOM     22  C   UNL     1      46.391   5.507  12.474  0.00  0.00    +0.000 A 
ENDBRANCH  15  16
ENDBRANCH   1  15
TORSDOF 4
ENDMDL
MODEL 3
REMARK VINA RESULT:    -7.010      3.703      6.119
REMARK INTER + INTRA:          -9.331
REMARK INTER:                  -9.468
REMARK INTRA:                   0.136
REMARK UNBOUND:                -0.682
REMARK  Name = 
REMARK  5 active torsions:
REMARK  status: ('A' for Active; 'I' for Inactive)
REMARK    1  A    between atoms: C_1  and  C_2
REMARK    2  A    between atoms: C_2  and  N_3
REMARK    3  A    between atoms: C_2  and  C_13
REMARK    4  A    between atoms: N_3  and  C_4
REMARK    5  A    between atoms: C_7  and  C_8
REMARK                            x       y       z     vdW  Elec       q    Type
REMARK                         _______ _______ _______ _____ _____    ______ ____
ROOT
ATOM      1  N   UNL     1      44.241   5.467  10.619  0.00  0.00    +0.000 N 
ATOM      2  H   UNL     1      43.449   6.051  10.890  0.00  0.00    +0.000 HD
ENDROOT
BRANCH   1   3
ATOM      3  C   UNL     1      45.289   5.613  11.537  0.00  0.00    +0.000 A 
ATOM      4  C   UNL     1      46.417   6.390  11.295  0.00  0.00    +0.000 A 
ATOM      5  C   UNL     1      47.400   6.559  12.270  0.00  0.00    +0.000 A 
ATOM      6  C   UNL     1      47.213   5.962  13.506  0.00  0.00    +0.000 A 
ATOM      7  N   UNL     1      46.117   5.226  13.825  0.00  0.00    +0.000 NA
ATOM      8  C   UNL     1      45.187   5.092  12.838  0.00  0.00    +0.000 A 
BRANCH   6   9
ATOM      9  C   UNL     1      48.257   6.150  14.563  0.00  0.00    +0.000 C 
ATOM     10  N   UNL     1      47.912   5.749  15.824  0.00  0.00    +0.000 N 
ATOM     11  O   UNL     1      49.356   6.641  14.328  0.00  0.00    +0.000 OA
ATOM     12  H   UNL     1      46.984   5.376  15.995  0.00  0.00    +0.000 HD
ATOM     13  H   UNL     1      48.558   5.895  16.584  0.00  0.00    +0.000 HD
ENDBRANCH   6   9
ENDBRANCH   1   3
BRANCH   1  15
ATOM     14  C   UNL     1      43.634   3.169  11.405  0.00  0.00    +0.000 C 
ATOM     15  C   UNL     1      43.781   4.124  10.214  0.00  0.00    +0.000 C 
BRANCH  15  16
ATOM     16  C   UNL     1      44.804   3.548   9.239  0.00  0.00    +0.000 A 
ATOM     17  C   UNL     1      45.491   4.392   8.352  0.00  0.00    +0.000 A 
ATOM     18  C   UNL     1      46.441   3.869   7.471  0.00  0.00    +0.000 A 
ATOM     19  C   UNL     1      46.713   2.503   7.472  0.00  0.00    +0.000 A 
ATOM     20 CL   UNL     1      47.904   1.866   6.407  0.00  0.00    +0.000 Cl
ATOM     21  C   UNL     1      46.035   1.649   8.339  0.00  0.00    +0.000 A 
ATOM     22  C   UNL     1      45.083   2.169   9.215  0.00  0.00    +0.000 A 
ENDBRANCH  15  16
ENDBRANCH   1  15
TORSDOF 4
ENDMDL
MODEL 4
REMARK VINA RESULT:    -6.633      3.897      6.709
REMARK INTER + INTRA:          -8.867
REMARK INTER:                  -8.313
REMARK INTRA:                  -0.553
REMARK UNBOUND:                -0.682
REMARK  Name = 
REMARK  5 active torsions:
REMARK  status: ('A' for Active; 'I' for Inactive)
REMARK    1  A    between atoms: C_1  and  C_2
REMARK    2  A    between atoms: C_2  and  N_3
REMARK    3  A    between atoms: C_2  and  C_13
REMARK    4  A    between atoms: N_3  and  C_4
REMARK    5  A    between atoms: C_7  and  C_8
REMARK                            x       y       z     vdW  Elec       q    Type
REMARK                         _______ _______ _______ _____ _____    ______ ____
ROOT
ATOM      1  N   UNL     1      45.236   4.418  11.849  0.00  0.00    +0.000 N 
ATOM      2  H   UNL     1      46.106   3.891  11.772  0.00  0.00    +0.000 HD
ENDROOT
BRANCH   1   3
ATOM      3  C   UNL     1      45.508   5.785  11.993  0.00  0.00    +0.000 A 
ATOM      4  C   UNL     1      46.759   6.285  12.340  0.00  0.00    +0.000 A 
ATOM      5  C   UNL     1      46.996   7.658  12.402  0.00  0.00    +0.000 A 
ATOM      6  C   UNL     1      45.963   8.521  12.076  0.00  0.00    +0.000 A 
ATOM      7  N   UNL     1      44.730   8.103  11.689  0.00  0.00    +0.000 NA
ATOM      8  C   UNL     1      44.551   6.753  11.644  0.00  0.00    +0.000 A 
BRANCH   6   9
ATOM      9  C   UNL     1      46.212   9.997  12.128  0.00  0.00    +0.000 C 
ATOM     10  N   UNL     1      45.100  10.792  12.155  0.00  0.00    +0.000 N 
ATOM     11  O   UNL     1      47.340  10.478  12.136  0.00  0.00    +0.000 OA
ATOM     12  H   UNL     1      44.180  10.368  12.115  0.00  0.00    +0.000 HD
ATOM     13  H   UNL     1      45.208  11.794  12.142  0.00  0.00    +0.000 HD
ENDBRANCH   6   9
ENDBRANCH   1   3
BRANCH   1  15
ATOM     14  C   UNL     1      43.409   2.779  11.359  0.00  0.00    +0.000 C 
ATOM     15  C   UNL     1      44.256   3.951  10.850  0.00  0.00    +0.000 C 
BRANCH  15  16
ATOM     16  C   UNL     1      45.022   3.506   9.607  0.00  0.00    +0.000 A 
ATOM     17  C   UNL     1      45.528   4.458   8.708  0.00  0.00    +0.000 A 
ATOM     18  C   UNL     1      46.246   4.054   7.579  0.00  0.00    +0.000 A 
ATOM     19  C   UNL     1      46.466   2.698   7.344  0.00  0.00    +0.000 A 
ATOM     20 CL   UNL     1      47.375   2.205   5.970  0.00  0.00    +0.000 Cl
ATOM     21  C   UNL     1      45.963   1.739   8.220  0.00  0.00    +0.000 A 
ATOM     22  C   UNL     1      45.243   2.142   9.344  0.00  0.00    +0.000 A 
ENDBRANCH  15  16
ENDBRANCH   1  15
TORSDOF 4
ENDMDL
MODEL 5
REMARK VINA RESULT:    -6.612      4.258      6.505
REMARK INTER + INTRA:          -8.841
REMARK INTER:                  -8.224
REMARK INTRA:                  -0.617
REMARK UNBOUND:                -0.682
REMARK  Name = 
REMARK  5 active torsions:
REMARK  status: ('A' for Active; 'I' for Inactive)
REMARK    1  A    between atoms: C_1  and  C_2
REMARK    2  A    between atoms: C_2  and  N_3
REMARK    3  A    between atoms: C_2  and  C_13
REMARK    4  A    between atoms: N_3  and  C_4
REMARK    5  A    between atoms: C_7  and  C_8
REMARK                            x       y       z     vdW  Elec       q    Type
REMARK                         _______ _______ _______ _____ _____    ______ ____
ROOT
ATOM      1  N   UNL     1      45.267   4.757  12.106  0.00  0.00    +0.000 N 
ATOM      2  H   UNL     1      45.458   3.757  12.180  0.00  0.00    +0.000 HD
ENDROOT
BRANCH   1   3
ATOM      3  C   UNL     1      46.404   5.496  12.459  0.00  0.00    +0.000 A 
ATOM      4  C   UNL     1      46.842   6.611  11.753  0.00  0.00    +0.000 A 
ATOM      5  C   UNL     1      47.941   7.354  12.186  0.00  0.00    +0.000 A 
ATOM      6  C   UNL     1      48.571   6.976  13.361  0.00  0.00    +0.000 A 
ATOM      7  N   UNL     1      48.171   5.924  14.121  0.00  0.00    +0.000 NA
ATOM      8  C   UNL     1      47.094   5.233  13.654  0.00  0.00    +0.000 A 
BRANCH   6   9
ATOM      9  C   UNL     1      49.743   7.776  13.841  0.00  0.00    +0.000 C 
ATOM     10  N   UNL     1      50.843   7.772  13.029  0.00  0.00    +0.000 N 
ATOM     11  O   UNL     1      49.733   8.394  14.900  0.00  0.00    +0.000 OA
ATOM     12  H   UNL     1      50.834   7.225  12.175  0.00  0.00    +0.000 HD
ATOM     13  H   UNL     1      51.677   8.254  13.325  0.00  0.00    +0.000 HD
ENDBRANCH   6   9
ENDBRANCH   1   3
BRANCH   1  15
ATOM     14  C   UNL     1      43.031   4.796  10.980  0.00  0.00    +0.000 C 
ATOM     15  C   UNL     1      44.538   5.055  10.858  0.00  0.00    +0.000 C 
BRANCH  15  16
ATOM     16  C   UNL     1      45.106   4.166   9.755  0.00  0.00    +0.000 A 
ATOM     17  C   UNL     1      45.801   4.733   8.676  0.00  0.00    +0.000 A 
ATOM     18  C   UNL     1      46.338   3.920   7.674  0.00  0.00    +0.000 A 
ATOM     19  C   UNL     1      46.187   2.537   7.746  0.00  0.00    +0.000 A 
ATOM     20 CL   UNL     1      46.874   1.536   6.528  0.00  0.00    +0.000 Cl
ATOM     21  C   UNL     1      45.493   1.957   8.805  0.00  0.00    +0.000 A 
ATOM     22  C   UNL     1      44.953   2.768   9.802  0.00  0.00    +0.000 A 
ENDBRANCH  15  16
ENDBRANCH   1  15
TORSDOF 4
ENDMDL
MODEL 6
REMARK VINA RESULT:    -5.739      3.534      5.282
REMARK INTER + INTRA:          -7.763
REMARK INTER:                  -7.184
REMARK INTRA:                  -0.579
REMARK UNBOUND:                -0.682
REMARK  Name = 
REMARK  5 active torsions:
REMARK  status: ('A' for Active; 'I' for Inactive)
REMARK    1  A    between atoms: C_1  and  C_2
REMARK    2  A    between atoms: C_2  and  N_3
REMARK    3  A    between atoms: C_2  and  C_13
REMARK    4  A    between atoms: N_3  and  C_4
REMARK    5  A    between atoms: C_7  and  C_8
REMARK                            x       y       z     vdW  Elec       q    Type
REMARK                         _______ _______ _______ _____ _____    ______ ____
ROOT
ATOM      1  N   UNL     1      46.867   6.932  13.625  0.00  0.00    +0.000 N 
ATOM      2  H   UNL     1      46.543   7.868  13.379  0.00  0.00    +0.000 HD
ENDROOT
BRANCH   1   3
ATOM      3  C   UNL     1      46.100   5.964  12.965  0.00  0.00    +0.000 A 
ATOM      4  C   UNL     1      45.766   6.038  11.617  0.00  0.00    +0.000 A 
ATOM      5  C   UNL     1      45.058   5.012  10.990  0.00  0.00    +0.000 A 
ATOM      6  C   UNL     1      44.721   3.894  11.734  0.00  0.00    +0.000 A 
ATOM      7  N   UNL     1      45.050   3.736  13.043  0.00  0.00    +0.000 NA
ATOM      8  C   UNL     1      45.741   4.766  13.607  0.00  0.00    +0.000 A 
BRANCH   6   9
ATOM      9  C   UNL     1      43.972   2.782  11.066  0.00  0.00    +0.000 C 
ATOM     10  N   UNL     1      44.560   2.248   9.953  0.00  0.00    +0.000 N 
ATOM     11  O   UNL     1      42.892   2.371  11.476  0.00  0.00    +0.000 OA
ATOM     12  H   UNL     1      45.438   2.630   9.618  0.00  0.00    +0.000 HD
ATOM     13  H   UNL     1      44.078   1.530   9.436  0.00  0.00    +0.000 HD
ENDBRANCH   6   9
ENDBRANCH   1   3
BRANCH   1  15
ATOM     14  C   UNL     1      48.966   7.021  14.986  0.00  0.00    +0.000 C 
ATOM     15  C   UNL     1      48.341   6.869  13.595  0.00  0.00    +0.000 C 
BRANCH  15  16
ATOM     16  C   UNL     1      48.845   7.997  12.698  0.00  0.00    +0.000 A 
ATOM     17  C   UNL     1      48.018   9.093  12.407  0.00  0.00    +0.000 A 
ATOM     18  C   UNL     1      48.484  10.136  11.601  0.00  0.00    +0.000 A 
ATOM     19  C   UNL     1      49.777  10.091  11.085  0.00  0.00    +0.000 A 
ATOM     20 CL   UNL     1      50.357  11.390  10.118  0.00  0.00    +0.000 Cl
ATOM     21  C   UNL     1      50.608   9.007  11.356  0.00  0.00    +0.000 A 
ATOM     22  C   UNL     1      50.143   7.964  12.156  0.00  0.00    +0.000 A 
ENDBRANCH  15  16
ENDBRANCH   1  15
TORSDOF 4
ENDMDL
MODEL 7
REMARK VINA RESULT:    -5.695      4.463      6.312
REMARK INTER + INTRA:          -7.709
REMARK INTER:                  -7.220
REMARK INTRA:                  -0.489
REMARK UNBOUND:                -0.682
REMARK  Name = 
REMARK  5 active torsions:
REMARK  status: ('A' for Active; 'I' for Inactive)
REMARK    1  A    between atoms: C_1  and  C_2
REMARK    2  A    between atoms: C_2  and  N_3
REMARK    3  A    between atoms: C_2  and  C_13
REMARK    4  A    between atoms: N_3  and  C_4
REMARK    5  A    between atoms: C_7  and  C_8
REMARK                            x       y       z     vdW  Elec       q    Type
REMARK                         _______ _______ _______ _____ _____    ______ ____
ROOT
ATOM      1  N   UNL     1      47.697   5.180  15.555  0.00  0.00    +0.000 N 
ATOM      2  H   UNL     1      48.679   5.288  15.301  0.00  0.00    +0.000 HD
ENDROOT
BRANCH   1   3
ATOM      3  C   UNL     1      46.923   4.941  14.412  0.00  0.00    +0.000 A 
ATOM      4  C   UNL     1      46.506   5.945  13.545  0.00  0.00    +0.000 A 
ATOM      5  C   UNL     1      45.795   5.647  12.382  0.00  0.00    +0.000 A 
ATOM      6  C   UNL     1      45.540   4.317  12.088  0.00  0.00    +0.000 A 
ATOM      7  N   UNL     1      45.953   3.284  12.867  0.00  0.00    +0.000 NA
ATOM      8  C   UNL     1      46.643   3.630  13.990  0.00  0.00    +0.000 A 
BRANCH   6   9
ATOM      9  C   UNL     1      44.789   3.987  10.835  0.00  0.00    +0.000 C 
ATOM     10  N   UNL     1      44.066   5.008  10.283  0.00  0.00    +0.000 N 
ATOM     11  O   UNL     1      44.806   2.870  10.329  0.00  0.00    +0.000 OA
ATOM     12  H   UNL     1      44.046   5.912  10.741  0.00  0.00    +0.000 HD
ATOM     13  H   UNL     1      43.504   4.830   9.466  0.00  0.00    +0.000 HD
ENDBRANCH   6   9
ENDBRANCH   1   3
BRANCH   1  15
ATOM     14  C   UNL     1      47.058   5.088  17.974  0.00  0.00    +0.000 C 
ATOM     15  C   UNL     1      47.560   4.319  16.746  0.00  0.00    +0.000 C 
BRANCH  15  16
ATOM     16  C   UNL     1      48.931   3.724  17.058  0.00  0.00    +0.000 A 
ATOM     17  C   UNL     1      49.188   2.368  16.806  0.00  0.00    +0.000 A 
ATOM     18  C   UNL     1      50.448   1.825  17.074  0.00  0.00    +0.000 A 
ATOM     19  C   UNL     1      51.457   2.634  17.592  0.00  0.00    +0.000 A 
ATOM     20 CL   UNL     1      53.015   1.971  17.894  0.00  0.00    +0.000 Cl
ATOM     21  C   UNL     1      51.217   3.980  17.857  0.00  0.00    +0.000 A 
ATOM     22  C   UNL     1      49.959   4.521  17.594  0.00  0.00    +0.000 A 
ENDBRANCH  15  16
ENDBRANCH   1  15
TORSDOF 4
ENDMDL
