MODEL 1
REMARK VINA RESULT:    -7.992      0.000      0.000
REMARK INTER + INTRA:         -11.239
REMARK INTER:                 -10.562
REMARK INTRA:                  -0.677
REMARK UNBOUND:                -0.677
REMARK  Name = 
REMARK  6 active torsions:
REMARK  status: ('A' for Active; 'I' for Inactive)
REMARK    1  A    between atoms: C_2  and  C_3
REMARK    2  A    between atoms: C_6  and  O_7
REMARK    3  A    between atoms: O_7  and  C_8
REMARK    4  A    between atoms: C_8  and  C_9
REMARK    5  A    between atoms: C_13  and  N_14
REMARK    6  A    between atoms: C_17  and  N_18
REMARK                            x       y       z     vdW  Elec       q    Type
REMARK                         _______ _______ _______ _____ _____    ______ ____
ROOT
ATOM      1  C   UNL     1      44.935   4.033  12.002  0.00  0.00    +0.000 A 
ATOM      2  C   UNL     1      45.681   3.260  12.879  0.00  0.00    +0.000 A 
ATOM      3  N   UNL     1      46.695   3.738  13.630  0.00  0.00    +0.000 NA
ATOM      4  C   UNL     1      46.993   5.055  13.482  0.00  0.00    +0.000 A 
ATOM      5  C   UNL     1      46.348   5.934  12.611  0.00  0.00    +0.000 A 
ATOM      6  C   UNL     1      45.275   5.385  11.893  0.00  0.00    +0.000 A 
ENDROOT
BRANCH   5   7
ATOM      7  N   UNL     1      46.683   7.276  12.426  0.00  0.00    +0.000 N 
ATOM      8  C   UNL     1      45.780   8.325  12.917  0.00  0.00    +0.000 C 
ATOM      9  C   UNL     1      46.081   9.627  12.168  0.00  0.00    +0.000 C 
ATOM     10  C   UNL     1      47.566  10.018  12.220  0.00  0.00    +0.000 C 
ATOM     11  C   UNL     1      48.444   8.834  11.806  0.00  0.00    +0.000 C 
ATOM     12  C   UNL     1      48.114   7.581  12.609  0.00  0.00    +0.000 C 
BRANCH  10  13
ATOM     13  N   UNL     1      47.960  10.524  13.537  0.00  0.00    +0.000 NA
ATOM     14  H   UNL     1      48.915  10.874  13.524  0.00  0.00    +0.000 HD
ATOM     15  H   UNL     1      47.948   9.761  14.217  0.00  0.00    +0.000 HD
ENDBRANCH  10  13
ENDBRANCH   5   7
BRANCH   1  16
ATOM     16  C   UNL     1      43.841   3.429  11.169  0.00  0.00    +0.000 C 
BRANCH  16  17
ATOM     17  O   UNL     1      43.771   4.049   9.880  0.00  0.00    +0.000 OA
BRANCH  17  21
ATOM     18  C   UNL     1      46.644   2.506   7.358  0.00  0.00    +0.000 A 
ATOM     19  C   UNL     1      45.954   1.651   8.214  0.00  0.00    +0.000 A 
ATOM     20  C   UNL     1      44.976   2.175   9.066  0.00  0.00    +0.000 A 
ATOM     21  C   UNL     1      44.731   3.539   9.027  0.00  0.00    +0.000 A 
ATOM     22  N   UNL     1      45.390   4.384   8.202  0.00  0.00    +0.000 NA
ATOM     23  C   UNL     1      46.329   3.854   7.388  0.00  0.00    +0.000 A 
BRANCH  18  25
ATOM     24  N   UNL     1      48.480   1.630   5.755  0.00  0.00    +0.000 NA
ATOM     25  C   UNL     1      47.658   2.030   6.469  0.00  0.00    +0.000 C 
ENDBRANCH  18  25
ENDBRANCH  17  21
ENDBRANCH  16  17
ENDBRANCH   1  16
TORSDOF 6
ENDMDL
MODEL 2
REMARK VINA RESULT:    -7.841      1.374      1.746
REMARK INTER + INTRA:         -11.039
REMARK INTER:                 -10.269
REMARK INTRA:                  -0.770
REMARK UNBOUND:                -0.677
REMARK  Name = 
REMARK  6 active torsions:
REMARK  status: ('A' for Active; 'I' for Inactive)
REMARK    1  A    between atoms: C_2  and  C_3
REMARK    2  A    between atoms: C_6  and  O_7
REMARK    3  A    between atoms: O_7  and  C_8
REMARK    4  A    between atoms: C_8  and  C_9
REMARK    5  A    between atoms: C_13  and  N_14
REMARK    6  A    between atoms: C_17  and  N_18
REMARK                            x       y       z     vdW  Elec       q    Type
REMARK                         _______ _______ _______ _____ _____    ______ ____
ROOT
ATOM      1  C   UNL     1      44.975   5.176  11.732  0.00  0.00    +0.000 A 
ATOM      2  C   UNL     1      44.779   4.249  12.744  0.00  0.00    +0.000 A 
ATOM      3  N   UNL     1      45.608   4.096  13.798  0.00  0.00    +0.000 NA
ATOM      4  C   UNL     1      46.702   4.900  13.832  0.00  0.00    +0.000 A 
ATOM      5  C   UNL     1      47.037   5.847  12.863  0.00  0.00    +0.000 A 
ATOM      6  C   UNL     1      46.111   5.987  11.818  0.00  0.00    +0.000 A 
ENDROOT
BRANCH   5   7
ATOM      7  N   UNL     1      48.184   6.642  12.875  0.00  0.00    +0.000 N 
ATOM      8  C   UNL     1      48.466   7.527  11.737  0.00  0.00    +0.000 C 
ATOM      9  C   UNL     1      49.958   7.874  11.739  0.00  0.00    +0.000 C 
ATOM     10  C   UNL     1      50.444   8.429  13.087  0.00  0.00    +0.000 C 
ATOM     11  C   UNL     1      50.007   7.508  14.230  0.00  0.00    +0.000 C 
ATOM     12  C   UNL     1      48.509   7.228  14.188  0.00  0.00    +0.000 C 
BRANCH  10  13
ATOM     13  N   UNL     1      49.985   9.801  13.319  0.00  0.00    +0.000 NA
ATOM     14  H   UNL     1      50.769  10.445  13.367  0.00  0.00    +0.000 HD
ATOM     15  H   UNL     1      49.515   9.859  14.225  0.00  0.00    +0.000 HD
ENDBRANCH  10  13
ENDBRANCH   5   7
BRANCH   1  16
ATOM     16  C   UNL     1      44.030   5.271  10.569  0.00  0.00    +0.000 C 
BRANCH  16  17
ATOM     17  O   UNL     1      43.671   3.970  10.088  0.00  0.00    +0.000 OA
BRANCH  17  21
ATOM     18  C   UNL     1      46.534   2.477   7.524  0.00  0.00    +0.000 A 
ATOM     19  C   UNL     1      45.946   1.630   8.461  0.00  0.00    +0.000 A 
ATOM     20  C   UNL     1      44.971   2.137   9.327  0.00  0.00    +0.000 A 
ATOM     21  C   UNL     1      44.627   3.476   9.220  0.00  0.00    +0.000 A 
ATOM     22  N   UNL     1      45.187   4.312   8.317  0.00  0.00    +0.000 NA
ATOM     23  C   UNL     1      46.125   3.799   7.491  0.00  0.00    +0.000 A 
BRANCH  18  25
ATOM     24  N   UNL     1      48.351   1.659   5.870  0.00  0.00    +0.000 NA
ATOM     25  C   UNL     1      47.539   2.018   6.617  0.00  0.00    +0.000 C 
ENDBRANCH  18  25
ENDBRANCH  17  21
ENDBRANCH  16  17
ENDBRANCH   1  16
TORSDOF 6
ENDMDL
MODEL 3
REMARK VINA RESULT:    -7.824      2.006      3.703
REMARK INTER + INTRA:         -11.017
REMARK INTER:                 -10.404
REMARK INTRA:                  -0.613
REMARK UNBOUND:                -0.677
REMARK  Name = 
REMARK  6 active torsions:
REMARK  status: ('A' for Active; 'I' for Inactive)
REMARK    1  A    between atoms: C_2  and  C_3
REMARK    2  A    between atoms: C_6  and  O_7
REMARK    3  A    between atoms: O_7  and  C_8
REMARK    4  A    between atoms: C_8  and  C_9
REMARK    5  A    between atoms: C_13  and  N_14
REMARK    6  A    between atoms: C_17  and  N_18
REMARK                            x       y       z     vdW  Elec       q    Type
REMARK                         _______ _______ _______ _____ _____    ______ ____
ROOT
ATOM      1  C   UNL     1      45.045   4.716  12.048  0.00  0.00    +0.000 A 
ATOM      2  C   UNL     1      45.256   5.997  11.561  0.00  0.00    +0.000 A 
ATOM      3  N   UNL     1      46.095   6.890  12.127  0.00  0.00    +0.000 NA
ATOM      4  C   UNL     1      46.743   6.488  13.251  0.00  0.00    +0.000 A 
ATOM      5  C   UNL     1      46.595   5.245  13.865  0.00  0.00    +0.000 A 
ATOM      6  C   UNL     1      45.744   4.347  13.203  0.00  0.00    +0.000 A 
ENDROOT
BRANCH   5   7
ATOM      7  N   UNL     1      47.226   4.847  15.044  0.00  0.00    +0.000 N 
ATOM      8  C   UNL     1      47.515   3.425  15.271  0.00  0.00    +0.000 C 
ATOM      9  C   UNL     1      47.711   3.194  16.773  0.00  0.00    +0.000 C 
ATOM     10  C   UNL     1      48.750   4.140  17.395  0.00  0.00    +0.000 C 
ATOM     11  C   UNL     1      48.444   5.591  17.013  0.00  0.00    +0.000 C 
ATOM     12  C   UNL     1      48.291   5.757  15.506  0.00  0.00    +0.000 C 
BRANCH  10  13
ATOM     13  N   UNL     1      50.120   3.781  17.021  0.00  0.00    +0.000 NA
ATOM     14  H   UNL     1      50.790   4.440  17.409  0.00  0.00    +0.000 HD
ATOM     15  H   UNL     1      50.226   3.835  16.006  0.00  0.00    +0.000 HD
ENDBRANCH  10  13
ENDBRANCH   5   7
BRANCH   1  16
ATOM     16  C   UNL     1      44.071   3.783  11.389  0.00  0.00    +0.000 C 
BRANCH  16  17
ATOM     17  O   UNL     1      43.816   4.175  10.035  0.00  0.00    +0.000 OA
BRANCH  17  21
ATOM     18  C   UNL     1      46.591   2.508   7.481  0.00  0.00    +0.000 A 
ATOM     19  C   UNL     1      45.921   1.693   8.390  0.00  0.00    +0.000 A 
ATOM     20  C   UNL     1      44.976   2.259   9.253  0.00  0.00    +0.000 A 
ATOM     21  C   UNL     1      44.743   3.623   9.171  0.00  0.00    +0.000 A 
ATOM     22  N   UNL     1      45.384   4.430   8.295  0.00  0.00    +0.000 NA
ATOM     23  C   UNL     1      46.291   3.860   7.472  0.00  0.00    +0.000 A 
BRANCH  18  25
ATOM     24  N   UNL     1      48.365   1.581   5.838  0.00  0.00    +0.000 NA
ATOM     25  C   UNL     1      47.571   1.989   6.579  0.00  0.00    +0.000 C 
ENDBRANCH  18  25
ENDBRANCH  17  21
ENDBRANCH  16  17
ENDBRANCH   1  16
TORSDOF 6
ENDMDL
MODEL 4
REMARK VINA RESULT:    -7.239      1.617      2.522
REMARK INTER + INTRA:         -10.244
REMARK INTER:                  -9.567
REMARK INTRA:                  -0.677
REMARK UNBOUND:                -0.677
REMARK  Name = 
REMARK  6 active torsions:
REMARK  status: ('A' for Active; 'I' for Inactive)
REMARK    1  A    between atoms: C_2  and  C_3
REMARK    2  A    between atoms: C_6  and  O_7
REMARK    3  A    between atoms: O_7  and  C_8
REMARK    4  A    between atoms: C_8  and  C_9
REMARK    5  A    between atoms: C_13  and  N_14
REMARK    6  A    between atoms: C_17  and  N_18
REMARK                            x       y       z     vdW  Elec       q    Type
REMARK                         _______ _______ _______ _____ _____    ______ ____
ROOT
ATOM      1  C   UNL     1      44.457   5.097  11.603  0.00  0.00    +0.000 A 
ATOM      2  C   UNL     1      43.548   6.076  11.233  0.00  0.00    +0.000 A 
ATOM      3  N   UNL     1      43.766   7.400  11.374  0.00  0.00    +0.000 NA
ATOM      4  C   UNL     1      44.948   7.765  11.934  0.00  0.00    +0.000 A 
ATOM      5  C   UNL     1      45.932   6.884  12.384  0.00  0.00    +0.000 A 
ATOM      6  C   UNL     1      45.663   5.524  12.167  0.00  0.00    +0.000 A 
ENDROOT
BRANCH   5   7
ATOM      7  N   UNL     1      47.128   7.257  13.001  0.00  0.00    +0.000 N 
ATOM      8  C   UNL     1      47.972   6.232  13.629  0.00  0.00    +0.000 C 
ATOM      9  C   UNL     1      48.901   6.909  14.641  0.00  0.00    +0.000 C 
ATOM     10  C   UNL     1      49.696   8.078  14.038  0.00  0.00    +0.000 C 
ATOM     11  C   UNL     1      48.756   9.037  13.302  0.00  0.00    +0.000 C 
ATOM     12  C   UNL     1      47.883   8.305  12.289  0.00  0.00    +0.000 C 
BRANCH  10  13
ATOM     13  N   UNL     1      50.770   7.619  13.153  0.00  0.00    +0.000 NA
ATOM     14  H   UNL     1      51.514   8.309  13.093  0.00  0.00    +0.000 HD
ATOM     15  H   UNL     1      50.410   7.509  12.202  0.00  0.00    +0.000 HD
ENDBRANCH  10  13
ENDBRANCH   5   7
BRANCH   1  16
ATOM     16  C   UNL     1      44.136   3.638  11.449  0.00  0.00    +0.000 C 
BRANCH  16  17
ATOM     17  O   UNL     1      43.589   3.364  10.154  0.00  0.00    +0.000 OA
BRANCH  17  21
ATOM     18  C   UNL     1      46.538   2.409   7.436  0.00  0.00    +0.000 A 
ATOM     19  C   UNL     1      46.050   3.713   7.485  0.00  0.00    +0.000 A 
ATOM     20  C   UNL     1      45.053   4.036   8.412  0.00  0.00    +0.000 A 
ATOM     21  C   UNL     1      44.583   3.037   9.250  0.00  0.00    +0.000 A 
ATOM     22  N   UNL     1      45.046   1.767   9.216  0.00  0.00    +0.000 NA
ATOM     23  C   UNL     1      46.009   1.479   8.314  0.00  0.00    +0.000 A 
BRANCH  18  25
ATOM     24  N   UNL     1      48.363   1.696   5.742  0.00  0.00    +0.000 NA
ATOM     25  C   UNL     1      47.552   2.017   6.507  0.00  0.00    +0.000 C 
ENDBRANCH  18  25
ENDBRANCH  17  21
ENDBRANCH  16  17
ENDBRANCH   1  16
TORSDOF 6
ENDMDL
MODEL 5
REMARK VINA RESULT:    -6.437      4.052      7.654
REMARK INTER + INTRA:          -9.184
REMARK INTER:                  -8.430
REMARK INTRA:                  -0.754
REMARK UNBOUND:                -0.677
REMARK  Name = 
REMARK  6 active torsions:
REMARK  status: ('A' for Active; 'I' for Inactive)
REMARK    1  A    between atoms: C_2  and  C_3
REMARK    2  A    between atoms: C_6  and  O_7
REMARK    3  A    between atoms: O_7  and  C_8
REMARK    4  A    between atoms: C_8  and  C_9
REMARK    5  A    between atoms: C_13  and  N_14
REMARK    6  A    between atoms: C_17  and  N_18
REMARK                            x       y       z     vdW  Elec       q    Type
REMARK                         _______ _______ _______ _____ _____    ______ ____
ROOT
ATOM      1  C   UNL     1      48.259   6.620  14.213  0.00  0.00    +0.000 A 
ATOM      2  C   UNL     1      48.992   7.297  13.251  0.00  0.00    +0.000 A 
ATOM      3  N   UNL     1      48.607   7.429  11.964  0.00  0.00    +0.000 NA
ATOM      4  C   UNL     1      47.436   6.836  11.616  0.00  0.00    +0.000 A 
ATOM      5  C   UNL     1      46.622   6.096  12.474  0.00  0.00    +0.000 A 
ATOM      6  C   UNL     1      47.055   6.035  13.806  0.00  0.00    +0.000 A 
ENDROOT
BRANCH   5   7
ATOM      7  N   UNL     1      45.441   5.449  12.106  0.00  0.00    +0.000 N 
ATOM      8  C   UNL     1      45.283   4.949  10.734  0.00  0.00    +0.000 C 
ATOM      9  C   UNL     1      43.790   4.767  10.444  0.00  0.00    +0.000 C 
ATOM     10  C   UNL     1      43.073   3.910  11.499  0.00  0.00    +0.000 C 
ATOM     11  C   UNL     1      43.385   4.427  12.906  0.00  0.00    +0.000 C 
ATOM     12  C   UNL     1      44.886   4.556  13.139  0.00  0.00    +0.000 C 
BRANCH  10  13
ATOM     13  N   UNL     1      43.410   2.489  11.379  0.00  0.00    +0.000 NA
ATOM     14  H   UNL     1      42.602   1.945  11.086  0.00  0.00    +0.000 HD
ATOM     15  H   UNL     1      43.681   2.120  12.293  0.00  0.00    +0.000 HD
ENDBRANCH  10  13
ENDBRANCH   5   7
BRANCH   1  16
ATOM     16  C   UNL     1      48.763   6.481  15.621  0.00  0.00    +0.000 C 
BRANCH  16  17
ATOM     17  O   UNL     1      48.064   5.444  16.319  0.00  0.00    +0.000 OA
BRANCH  17  21
ATOM     18  C   UNL     1      50.576   2.342  17.353  0.00  0.00    +0.000 A 
ATOM     19  C   UNL     1      49.294   2.058  16.888  0.00  0.00    +0.000 A 
ATOM     20  C   UNL     1      48.445   3.112  16.533  0.00  0.00    +0.000 A 
ATOM     21  C   UNL     1      48.915   4.410  16.662  0.00  0.00    +0.000 A 
ATOM     22  N   UNL     1      50.156   4.703  17.111  0.00  0.00    +0.000 NA
ATOM     23  C   UNL     1      50.958   3.670  17.446  0.00  0.00    +0.000 A 
BRANCH  18  25
ATOM     24  N   UNL     1      52.239   0.481  18.044  0.00  0.00    +0.000 NA
ATOM     25  C   UNL     1      51.487   1.309  17.736  0.00  0.00    +0.000 C 
ENDBRANCH  18  25
ENDBRANCH  17  21
ENDBRANCH  16  17
ENDBRANCH   1  16
TORSDOF 6
ENDMDL
MODEL 6
REMARK VINA RESULT:    -6.350      2.598      7.485
REMARK INTER + INTRA:          -9.069
REMARK INTER:                  -8.381
REMARK INTRA:                  -0.688
REMARK UNBOUND:                -0.677
REMARK  Name = 
REMARK  6 active torsions:
REMARK  status: ('A' for Active; 'I' for Inactive)
REMARK    1  A    between atoms: C_2  and  C_3
REMARK    2  A    between atoms: C_6  and  O_7
REMARK    3  A    between atoms: O_7  and  C_8
REMARK    4  A    between atoms: C_8  and  C_9
REMARK    5  A    between atoms: C_13  and  N_14
REMARK    6  A    between atoms: C_17  and  N_18
REMARK                            x       y       z     vdW  Elec       q    Type
REMARK                         _______ _______ _______ _____ _____    ______ ____
ROOT
ATOM      1  C   UNL     1      44.600   3.725  11.710  0.00  0.00    +0.000 A 
ATOM      2  C   UNL     1      43.609   4.665  11.475  0.00  0.00    +0.000 A 
ATOM      3  N   UNL     1      43.230   5.071  10.245  0.00  0.00    +0.000 NA
ATOM      4  C   UNL     1      43.891   4.521   9.193  0.00  0.00    +0.000 A 
ATOM      5  C   UNL     1      44.929   3.594   9.290  0.00  0.00    +0.000 A 
ATOM      6  C   UNL     1      45.244   3.181  10.593  0.00  0.00    +0.000 A 
ENDROOT
BRANCH   5   7
ATOM      7  N   UNL     1      45.639   3.063   8.212  0.00  0.00    +0.000 N 
ATOM      8  C   UNL     1      46.432   3.953   7.354  0.00  0.00    +0.000 C 
ATOM      9  C   UNL     1      46.670   3.259   6.009  0.00  0.00    +0.000 C 
ATOM     10  C   UNL     1      47.268   1.851   6.157  0.00  0.00    +0.000 C 
ATOM     11  C   UNL     1      46.450   1.028   7.156  0.00  0.00    +0.000 C 
ATOM     12  C   UNL     1      46.277   1.761   8.482  0.00  0.00    +0.000 C 
BRANCH  10  13
ATOM     13  N   UNL     1      48.680   1.888   6.543  0.00  0.00    +0.000 NA
ATOM     14  H   UNL     1      49.263   1.442   5.839  0.00  0.00    +0.000 HD
ATOM     15  H   UNL     1      48.816   1.353   7.403  0.00  0.00    +0.000 HD
ENDBRANCH  10  13
ENDBRANCH   5   7
BRANCH   1  16
ATOM     16  C   UNL     1      44.996   3.343  13.107  0.00  0.00    +0.000 C 
BRANCH  16  17
ATOM     17  O   UNL     1      46.407   3.111  13.199  0.00  0.00    +0.000 OA
BRANCH  17  21
ATOM     18  C   UNL     1      48.219   5.815  15.729  0.00  0.00    +0.000 A 
ATOM     19  C   UNL     1      47.928   6.192  14.420  0.00  0.00    +0.000 A 
ATOM     20  C   UNL     1      47.308   5.275  13.564  0.00  0.00    +0.000 A 
ATOM     21  C   UNL     1      47.008   4.014  14.056  0.00  0.00    +0.000 A 
ATOM     22  N   UNL     1      47.283   3.631  15.323  0.00  0.00    +0.000 NA
ATOM     23  C   UNL     1      47.881   4.534  16.131  0.00  0.00    +0.000 A 
BRANCH  18  25
ATOM     24  N   UNL     1      49.388   7.426  17.386  0.00  0.00    +0.000 NA
ATOM     25  C   UNL     1      48.856   6.705  16.648  0.00  0.00    +0.000 C 
ENDBRANCH  18  25
ENDBRANCH  17  21
ENDBRANCH  16  17
ENDBRANCH   1  16
TORSDOF 6
ENDMDL
MODEL 7
REMARK VINA RESULT:    -6.063      3.389      6.225
REMARK INTER + INTRA:          -8.690
REMARK INTER:                  -7.894
REMARK INTRA:                  -0.796
REMARK UNBOUND:                -0.677
REMARK  Name = 
REMARK  6 active torsions:
REMARK  status: ('A' for Active; 'I' for Inactive)
REMARK    1  A    between atoms: C_2  and  C_3
REMARK    2  A    between atoms: C_6  and  O_7
REMARK    3  A    between atoms: O_7  and  C_8
REMARK    4  A    between atoms: C_8  and  C_9
REMARK    5  A    between atoms: C_13  and  N_14
REMARK    6  A    between atoms: C_17  and  N_18
REMARK                            x       y       z     vdW  Elec       q    Type
REMARK                         _______ _______ _______ _____ _____    ______ ____
ROOT
ATOM      1  C   UNL     1      48.155   7.805  13.720  0.00  0.00    +0.000 A 
ATOM      2  C   UNL     1      48.380   8.987  14.408  0.00  0.00    +0.000 A 
ATOM      3  N   UNL     1      48.793   9.046  15.692  0.00  0.00    +0.000 NA
ATOM      4  C   UNL     1      48.972   7.860  16.328  0.00  0.00    +0.000 A 
ATOM      5  C   UNL     1      48.748   6.603  15.766  0.00  0.00    +0.000 A 
ATOM      6  C   UNL     1      48.363   6.610  14.417  0.00  0.00    +0.000 A 
ENDROOT
BRANCH   5   7
ATOM      7  N   UNL     1      48.888   5.385  16.433  0.00  0.00    +0.000 N 
ATOM      8  C   UNL     1      49.909   5.242  17.479  0.00  0.00    +0.000 C 
ATOM      9  C   UNL     1      50.210   3.753  17.676  0.00  0.00    +0.000 C 
ATOM     10  C   UNL     1      48.948   2.913  17.927  0.00  0.00    +0.000 C 
ATOM     11  C   UNL     1      47.891   3.209  16.859  0.00  0.00    +0.000 C 
ATOM     12  C   UNL     1      47.616   4.703  16.736  0.00  0.00    +0.000 C 
BRANCH  10  13
ATOM     13  N   UNL     1      48.403   3.121  19.271  0.00  0.00    +0.000 NA
ATOM     14  H   UNL     1      47.841   2.326  19.565  0.00  0.00    +0.000 HD
ATOM     15  H   UNL     1      47.774   3.926  19.268  0.00  0.00    +0.000 HD
ENDBRANCH  10  13
ENDBRANCH   5   7
BRANCH   1  16
ATOM     16  C   UNL     1      47.663   7.811  12.301  0.00  0.00    +0.000 C 
BRANCH  16  17
ATOM     17  O   UNL     1      46.243   7.986  12.249  0.00  0.00    +0.000 OA
BRANCH  17  21
ATOM     18  C   UNL     1      44.304   4.378  11.778  0.00  0.00    +0.000 A 
ATOM     19  C   UNL     1      45.190   4.812  10.795  0.00  0.00    +0.000 A 
ATOM     20  C   UNL     1      45.851   6.034  10.959  0.00  0.00    +0.000 A 
ATOM     21  C   UNL     1      45.593   6.775  12.102  0.00  0.00    +0.000 A 
ATOM     22  N   UNL     1      44.737   6.369  13.066  0.00  0.00    +0.000 NA
ATOM     23  C   UNL     1      44.111   5.186  12.886  0.00  0.00    +0.000 A 
BRANCH  18  25
ATOM     24  N   UNL     1      43.019   2.140  11.556  0.00  0.00    +0.000 NA
ATOM     25  C   UNL     1      43.594   3.142  11.665  0.00  0.00    +0.000 C 
ENDBRANCH  18  25
ENDBRANCH  17  21
ENDBRANCH  16  17
ENDBRANCH   1  16
TORSDOF 6
ENDMDL
MODEL 8
REMARK VINA RESULT:    -5.945      3.215      4.691
REMARK INTER + INTRA:          -8.534
REMARK INTER:                  -8.044
REMARK INTRA:                  -0.490
REMARK UNBOUND:                -0.677
REMARK  Name = 
REMARK  6 active torsions:
REMARK  status: ('A' for Active; 'I' for Inactive)
REMARK    1  A    between atoms: C_2  and  C_3
REMARK    2  A    between atoms: C_6  and  O_7
REMARK    3  A    between atoms: O_7  and  C_8
REMARK    4  A    between atoms: C_8  and  C_9
REMARK    5  A    between atoms: C_13  and  N_14
REMARK    6  A    between atoms: C_17  and  N_18
REMARK                            x       y       z     vdW  Elec       q    Type
REMARK                         _______ _______ _______ _____ _____    ______ ____
ROOT
ATOM      1  C   UNL     1      46.429   5.049  13.476  0.00  0.00    +0.000 A 
ATOM      2  C   UNL     1      46.765   6.278  12.931  0.00  0.00    +0.000 A 
ATOM      3  N   UNL     1      47.646   7.135  13.488  0.00  0.00    +0.000 NA
ATOM      4  C   UNL     1      48.205   6.752  14.665  0.00  0.00    +0.000 A 
ATOM      5  C   UNL     1      47.928   5.562  15.339  0.00  0.00    +0.000 A 
ATOM      6  C   UNL     1      47.039   4.696  14.684  0.00  0.00    +0.000 A 
ENDROOT
BRANCH   5   7
ATOM      7  N   UNL     1      48.468   5.188  16.570  0.00  0.00    +0.000 N 
ATOM      8  C   UNL     1      48.344   3.797  17.026  0.00  0.00    +0.000 C 
ATOM      9  C   UNL     1      48.530   3.756  18.546  0.00  0.00    +0.000 C 
ATOM     10  C   UNL     1      49.823   4.444  19.011  0.00  0.00    +0.000 C 
ATOM     11  C   UNL     1      49.931   5.843  18.398  0.00  0.00    +0.000 C 
ATOM     12  C   UNL     1      49.768   5.809  16.883  0.00  0.00    +0.000 C 
BRANCH  10  13
ATOM     13  N   UNL     1      51.014   3.648  18.707  0.00  0.00    +0.000 NA
ATOM     14  H   UNL     1      50.876   2.672  18.959  0.00  0.00    +0.000 HD
ATOM     15  H   UNL     1      51.801   3.976  19.270  0.00  0.00    +0.000 HD
ENDBRANCH  10  13
ENDBRANCH   5   7
BRANCH   1  16
ATOM     16  C   UNL     1      45.414   4.157  12.820  0.00  0.00    +0.000 C 
BRANCH  16  17
ATOM     17  O   UNL     1      44.710   4.852  11.784  0.00  0.00    +0.000 OA
BRANCH  17  21
ATOM     18  C   UNL     1      45.878   3.586   8.038  0.00  0.00    +0.000 A 
ATOM     19  C   UNL     1      46.043   4.924   8.390  0.00  0.00    +0.000 A 
ATOM     20  C   UNL     1      45.651   5.351   9.664  0.00  0.00    +0.000 A 
ATOM     21  C   UNL     1      45.105   4.418  10.532  0.00  0.00    +0.000 A 
ATOM     22  N   UNL     1      44.938   3.116  10.207  0.00  0.00    +0.000 NA
ATOM     23  C   UNL     1      45.324   2.728   8.972  0.00  0.00    +0.000 A 
BRANCH  18  25
ATOM     24  N   UNL     1      46.561   2.676   5.711  0.00  0.00    +0.000 NA
ATOM     25  C   UNL     1      46.253   3.092   6.750  0.00  0.00    +0.000 C 
ENDBRANCH  18  25
ENDBRANCH  17  21
ENDBRANCH  16  17
ENDBRANCH   1  16
TORSDOF 6
ENDMDL
MODEL 9
REMARK VINA RESULT:    -5.596      3.856      6.643
REMARK INTER + INTRA:          -8.073
REMARK INTER:                  -7.378
REMARK INTRA:                  -0.695
REMARK UNBOUND:                -0.677
REMARK  Name = 
REMARK  6 active torsions:
REMARK  status: ('A' for Active; 'I' for Inactive)
REMARK    1  A    between atoms: C_2  and  C_3
REMARK    2  A    between atoms: C_6  and  O_7
REMARK    3  A    between atoms: O_7  and  C_8
REMARK    4  A    between atoms: C_8  and  C_9
REMARK    5  A    between atoms: C_13  and  N_14
REMARK    6  A    between atoms: C_17  and  N_18
REMARK                            x       y       z     vdW  Elec       q    Type
REMARK                         _______ _______ _______ _____ _____    ______ ____
ROOT
ATOM      1  C   UNL     1      46.231   4.647  13.306  0.00  0.00    +0.000 A 
ATOM      2  C   UNL     1      44.953   4.333  12.868  0.00  0.00    +0.000 A 
ATOM      3  N   UNL     1      44.157   5.187  12.190  0.00  0.00    +0.000 NA
ATOM      4  C   UNL     1      44.657   6.428  11.956  0.00  0.00    +0.000 A 
ATOM      5  C   UNL     1      45.908   6.884  12.372  0.00  0.00    +0.000 A 
ATOM      6  C   UNL     1      46.703   5.934  13.031  0.00  0.00    +0.000 A 
ENDROOT
BRANCH   5   7
ATOM      7  N   UNL     1      46.405   8.173  12.171  0.00  0.00    +0.000 N 
ATOM      8  C   UNL     1      45.557   9.334  12.473  0.00  0.00    +0.000 C 
ATOM      9  C   UNL     1      46.096  10.549  11.712  0.00  0.00    +0.000 C 
ATOM     10  C   UNL     1      47.592  10.798  11.959  0.00  0.00    +0.000 C 
ATOM     11  C   UNL     1      48.389   9.509  11.737  0.00  0.00    +0.000 C 
ATOM     12  C   UNL     1      47.820   8.348  12.544  0.00  0.00    +0.000 C 
BRANCH  10  13
ATOM     13  N   UNL     1      47.849  11.347  13.292  0.00  0.00    +0.000 NA
ATOM     14  H   UNL     1      48.786  11.737  13.352  0.00  0.00    +0.000 HD
ATOM     15  H   UNL     1      47.811  10.597  13.987  0.00  0.00    +0.000 HD
ENDBRANCH  10  13
ENDBRANCH   5   7
BRANCH   1  16
ATOM     16  C   UNL     1      47.051   3.659  14.085  0.00  0.00    +0.000 C 
BRANCH  16  17
ATOM     17  O   UNL     1      46.775   3.751  15.487  0.00  0.00    +0.000 OA
BRANCH  17  21
ATOM     18  C   UNL     1      50.265   3.866  17.679  0.00  0.00    +0.000 A 
ATOM     19  C   UNL     1      49.568   5.048  17.440  0.00  0.00    +0.000 A 
ATOM     20  C   UNL     1      48.381   5.006  16.700  0.00  0.00    +0.000 A 
ATOM     21  C   UNL     1      47.943   3.779  16.226  0.00  0.00    +0.000 A 
ATOM     22  N   UNL     1      48.606   2.623  16.449  0.00  0.00    +0.000 NA
ATOM     23  C   UNL     1      49.749   2.688  17.166  0.00  0.00    +0.000 A 
BRANCH  18  25
ATOM     24  N   UNL     1      52.480   3.844  19.022  0.00  0.00    +0.000 NA
ATOM     25  C   UNL     1      51.486   3.845  18.422  0.00  0.00    +0.000 C 
ENDBRANCH  18  25
ENDBRANCH  17  21
ENDBRANCH  16  17
ENDBRANCH   1  16
TORSDOF 6
ENDMDL
