MODEL 1
REMARK VINA RESULT:    -8.333      0.000      0.000
REMARK INTER + INTRA:         -11.925
REMARK INTER:                 -11.012
REMARK INTRA:                  -0.913
REMARK UNBOUND:                -0.913
REMARK  Name = 
REMARK  6 active torsions:
REMARK  status: ('A' for Active; 'I' for Inactive)
REMARK    1  A    between atoms: N_1  and  C_2
REMARK    2  A    between atoms: C_2  and  C_3
REMARK    3  A    between atoms: C_3  and  C_4
REMARK    4  A    between atoms: C_8  and  C_9
REMARK    5  A    between atoms: C_9  and  N_10
REMARK    6  A    between atoms: C_15  and  C_16
REMARK                            x       y       z     vdW  Elec       q    Type
REMARK                         _______ _______ _______ _____ _____    ______ ____
ROOT
ATOM      1  N   UNL     1      43.697   4.372  10.451  0.00  0.00    +0.000 N 
ATOM      2  N   UNL     1      43.079   3.315  11.035  0.00  0.00    +0.000 NA
ATOM      3  N   UNL     1      43.693   2.215  10.621  0.00  0.00    +0.000 NA
ATOM      4  C   UNL     1      44.577   2.566   9.642  0.00  0.00    +0.000 A 
ATOM      5  C   UNL     1      45.507   1.794   8.934  0.00  0.00    +0.000 A 
ATOM      6  C   UNL     1      46.265   2.400   7.920  0.00  0.00    +0.000 A 
ATOM      7  C   UNL     1      46.065   3.757   7.613  0.00  0.00    +0.000 A 
ATOM      8  C   UNL     1      45.186   4.563   8.364  0.00  0.00    +0.000 A 
ATOM      9  C   UNL     1      44.485   3.932   9.398  0.00  0.00    +0.000 A 
ENDROOT
BRANCH   6  10
ATOM     10  C   UNL     1      47.282   1.539   7.242  0.00  0.00    +0.000 C 
ATOM     11  N   UNL     1      48.343   2.131   6.615  0.00  0.00    +0.000 N 
ATOM     12  O   UNL     1      47.188   0.319   7.248  0.00  0.00    +0.000 OA
ATOM     13  H   UNL     1      48.499   3.118   6.525  0.00  0.00    +0.000 HD
ATOM     14  H   UNL     1      49.005   1.502   6.174  0.00  0.00    +0.000 HD
ENDBRANCH   6  10
BRANCH   1  15
ATOM     15  C   UNL     1      44.045   5.482  11.335  0.00  0.00    +0.000 C 
BRANCH  15  20
ATOM     16  C   UNL     1      47.575   6.671  12.150  0.00  0.00    +0.000 A 
ATOM     17  C   UNL     1      47.870   5.869  13.260  0.00  0.00    +0.000 A 
ATOM     18  C   UNL     1      46.971   4.888  13.678  0.00  0.00    +0.000 A 
ATOM     19  C   UNL     1      45.765   4.711  13.000  0.00  0.00    +0.000 A 
ATOM     20  C   UNL     1      45.446   5.505  11.885  0.00  0.00    +0.000 A 
ATOM     21  C   UNL     1      46.375   6.465  11.451  0.00  0.00    +0.000 A 
BRANCH  16  22
ATOM     22  C   UNL     1      48.507   7.787  11.739  0.00  0.00    +0.000 C 
BRANCH  22  23
ATOM     23  C   UNL     1      49.878   7.687  12.410  0.00  0.00    +0.000 C 
BRANCH  23  24
ATOM     24  N   UNL     1      50.909   7.342  11.431  0.00  0.00    +0.000 NA
ATOM     25  H   UNL     1      50.485   7.267  10.507  0.00  0.00    +0.000 HD
ATOM     26  H   UNL     1      51.300   6.426  11.645  0.00  0.00    +0.000 HD
ENDBRANCH  23  24
ENDBRANCH  22  23
ENDBRANCH  16  22
ENDBRANCH  15  20
ENDBRANCH   1  15
TORSDOF 6
ENDMDL
MODEL 2
REMARK VINA RESULT:    -7.545      2.000      2.867
REMARK INTER + INTRA:         -10.884
REMARK INTER:                 -10.354
REMARK INTRA:                  -0.530
REMARK UNBOUND:                -0.913
REMARK  Name = 
REMARK  6 active torsions:
REMARK  status: ('A' for Active; 'I' for Inactive)
REMARK    1  A    between atoms: N_1  and  C_2
REMARK    2  A    between atoms: C_2  and  C_3
REMARK    3  A    between atoms: C_3  and  C_4
REMARK    4  A    between atoms: C_8  and  C_9
REMARK    5  A    between atoms: C_9  and  N_10
REMARK    6  A    between atoms: C_15  and  C_16
REMARK                            x       y       z     vdW  Elec       q    Type
REMARK                         _______ _______ _______ _____ _____    ______ ____
ROOT
ATOM      1  N   UNL     1      44.082   4.102  10.842  0.00  0.00    +0.000 N 
ATOM      2  N   UNL     1      43.303   3.011  11.050  0.00  0.00    +0.000 NA
ATOM      3  N   UNL     1      43.778   2.030  10.297  0.00  0.00    +0.000 NA
ATOM      4  C   UNL     1      44.743   2.550   9.483  0.00  0.00    +0.000 A 
ATOM      5  C   UNL     1      45.588   1.926   8.557  0.00  0.00    +0.000 A 
ATOM      6  C   UNL     1      46.465   2.713   7.794  0.00  0.00    +0.000 A 
ATOM      7  C   UNL     1      46.463   4.111   7.949  0.00  0.00    +0.000 A 
ATOM      8  C   UNL     1      45.670   4.745   8.926  0.00  0.00    +0.000 A 
ATOM      9  C   UNL     1      44.848   3.920   9.699  0.00  0.00    +0.000 A 
ENDROOT
BRANCH   6  10
ATOM     10  C   UNL     1      47.382   1.984   6.867  0.00  0.00    +0.000 C 
ATOM     11  N   UNL     1      48.483   2.629   6.377  0.00  0.00    +0.000 N 
ATOM     12  O   UNL     1      47.174   0.821   6.550  0.00  0.00    +0.000 OA
ATOM     13  H   UNL     1      48.731   3.586   6.549  0.00  0.00    +0.000 HD
ATOM     14  H   UNL     1      49.075   2.089   5.756  0.00  0.00    +0.000 HD
ENDBRANCH   6  10
BRANCH   1  15
ATOM     15  C   UNL     1      44.540   4.804  12.039  0.00  0.00    +0.000 C 
BRANCH  15  20
ATOM     16  C   UNL     1      45.250   8.531  11.669  0.00  0.00    +0.000 A 
ATOM     17  C   UNL     1      46.622   8.564  11.950  0.00  0.00    +0.000 A 
ATOM     18  C   UNL     1      47.325   7.379  12.161  0.00  0.00    +0.000 A 
ATOM     19  C   UNL     1      46.661   6.153  12.109  0.00  0.00    +0.000 A 
ATOM     20  C   UNL     1      45.285   6.095  11.832  0.00  0.00    +0.000 A 
ATOM     21  C   UNL     1      44.594   7.292  11.584  0.00  0.00    +0.000 A 
BRANCH  16  22
ATOM     22  C   UNL     1      44.466   9.813  11.515  0.00  0.00    +0.000 C 
BRANCH  22  23
ATOM     23  C   UNL     1      43.218   9.641  10.645  0.00  0.00    +0.000 C 
BRANCH  23  24
ATOM     24  N   UNL     1      43.454  10.157   9.296  0.00  0.00    +0.000 NA
ATOM     25  H   UNL     1      42.801   9.716   8.648  0.00  0.00    +0.000 HD
ATOM     26  H   UNL     1      44.389   9.899   8.984  0.00  0.00    +0.000 HD
ENDBRANCH  23  24
ENDBRANCH  22  23
ENDBRANCH  16  22
ENDBRANCH  15  20
ENDBRANCH   1  15
TORSDOF 6
ENDMDL
MODEL 3
REMARK VINA RESULT:    -7.474      2.547      6.164
REMARK INTER + INTRA:         -10.790
REMARK INTER:                 -10.170
REMARK INTRA:                  -0.620
REMARK UNBOUND:                -0.913
REMARK  Name = 
REMARK  6 active torsions:
REMARK  status: ('A' for Active; 'I' for Inactive)
REMARK    1  A    between atoms: N_1  and  C_2
REMARK    2  A    between atoms: C_2  and  C_3
REMARK    3  A    between atoms: C_3  and  C_4
REMARK    4  A    between atoms: C_8  and  C_9
REMARK    5  A    between atoms: C_9  and  N_10
REMARK    6  A    between atoms: C_15  and  C_16
REMARK                            x       y       z     vdW  Elec       q    Type
REMARK                         _______ _______ _______ _____ _____    ______ ____
ROOT
ATOM      1  N   UNL     1      43.771   3.695  12.143  0.00  0.00    +0.000 N 
ATOM      2  N   UNL     1      42.803   4.641  12.239  0.00  0.00    +0.000 NA
ATOM      3  N   UNL     1      43.386   5.774  12.602  0.00  0.00    +0.000 NA
ATOM      4  C   UNL     1      44.688   5.501  12.909  0.00  0.00    +0.000 A 
ATOM      5  C   UNL     1      45.735   6.354  13.279  0.00  0.00    +0.000 A 
ATOM      6  C   UNL     1      46.984   5.801  13.602  0.00  0.00    +0.000 A 
ATOM      7  C   UNL     1      47.159   4.406  13.576  0.00  0.00    +0.000 A 
ATOM      8  C   UNL     1      46.136   3.541  13.137  0.00  0.00    +0.000 A 
ATOM      9  C   UNL     1      44.923   4.137  12.777  0.00  0.00    +0.000 A 
ENDROOT
BRANCH   6  10
ATOM     10  C   UNL     1      48.077   6.765  13.932  0.00  0.00    +0.000 C 
ATOM     11  N   UNL     1      47.803   7.829  14.745  0.00  0.00    +0.000 N 
ATOM     12  O   UNL     1      49.211   6.614  13.498  0.00  0.00    +0.000 OA
ATOM     13  H   UNL     1      46.906   8.062  15.129  0.00  0.00    +0.000 HD
ATOM     14  H   UNL     1      48.580   8.451  14.940  0.00  0.00    +0.000 HD
ENDBRANCH   6  10
BRANCH   1  15
ATOM     15  C   UNL     1      43.756   2.880  10.930  0.00  0.00    +0.000 C 
BRANCH  15  20
ATOM     16  C   UNL     1      46.169   2.437   8.012  0.00  0.00    +0.000 A 
ATOM     17  C   UNL     1      46.347   3.770   7.617  0.00  0.00    +0.000 A 
ATOM     18  C   UNL     1      45.767   4.804   8.350  0.00  0.00    +0.000 A 
ATOM     19  C   UNL     1      44.992   4.515   9.473  0.00  0.00    +0.000 A 
ATOM     20  C   UNL     1      44.797   3.187   9.888  0.00  0.00    +0.000 A 
ATOM     21  C   UNL     1      45.417   2.155   9.163  0.00  0.00    +0.000 A 
BRANCH  16  22
ATOM     22  C   UNL     1      46.729   1.308   7.180  0.00  0.00    +0.000 C 
BRANCH  22  23
ATOM     23  C   UNL     1      47.151   1.760   5.780  0.00  0.00    +0.000 C 
BRANCH  23  24
ATOM     24  N   UNL     1      48.608   1.833   5.678  0.00  0.00    +0.000 NA
ATOM     25  H   UNL     1      48.868   2.071   4.721  0.00  0.00    +0.000 HD
ATOM     26  H   UNL     1      49.017   0.920   5.870  0.00  0.00    +0.000 HD
ENDBRANCH  23  24
ENDBRANCH  22  23
ENDBRANCH  16  22
ENDBRANCH  15  20
ENDBRANCH   1  15
TORSDOF 6
ENDMDL
MODEL 4
REMARK VINA RESULT:    -7.149      1.662      2.445
REMARK INTER + INTRA:         -10.360
REMARK INTER:                 -10.097
REMARK INTRA:                  -0.263
REMARK UNBOUND:                -0.913
REMARK  Name = 
REMARK  6 active torsions:
REMARK  status: ('A' for Active; 'I' for Inactive)
REMARK    1  A    between atoms: N_1  and  C_2
REMARK    2  A    between atoms: C_2  and  C_3
REMARK    3  A    between atoms: C_3  and  C_4
REMARK    4  A    between atoms: C_8  and  C_9
REMARK    5  A    between atoms: C_9  and  N_10
REMARK    6  A    between atoms: C_15  and  C_16
REMARK                            x       y       z     vdW  Elec       q    Type
REMARK                         _______ _______ _______ _____ _____    ______ ____
ROOT
ATOM      1  N   UNL     1      43.458   4.572  10.546  0.00  0.00    +0.000 N 
ATOM      2  N   UNL     1      42.883   3.586  11.279  0.00  0.00    +0.000 NA
ATOM      3  N   UNL     1      43.509   2.455  10.990  0.00  0.00    +0.000 NA
ATOM      4  C   UNL     1      44.355   2.694   9.946  0.00  0.00    +0.000 A 
ATOM      5  C   UNL     1      45.282   1.856   9.312  0.00  0.00    +0.000 A 
ATOM      6  C   UNL     1      45.996   2.341   8.205  0.00  0.00    +0.000 A 
ATOM      7  C   UNL     1      45.755   3.644   7.734  0.00  0.00    +0.000 A 
ATOM      8  C   UNL     1      44.880   4.522   8.404  0.00  0.00    +0.000 A 
ATOM      9  C   UNL     1      44.225   4.016   9.532  0.00  0.00    +0.000 A 
ENDROOT
BRANCH   6  10
ATOM     10  C   UNL     1      47.011   1.420   7.610  0.00  0.00    +0.000 C 
ATOM     11  N   UNL     1      46.789   0.072   7.644  0.00  0.00    +0.000 N 
ATOM     12  O   UNL     1      48.028   1.850   7.083  0.00  0.00    +0.000 OA
ATOM     13  H   UNL     1      46.006  -0.385   8.075  0.00  0.00    +0.000 HD
ATOM     14  H   UNL     1      47.505  -0.507   7.223  0.00  0.00    +0.000 HD
ENDBRANCH   6  10
BRANCH   1  15
ATOM     15  C   UNL     1      43.807   5.793  11.269  0.00  0.00    +0.000 C 
BRANCH  15  20
ATOM     16  C   UNL     1      46.742   4.613  13.396  0.00  0.00    +0.000 A 
ATOM     17  C   UNL     1      47.729   5.530  13.008  0.00  0.00    +0.000 A 
ATOM     18  C   UNL     1      47.417   6.575  12.141  0.00  0.00    +0.000 A 
ATOM     19  C   UNL     1      46.120   6.704  11.641  0.00  0.00    +0.000 A 
ATOM     20  C   UNL     1      45.115   5.797  12.013  0.00  0.00    +0.000 A 
ATOM     21  C   UNL     1      45.432   4.769  12.916  0.00  0.00    +0.000 A 
BRANCH  16  22
ATOM     22  C   UNL     1      47.091   3.434  14.273  0.00  0.00    +0.000 C 
BRANCH  22  23
ATOM     23  C   UNL     1      47.599   3.856  15.654  0.00  0.00    +0.000 C 
BRANCH  23  24
ATOM     24  N   UNL     1      47.317   5.271  15.897  0.00  0.00    +0.000 NA
ATOM     25  H   UNL     1      46.567   5.352  16.583  0.00  0.00    +0.000 HD
ATOM     26  H   UNL     1      46.977   5.710  15.043  0.00  0.00    +0.000 HD
ENDBRANCH  23  24
ENDBRANCH  22  23
ENDBRANCH  16  22
ENDBRANCH  15  20
ENDBRANCH   1  15
TORSDOF 6
ENDMDL
MODEL 5
REMARK VINA RESULT:    -6.528      3.436      6.992
REMARK INTER + INTRA:          -9.540
REMARK INTER:                  -9.103
REMARK INTRA:                  -0.437
REMARK UNBOUND:                -0.913
REMARK  Name = 
REMARK  6 active torsions:
REMARK  status: ('A' for Active; 'I' for Inactive)
REMARK    1  A    between atoms: N_1  and  C_2
REMARK    2  A    between atoms: C_2  and  C_3
REMARK    3  A    between atoms: C_3  and  C_4
REMARK    4  A    between atoms: C_8  and  C_9
REMARK    5  A    between atoms: C_9  and  N_10
REMARK    6  A    between atoms: C_15  and  C_16
REMARK                            x       y       z     vdW  Elec       q    Type
REMARK                         _______ _______ _______ _____ _____    ______ ____
ROOT
ATOM      1  N   UNL     1      46.362   5.548  11.793  0.00  0.00    +0.000 N 
ATOM      2  N   UNL     1      46.158   4.776  12.890  0.00  0.00    +0.000 NA
ATOM      3  N   UNL     1      46.565   5.466  13.945  0.00  0.00    +0.000 NA
ATOM      4  C   UNL     1      47.190   6.594  13.499  0.00  0.00    +0.000 A 
ATOM      5  C   UNL     1      47.735   7.675  14.204  0.00  0.00    +0.000 A 
ATOM      6  C   UNL     1      48.384   8.696  13.494  0.00  0.00    +0.000 A 
ATOM      7  C   UNL     1      48.501   8.609  12.095  0.00  0.00    +0.000 A 
ATOM      8  C   UNL     1      47.896   7.566  11.366  0.00  0.00    +0.000 A 
ATOM      9  C   UNL     1      47.217   6.594  12.109  0.00  0.00    +0.000 A 
ENDROOT
BRANCH   6  10
ATOM     10  C   UNL     1      48.892   9.850  14.296  0.00  0.00    +0.000 C 
ATOM     11  N   UNL     1      48.347  10.097  15.525  0.00  0.00    +0.000 N 
ATOM     12  O   UNL     1      49.792  10.567  13.881  0.00  0.00    +0.000 OA
ATOM     13  H   UNL     1      47.589   9.591  15.946  0.00  0.00    +0.000 HD
ATOM     14  H   UNL     1      48.730  10.888  16.030  0.00  0.00    +0.000 HD
ENDBRANCH   6  10
BRANCH   1  15
ATOM     15  C   UNL     1      45.242   5.650  10.859  0.00  0.00    +0.000 C 
BRANCH  15  20
ATOM     16  C   UNL     1      45.868   3.382   7.860  0.00  0.00    +0.000 A 
ATOM     17  C   UNL     1      45.166   2.234   8.250  0.00  0.00    +0.000 A 
ATOM     18  C   UNL     1      44.419   2.233   9.428  0.00  0.00    +0.000 A 
ATOM     19  C   UNL     1      44.381   3.372  10.232  0.00  0.00    +0.000 A 
ATOM     20  C   UNL     1      45.079   4.534   9.863  0.00  0.00    +0.000 A 
ATOM     21  C   UNL     1      45.798   4.536   8.656  0.00  0.00    +0.000 A 
BRANCH  16  22
ATOM     22  C   UNL     1      46.741   3.366   6.627  0.00  0.00    +0.000 C 
BRANCH  22  23
ATOM     23  C   UNL     1      47.943   2.430   6.767  0.00  0.00    +0.000 C 
BRANCH  23  24
ATOM     24  N   UNL     1      48.361   1.927   5.458  0.00  0.00    +0.000 NA
ATOM     25  H   UNL     1      48.592   0.937   5.536  0.00  0.00    +0.000 HD
ATOM     26  H   UNL     1      49.213   2.400   5.160  0.00  0.00    +0.000 HD
ENDBRANCH  23  24
ENDBRANCH  22  23
ENDBRANCH  16  22
ENDBRANCH  15  20
ENDBRANCH   1  15
TORSDOF 6
ENDMDL
MODEL 6
REMARK VINA RESULT:    -6.241      3.646      6.299
REMARK INTER + INTRA:          -9.161
REMARK INTER:                  -8.494
REMARK INTRA:                  -0.667
REMARK UNBOUND:                -0.913
REMARK  Name = 
REMARK  6 active torsions:
REMARK  status: ('A' for Active; 'I' for Inactive)
REMARK    1  A    between atoms: N_1  and  C_2
REMARK    2  A    between atoms: C_2  and  C_3
REMARK    3  A    between atoms: C_3  and  C_4
REMARK    4  A    between atoms: C_8  and  C_9
REMARK    5  A    between atoms: C_9  and  N_10
REMARK    6  A    between atoms: C_15  and  C_16
REMARK                            x       y       z     vdW  Elec       q    Type
REMARK                         _______ _______ _______ _____ _____    ______ ____
ROOT
ATOM      1  N   UNL     1      48.381   6.706  13.569  0.00  0.00    +0.000 N 
ATOM      2  N   UNL     1      48.972   7.310  12.507  0.00  0.00    +0.000 NA
ATOM      3  N   UNL     1      48.076   7.372  11.532  0.00  0.00    +0.000 NA
ATOM      4  C   UNL     1      46.983   6.650  11.915  0.00  0.00    +0.000 A 
ATOM      5  C   UNL     1      45.750   6.457  11.280  0.00  0.00    +0.000 A 
ATOM      6  C   UNL     1      44.803   5.605  11.871  0.00  0.00    +0.000 A 
ATOM      7  C   UNL     1      45.114   4.941  13.071  0.00  0.00    +0.000 A 
ATOM      8  C   UNL     1      46.321   5.180  13.757  0.00  0.00    +0.000 A 
ATOM      9  C   UNL     1      47.216   6.074  13.159  0.00  0.00    +0.000 A 
ENDROOT
BRANCH   6  10
ATOM     10  C   UNL     1      43.485   5.487  11.176  0.00  0.00    +0.000 C 
ATOM     11  N   UNL     1      42.396   6.123  11.703  0.00  0.00    +0.000 N 
ATOM     12  O   UNL     1      43.366   4.843  10.142  0.00  0.00    +0.000 OA
ATOM     13  H   UNL     1      42.377   6.650  12.557  0.00  0.00    +0.000 HD
ATOM     14  H   UNL     1      41.528   6.015  11.191  0.00  0.00    +0.000 HD
ENDBRANCH   6  10
BRANCH   1  15
ATOM     15  C   UNL     1      48.551   7.366  14.861  0.00  0.00    +0.000 C 
BRANCH  15  20
ATOM     16  C   UNL     1      49.669   4.666  17.309  0.00  0.00    +0.000 A 
ATOM     17  C   UNL     1      51.027   4.987  17.448  0.00  0.00    +0.000 A 
ATOM     18  C   UNL     1      51.548   6.122  16.830  0.00  0.00    +0.000 A 
ATOM     19  C   UNL     1      50.722   6.938  16.056  0.00  0.00    +0.000 A 
ATOM     20  C   UNL     1      49.359   6.636  15.900  0.00  0.00    +0.000 A 
ATOM     21  C   UNL     1      48.837   5.510  16.558  0.00  0.00    +0.000 A 
BRANCH  16  22
ATOM     22  C   UNL     1      49.114   3.397  17.912  0.00  0.00    +0.000 C 
BRANCH  22  23
ATOM     23  C   UNL     1      48.437   2.499  16.874  0.00  0.00    +0.000 C 
BRANCH  23  24
ATOM     24  N   UNL     1      49.436   1.774  16.088  0.00  0.00    +0.000 NA
ATOM     25  H   UNL     1      49.943   1.133  16.697  0.00  0.00    +0.000 HD
ATOM     26  H   UNL     1      50.125   2.426  15.716  0.00  0.00    +0.000 HD
ENDBRANCH  23  24
ENDBRANCH  22  23
ENDBRANCH  16  22
ENDBRANCH  15  20
ENDBRANCH   1  15
TORSDOF 6
ENDMDL
MODEL 7
REMARK VINA RESULT:    -5.967      3.237      5.074
REMARK INTER + INTRA:          -8.799
REMARK INTER:                  -8.241
REMARK INTRA:                  -0.558
REMARK UNBOUND:                -0.913
REMARK  Name = 
REMARK  6 active torsions:
REMARK  status: ('A' for Active; 'I' for Inactive)
REMARK    1  A    between atoms: N_1  and  C_2
REMARK    2  A    between atoms: C_2  and  C_3
REMARK    3  A    between atoms: C_3  and  C_4
REMARK    4  A    between atoms: C_8  and  C_9
REMARK    5  A    between atoms: C_9  and  N_10
REMARK    6  A    between atoms: C_15  and  C_16
REMARK                            x       y       z     vdW  Elec       q    Type
REMARK                         _______ _______ _______ _____ _____    ______ ____
ROOT
ATOM      1  N   UNL     1      47.603   6.298  13.443  0.00  0.00    +0.000 N 
ATOM      2  N   UNL     1      47.915   5.537  14.522  0.00  0.00    +0.000 NA
ATOM      3  N   UNL     1      47.297   4.373  14.382  0.00  0.00    +0.000 NA
ATOM      4  C   UNL     1      46.455   4.466  13.312  0.00  0.00    +0.000 A 
ATOM      5  C   UNL     1      45.634   3.504  12.711  0.00  0.00    +0.000 A 
ATOM      6  C   UNL     1      44.809   3.883  11.640  0.00  0.00    +0.000 A 
ATOM      7  C   UNL     1      44.799   5.220  11.205  0.00  0.00    +0.000 A 
ATOM      8  C   UNL     1      45.671   6.182  11.752  0.00  0.00    +0.000 A 
ATOM      9  C   UNL     1      46.512   5.751  12.784  0.00  0.00    +0.000 A 
ENDROOT
BRANCH   6  10
ATOM     10  C   UNL     1      44.001   2.799  11.004  0.00  0.00    +0.000 C 
ATOM     11  N   UNL     1      44.467   2.203   9.865  0.00  0.00    +0.000 N 
ATOM     12  O   UNL     1      42.940   2.428  11.488  0.00  0.00    +0.000 OA
ATOM     13  H   UNL     1      45.305   2.449   9.372  0.00  0.00    +0.000 HD
ATOM     14  H   UNL     1      43.883   1.471   9.476  0.00  0.00    +0.000 HD
ENDBRANCH   6  10
BRANCH   1  15
ATOM     15  C   UNL     1      48.722   6.962  12.779  0.00  0.00    +0.000 C 
BRANCH  15  20
ATOM     16  C   UNL     1      47.475  10.498  12.088  0.00  0.00    +0.000 A 
ATOM     17  C   UNL     1      48.283  11.235  12.964  0.00  0.00    +0.000 A 
ATOM     18  C   UNL     1      49.286  10.601  13.697  0.00  0.00    +0.000 A 
ATOM     19  C   UNL     1      49.478   9.225  13.573  0.00  0.00    +0.000 A 
ATOM     20  C   UNL     1      48.679   8.465  12.703  0.00  0.00    +0.000 A 
ATOM     21  C   UNL     1      47.696   9.119  11.942  0.00  0.00    +0.000 A 
BRANCH  16  22
ATOM     22  C   UNL     1      46.338  11.163  11.349  0.00  0.00    +0.000 C 
BRANCH  22  23
ATOM     23  C   UNL     1      45.086  10.285  11.279  0.00  0.00    +0.000 C 
BRANCH  23  24
ATOM     24  N   UNL     1      44.543  10.051  12.617  0.00  0.00    +0.000 NA
ATOM     25  H   UNL     1      45.093  10.572  13.299  0.00  0.00    +0.000 HD
ATOM     26  H   UNL     1      44.635   9.067  12.862  0.00  0.00    +0.000 HD
ENDBRANCH  23  24
ENDBRANCH  22  23
ENDBRANCH  16  22
ENDBRANCH  15  20
ENDBRANCH   1  15
TORSDOF 6
ENDMDL
MODEL 8
REMARK VINA RESULT:    -5.673      2.975      4.910
REMARK INTER + INTRA:          -8.411
REMARK INTER:                  -7.981
REMARK INTRA:                  -0.430
REMARK UNBOUND:                -0.913
REMARK  Name = 
REMARK  6 active torsions:
REMARK  status: ('A' for Active; 'I' for Inactive)
REMARK    1  A    between atoms: N_1  and  C_2
REMARK    2  A    between atoms: C_2  and  C_3
REMARK    3  A    between atoms: C_3  and  C_4
REMARK    4  A    between atoms: C_8  and  C_9
REMARK    5  A    between atoms: C_9  and  N_10
REMARK    6  A    between atoms: C_15  and  C_16
REMARK                            x       y       z     vdW  Elec       q    Type
REMARK                         _______ _______ _______ _____ _____    ______ ____
ROOT
ATOM      1  N   UNL     1      47.812   6.377  13.230  0.00  0.00    +0.000 N 
ATOM      2  N   UNL     1      47.934   5.756  14.429  0.00  0.00    +0.000 NA
ATOM      3  N   UNL     1      47.207   4.649  14.383  0.00  0.00    +0.000 NA
ATOM      4  C   UNL     1      46.486   4.665  13.224  0.00  0.00    +0.000 A 
ATOM      5  C   UNL     1      45.624   3.708  12.674  0.00  0.00    +0.000 A 
ATOM      6  C   UNL     1      44.951   4.003  11.477  0.00  0.00    +0.000 A 
ATOM      7  C   UNL     1      45.130   5.256  10.865  0.00  0.00    +0.000 A 
ATOM      8  C   UNL     1      46.048   6.200  11.368  0.00  0.00    +0.000 A 
ATOM      9  C   UNL     1      46.734   5.847  12.535  0.00  0.00    +0.000 A 
ENDROOT
BRANCH   6  10
ATOM     10  C   UNL     1      44.092   2.920  10.910  0.00  0.00    +0.000 C 
ATOM     11  N   UNL     1      44.541   2.211   9.830  0.00  0.00    +0.000 N 
ATOM     12  O   UNL     1      43.004   2.649  11.399  0.00  0.00    +0.000 OA
ATOM     13  H   UNL     1      45.400   2.370   9.337  0.00  0.00    +0.000 HD
ATOM     14  H   UNL     1      43.922   1.485   9.487  0.00  0.00    +0.000 HD
ENDBRANCH   6  10
BRANCH   1  15
ATOM     15  C   UNL     1      49.055   6.826  12.607  0.00  0.00    +0.000 C 
BRANCH  15  20
ATOM     16  C   UNL     1      50.363  10.092  11.138  0.00  0.00    +0.000 A 
ATOM     17  C   UNL     1      49.187  10.853  11.109  0.00  0.00    +0.000 A 
ATOM     18  C   UNL     1      48.006  10.345  11.648  0.00  0.00    +0.000 A 
ATOM     19  C   UNL     1      47.987   9.067  12.207  0.00  0.00    +0.000 A 
ATOM     20  C   UNL     1      49.152   8.284  12.247  0.00  0.00    +0.000 A 
ATOM     21  C   UNL     1      50.345   8.820  11.734  0.00  0.00    +0.000 A 
BRANCH  16  22
ATOM     22  C   UNL     1      51.626  10.604  10.488  0.00  0.00    +0.000 C 
BRANCH  22  23
ATOM     23  C   UNL     1      52.430   9.494   9.806  0.00  0.00    +0.000 C 
BRANCH  23  24
ATOM     24  N   UNL     1      53.757   9.977   9.424  0.00  0.00    +0.000 NA
ATOM     25  H   UNL     1      54.067  10.678  10.096  0.00  0.00    +0.000 HD
ATOM     26  H   UNL     1      53.710  10.445   8.520  0.00  0.00    +0.000 HD
ENDBRANCH  23  24
ENDBRANCH  22  23
ENDBRANCH  16  22
ENDBRANCH  15  20
ENDBRANCH   1  15
TORSDOF 6
ENDMDL
MODEL 9
REMARK VINA RESULT:    -5.605      3.547      7.055
REMARK INTER + INTRA:          -8.320
REMARK INTER:                  -7.796
REMARK INTRA:                  -0.524
REMARK UNBOUND:                -0.913
REMARK  Name = 
REMARK  6 active torsions:
REMARK  status: ('A' for Active; 'I' for Inactive)
REMARK    1  A    between atoms: N_1  and  C_2
REMARK    2  A    between atoms: C_2  and  C_3
REMARK    3  A    between atoms: C_3  and  C_4
REMARK    4  A    between atoms: C_8  and  C_9
REMARK    5  A    between atoms: C_9  and  N_10
REMARK    6  A    between atoms: C_15  and  C_16
REMARK                            x       y       z     vdW  Elec       q    Type
REMARK                         _______ _______ _______ _____ _____    ______ ____
ROOT
ATOM      1  N   UNL     1      47.249   6.107  12.848  0.00  0.00    +0.000 N 
ATOM      2  N   UNL     1      47.480   5.412  13.989  0.00  0.00    +0.000 NA
ATOM      3  N   UNL     1      48.477   6.008  14.626  0.00  0.00    +0.000 NA
ATOM      4  C   UNL     1      48.991   6.969  13.804  0.00  0.00    +0.000 A 
ATOM      5  C   UNL     1      50.001   7.914  14.024  0.00  0.00    +0.000 A 
ATOM      6  C   UNL     1      50.384   8.762  12.973  0.00  0.00    +0.000 A 
ATOM      7  C   UNL     1      49.771   8.635  11.714  0.00  0.00    +0.000 A 
ATOM      8  C   UNL     1      48.705   7.739  11.498  0.00  0.00    +0.000 A 
ATOM      9  C   UNL     1      48.321   6.947  12.585  0.00  0.00    +0.000 A 
ENDROOT
BRANCH   6  10
ATOM     10  C   UNL     1      51.425   9.787  13.287  0.00  0.00    +0.000 C 
ATOM     11  N   UNL     1      52.484   9.440  14.078  0.00  0.00    +0.000 N 
ATOM     12  O   UNL     1      51.352  10.924  12.842  0.00  0.00    +0.000 OA
ATOM     13  H   UNL     1      52.624   8.548  14.517  0.00  0.00    +0.000 HD
ATOM     14  H   UNL     1      53.163  10.171  14.257  0.00  0.00    +0.000 HD
ENDBRANCH   6  10
BRANCH   1  15
ATOM     15  C   UNL     1      45.853   6.438  12.568  0.00  0.00    +0.000 C 
BRANCH  15  20
ATOM     16  C   UNL     1      44.586   3.486  10.516  0.00  0.00    +0.000 A 
ATOM     17  C   UNL     1      43.655   2.932  11.405  0.00  0.00    +0.000 A 
ATOM     18  C   UNL     1      43.374   3.565  12.615  0.00  0.00    +0.000 A 
ATOM     19  C   UNL     1      44.032   4.748  12.953  0.00  0.00    +0.000 A 
ATOM     20  C   UNL     1      44.970   5.322  12.079  0.00  0.00    +0.000 A 
ATOM     21  C   UNL     1      45.218   4.695  10.847  0.00  0.00    +0.000 A 
BRANCH  16  22
ATOM     22  C   UNL     1      44.952   2.766   9.239  0.00  0.00    +0.000 C 
BRANCH  22  23
ATOM     23  C   UNL     1      44.867   3.670   8.007  0.00  0.00    +0.000 C 
BRANCH  23  24
ATOM     24  N   UNL     1      46.201   3.932   7.466  0.00  0.00    +0.000 NA
ATOM     25  H   UNL     1      46.808   3.139   7.667  0.00  0.00    +0.000 HD
ATOM     26  H   UNL     1      46.613   4.738   7.933  0.00  0.00    +0.000 HD
ENDBRANCH  23  24
ENDBRANCH  22  23
ENDBRANCH  16  22
ENDBRANCH  15  20
ENDBRANCH   1  15
TORSDOF 6
ENDMDL
