MODEL 1
REMARK VINA RESULT:    -7.894      0.000      0.000
REMARK INTER + INTRA:         -11.587
REMARK INTER:                 -10.664
REMARK INTRA:                  -0.923
REMARK UNBOUND:                -0.923
REMARK  Name = 
REMARK  6 active torsions:
REMARK  status: ('A' for Active; 'I' for Inactive)
REMARK    1  A    between atoms: C_2  and  C_3
REMARK    2  A    between atoms: C_6  and  C_7
REMARK    3  A    between atoms: C_7  and  N_8
REMARK    4  A    between atoms: N_8  and  C_9
REMARK    5  A    between atoms: C_13  and  C_14
REMARK    6  A    between atoms: C_18  and  C_19
REMARK                            x       y       z     vdW  Elec       q    Type
REMARK                         _______ _______ _______ _____ _____    ______ ____
ROOT
ATOM      1  C   UNL     1      46.145   6.601  12.031  0.00  0.00    +0.000 A 
ATOM      2  C   UNL     1      47.100   7.141  11.168  0.00  0.00    +0.000 A 
ATOM      3  C   UNL     1      48.440   7.205  11.549  0.00  0.00    +0.000 A 
ATOM      4  C   UNL     1      48.830   6.786  12.824  0.00  0.00    +0.000 A 
ATOM      5  C   UNL     1      47.888   6.325  13.758  0.00  0.00    +0.000 A 
ATOM      6  C   UNL     1      46.556   6.205  13.318  0.00  0.00    +0.000 A 
ENDROOT
BRANCH   5   7
ATOM      7  C   UNL     1      48.257   6.024  15.156  0.00  0.00    +0.000 A 
ATOM      8  C   UNL     1      49.052   6.894  15.916  0.00  0.00    +0.000 A 
ATOM      9  N   UNL     1      49.386   6.679  17.212  0.00  0.00    +0.000 NA
ATOM     10  C   UNL     1      48.877   5.549  17.753  0.00  0.00    +0.000 A 
ATOM     11  C   UNL     1      48.080   4.678  17.026  0.00  0.00    +0.000 A 
ATOM     12  N   UNL     1      47.747   4.890  15.715  0.00  0.00    +0.000 NA
BRANCH  11  13
ATOM     13  C   UNL     1      47.545   3.463  17.701  0.00  0.00    +0.000 C 
ATOM     14  N   UNL     1      48.276   2.984  18.755  0.00  0.00    +0.000 N 
ATOM     15  O   UNL     1      46.511   2.915  17.337  0.00  0.00    +0.000 OA
ATOM     16  H   UNL     1      49.099   3.477  19.070  0.00  0.00    +0.000 HD
ATOM     17  H   UNL     1      47.935   2.177  19.261  0.00  0.00    +0.000 HD
ENDBRANCH  11  13
ENDBRANCH   5   7
BRANCH   1  18
ATOM     18  N   UNL     1      44.801   6.396  11.653  0.00  0.00    +0.000 N 
ATOM     19  H   UNL     1      44.501   7.080  10.964  0.00  0.00    +0.000 HD
BRANCH  18  20
ATOM     20  C   UNL     1      44.191   5.060  11.468  0.00  0.00    +0.000 C 
ATOM     21  C   UNL     1      43.532   4.287  12.593  0.00  0.00    +0.000 C 
ATOM     22  C   UNL     1      42.675   5.062  11.649  0.00  0.00    +0.000 C 
BRANCH  20  26
ATOM     23  C   UNL     1      45.987   2.747   8.312  0.00  0.00    +0.000 A 
ATOM     24  C   UNL     1      45.972   4.129   8.180  0.00  0.00    +0.000 A 
ATOM     25  C   UNL     1      45.367   4.887   9.186  0.00  0.00    +0.000 A 
ATOM     26  C   UNL     1      44.787   4.272  10.306  0.00  0.00    +0.000 A 
ATOM     27  C   UNL     1      44.844   2.875  10.315  0.00  0.00    +0.000 A 
ATOM     28  N   UNL     1      45.419   2.103   9.357  0.00  0.00    +0.000 NA
BRANCH  23  30
ATOM     29  N   UNL     1      47.178   1.222   6.574  0.00  0.00    +0.000 NA
ATOM     30  C   UNL     1      46.644   1.921   7.331  0.00  0.00    +0.000 C 
ENDBRANCH  23  30
ENDBRANCH  20  26
ENDBRANCH  18  20
ENDBRANCH   1  18
TORSDOF 6
ENDMDL
MODEL 2
REMARK VINA RESULT:    -7.775      1.368      1.765
REMARK INTER + INTRA:         -11.425
REMARK INTER:                 -10.500
REMARK INTRA:                  -0.925
REMARK UNBOUND:                -0.923
REMARK  Name = 
REMARK  6 active torsions:
REMARK  status: ('A' for Active; 'I' for Inactive)
REMARK    1  A    between atoms: C_2  and  C_3
REMARK    2  A    between atoms: C_6  and  C_7
REMARK    3  A    between atoms: C_7  and  N_8
REMARK    4  A    between atoms: N_8  and  C_9
REMARK    5  A    between atoms: C_13  and  C_14
REMARK    6  A    between atoms: C_18  and  C_19
REMARK                            x       y       z     vdW  Elec       q    Type
REMARK                         _______ _______ _______ _____ _____    ______ ____
ROOT
ATOM      1  C   UNL     1      46.103   6.383  12.245  0.00  0.00    +0.000 A 
ATOM      2  C   UNL     1      47.149   7.181  11.778  0.00  0.00    +0.000 A 
ATOM      3  C   UNL     1      48.395   7.148  12.404  0.00  0.00    +0.000 A 
ATOM      4  C   UNL     1      48.591   6.362  13.542  0.00  0.00    +0.000 A 
ATOM      5  C   UNL     1      47.540   5.617  14.100  0.00  0.00    +0.000 A 
ATOM      6  C   UNL     1      46.316   5.615  13.405  0.00  0.00    +0.000 A 
ENDROOT
BRANCH   5   7
ATOM      7  C   UNL     1      47.685   4.903  15.386  0.00  0.00    +0.000 A 
ATOM      8  C   UNL     1      46.704   4.021  15.858  0.00  0.00    +0.000 A 
ATOM      9  N   UNL     1      46.809   3.316  17.011  0.00  0.00    +0.000 NA
ATOM     10  C   UNL     1      47.960   3.508  17.695  0.00  0.00    +0.000 A 
ATOM     11  C   UNL     1      48.950   4.366  17.244  0.00  0.00    +0.000 A 
ATOM     12  N   UNL     1      48.843   5.084  16.082  0.00  0.00    +0.000 NA
BRANCH  11  13
ATOM     13  C   UNL     1      50.197   4.508  18.046  0.00  0.00    +0.000 C 
ATOM     14  N   UNL     1      50.065   4.359  19.401  0.00  0.00    +0.000 N 
ATOM     15  O   UNL     1      51.283   4.747  17.530  0.00  0.00    +0.000 OA
ATOM     16  H   UNL     1      49.171   4.115  19.802  0.00  0.00    +0.000 HD
ATOM     17  H   UNL     1      50.890   4.419  19.983  0.00  0.00    +0.000 HD
ENDBRANCH  11  13
ENDBRANCH   5   7
BRANCH   1  18
ATOM     18  N   UNL     1      44.864   6.280  11.579  0.00  0.00    +0.000 N 
ATOM     19  H   UNL     1      44.797   6.947  10.813  0.00  0.00    +0.000 HD
BRANCH  18  20
ATOM     20  C   UNL     1      44.174   4.999  11.311  0.00  0.00    +0.000 C 
ATOM     21  C   UNL     1      43.378   4.250  12.361  0.00  0.00    +0.000 C 
ATOM     22  C   UNL     1      42.653   5.109  11.380  0.00  0.00    +0.000 C 
BRANCH  20  26
ATOM     23  C   UNL     1      46.040   2.641   8.229  0.00  0.00    +0.000 A 
ATOM     24  C   UNL     1      46.070   4.023   8.101  0.00  0.00    +0.000 A 
ATOM     25  C   UNL     1      45.443   4.796   9.081  0.00  0.00    +0.000 A 
ATOM     26  C   UNL     1      44.798   4.196  10.174  0.00  0.00    +0.000 A 
ATOM     27  C   UNL     1      44.815   2.798  10.181  0.00  0.00    +0.000 A 
ATOM     28  N   UNL     1      45.409   2.011   9.247  0.00  0.00    +0.000 NA
BRANCH  23  30
ATOM     29  N   UNL     1      47.287   1.156   6.495  0.00  0.00    +0.000 NA
ATOM     30  C   UNL     1      46.716   1.798   7.275  0.00  0.00    +0.000 C 
ENDBRANCH  23  30
ENDBRANCH  20  26
ENDBRANCH  18  20
ENDBRANCH   1  18
TORSDOF 6
ENDMDL
MODEL 3
REMARK VINA RESULT:    -7.092      3.506      4.767
REMARK INTER + INTRA:         -10.503
REMARK INTER:                  -9.550
REMARK INTRA:                  -0.954
REMARK UNBOUND:                -0.923
REMARK  Name = 
REMARK  6 active torsions:
REMARK  status: ('A' for Active; 'I' for Inactive)
REMARK    1  A    between atoms: C_2  and  C_3
REMARK    2  A    between atoms: C_6  and  C_7
REMARK    3  A    between atoms: C_7  and  N_8
REMARK    4  A    between atoms: N_8  and  C_9
REMARK    5  A    between atoms: C_13  and  C_14
REMARK    6  A    between atoms: C_18  and  C_19
REMARK                            x       y       z     vdW  Elec       q    Type
REMARK                         _______ _______ _______ _____ _____    ______ ____
ROOT
ATOM      1  C   UNL     1      46.055   6.055  12.154  0.00  0.00    +0.000 A 
ATOM      2  C   UNL     1      46.320   5.311  13.305  0.00  0.00    +0.000 A 
ATOM      3  C   UNL     1      47.482   5.542  14.043  0.00  0.00    +0.000 A 
ATOM      4  C   UNL     1      48.421   6.477  13.602  0.00  0.00    +0.000 A 
ATOM      5  C   UNL     1      48.240   7.179  12.400  0.00  0.00    +0.000 A 
ATOM      6  C   UNL     1      47.025   6.977  11.717  0.00  0.00    +0.000 A 
ENDROOT
BRANCH   5   7
ATOM      7  C   UNL     1      49.290   8.056  11.841  0.00  0.00    +0.000 A 
ATOM      8  C   UNL     1      49.168   9.453  11.846  0.00  0.00    +0.000 A 
ATOM      9  N   UNL     1      50.119  10.298  11.380  0.00  0.00    +0.000 NA
ATOM     10  C   UNL     1      51.236   9.698  10.908  0.00  0.00    +0.000 A 
ATOM     11  C   UNL     1      51.384   8.320  10.902  0.00  0.00    +0.000 A 
ATOM     12  N   UNL     1      50.422   7.464  11.367  0.00  0.00    +0.000 NA
BRANCH  11  13
ATOM     13  C   UNL     1      52.652   7.737  10.381  0.00  0.00    +0.000 C 
ATOM     14  N   UNL     1      52.807   6.386  10.539  0.00  0.00    +0.000 N 
ATOM     15  O   UNL     1      53.515   8.423   9.844  0.00  0.00    +0.000 OA
ATOM     16  H   UNL     1      52.064   5.832  10.941  0.00  0.00    +0.000 HD
ATOM     17  H   UNL     1      53.640   5.942  10.176  0.00  0.00    +0.000 HD
ENDBRANCH  11  13
ENDBRANCH   5   7
BRANCH   1  18
ATOM     18  N   UNL     1      44.842   5.955  11.441  0.00  0.00    +0.000 N 
ATOM     19  H   UNL     1      44.774   6.671  10.722  0.00  0.00    +0.000 HD
BRANCH  18  20
ATOM     20  C   UNL     1      44.212   4.671  11.060  0.00  0.00    +0.000 C 
ATOM     21  C   UNL     1      43.400   3.828  12.024  0.00  0.00    +0.000 C 
ATOM     22  C   UNL     1      42.687   4.725  11.067  0.00  0.00    +0.000 C 
BRANCH  20  26
ATOM     23  C   UNL     1      46.298   2.587   7.923  0.00  0.00    +0.000 A 
ATOM     24  C   UNL     1      46.256   3.974   7.869  0.00  0.00    +0.000 A 
ATOM     25  C   UNL     1      45.558   4.658   8.867  0.00  0.00    +0.000 A 
ATOM     26  C   UNL     1      44.913   3.965   9.904  0.00  0.00    +0.000 A 
ATOM     27  C   UNL     1      45.007   2.572   9.838  0.00  0.00    +0.000 A 
ATOM     28  N   UNL     1      45.672   1.870   8.885  0.00  0.00    +0.000 NA
BRANCH  23  30
ATOM     29  N   UNL     1      47.681   1.265   6.161  0.00  0.00    +0.000 NA
ATOM     30  C   UNL     1      47.048   1.834   6.949  0.00  0.00    +0.000 C 
ENDBRANCH  23  30
ENDBRANCH  20  26
ENDBRANCH  18  20
ENDBRANCH   1  18
TORSDOF 6
ENDMDL
MODEL 4
REMARK VINA RESULT:    -6.898      1.879      2.508
REMARK INTER + INTRA:         -10.240
REMARK INTER:                  -9.765
REMARK INTRA:                  -0.475
REMARK UNBOUND:                -0.923
REMARK  Name = 
REMARK  6 active torsions:
REMARK  status: ('A' for Active; 'I' for Inactive)
REMARK    1  A    between atoms: C_2  and  C_3
REMARK    2  A    between atoms: C_6  and  C_7
REMARK    3  A    between atoms: C_7  and  N_8
REMARK    4  A    between atoms: N_8  and  C_9
REMARK    5  A    between atoms: C_13  and  C_14
REMARK    6  A    between atoms: C_18  and  C_19
REMARK                            x       y       z     vdW  Elec       q    Type
REMARK                         _______ _______ _______ _____ _____    ______ ____
ROOT
ATOM      1  C   UNL     1      44.819   7.548  11.338  0.00  0.00    +0.000 A 
ATOM      2  C   UNL     1      44.299   8.839  11.451  0.00  0.00    +0.000 A 
ATOM      3  C   UNL     1      45.046   9.850  12.055  0.00  0.00    +0.000 A 
ATOM      4  C   UNL     1      46.297   9.566  12.608  0.00  0.00    +0.000 A 
ATOM      5  C   UNL     1      46.817   8.262  12.601  0.00  0.00    +0.000 A 
ATOM      6  C   UNL     1      46.072   7.279  11.921  0.00  0.00    +0.000 A 
ENDROOT
BRANCH   5   7
ATOM      7  C   UNL     1      48.064   7.913  13.313  0.00  0.00    +0.000 A 
ATOM      8  C   UNL     1      49.312   8.403  12.905  0.00  0.00    +0.000 A 
ATOM      9  N   UNL     1      50.477   8.141  13.547  0.00  0.00    +0.000 NA
ATOM     10  C   UNL     1      50.359   7.368  14.650  0.00  0.00    +0.000 A 
ATOM     11  C   UNL     1      49.135   6.881  15.081  0.00  0.00    +0.000 A 
ATOM     12  N   UNL     1      47.958   7.138  14.430  0.00  0.00    +0.000 NA
BRANCH  11  13
ATOM     13  C   UNL     1      49.088   6.050  16.317  0.00  0.00    +0.000 C 
ATOM     14  N   UNL     1      47.897   6.037  16.992  0.00  0.00    +0.000 N 
ATOM     15  O   UNL     1      50.058   5.415  16.715  0.00  0.00    +0.000 OA
ATOM     16  H   UNL     1      47.096   6.529  16.622  0.00  0.00    +0.000 HD
ATOM     17  H   UNL     1      47.810   5.465  17.821  0.00  0.00    +0.000 HD
ENDBRANCH  11  13
ENDBRANCH   5   7
BRANCH   1  18
ATOM     18  N   UNL     1      44.164   6.520  10.628  0.00  0.00    +0.000 N 
ATOM     19  H   UNL     1      44.198   6.682   9.624  0.00  0.00    +0.000 HD
BRANCH  18  20
ATOM     20  C   UNL     1      44.230   5.089  11.000  0.00  0.00    +0.000 C 
ATOM     21  C   UNL     1      44.263   4.606  12.436  0.00  0.00    +0.000 C 
ATOM     22  C   UNL     1      42.966   4.590  11.697  0.00  0.00    +0.000 C 
BRANCH  20  26
ATOM     23  C   UNL     1      46.140   2.522   8.119  0.00  0.00    +0.000 A 
ATOM     24  C   UNL     1      46.185   3.893   7.903  0.00  0.00    +0.000 A 
ATOM     25  C   UNL     1      45.544   4.732   8.817  0.00  0.00    +0.000 A 
ATOM     26  C   UNL     1      44.870   4.209   9.931  0.00  0.00    +0.000 A 
ATOM     27  C   UNL     1      44.874   2.814  10.029  0.00  0.00    +0.000 A 
ATOM     28  N   UNL     1      45.481   1.964   9.161  0.00  0.00    +0.000 NA
BRANCH  23  30
ATOM     29  N   UNL     1      47.350   0.849   6.537  0.00  0.00    +0.000 NA
ATOM     30  C   UNL     1      46.828   1.614   7.237  0.00  0.00    +0.000 C 
ENDBRANCH  23  30
ENDBRANCH  20  26
ENDBRANCH  18  20
ENDBRANCH   1  18
TORSDOF 6
ENDMDL
MODEL 5
REMARK VINA RESULT:    -6.645      2.565      7.634
REMARK INTER + INTRA:          -9.899
REMARK INTER:                  -8.929
REMARK INTRA:                  -0.970
REMARK UNBOUND:                -0.923
REMARK  Name = 
REMARK  6 active torsions:
REMARK  status: ('A' for Active; 'I' for Inactive)
REMARK    1  A    between atoms: C_2  and  C_3
REMARK    2  A    between atoms: C_6  and  C_7
REMARK    3  A    between atoms: C_7  and  N_8
REMARK    4  A    between atoms: N_8  and  C_9
REMARK    5  A    between atoms: C_13  and  C_14
REMARK    6  A    between atoms: C_18  and  C_19
REMARK                            x       y       z     vdW  Elec       q    Type
REMARK                         _______ _______ _______ _____ _____    ______ ____
ROOT
ATOM      1  C   UNL     1      46.185   8.806  12.953  0.00  0.00    +0.000 A 
ATOM      2  C   UNL     1      45.540   9.700  12.097  0.00  0.00    +0.000 A 
ATOM      3  C   UNL     1      44.502   9.264  11.273  0.00  0.00    +0.000 A 
ATOM      4  C   UNL     1      44.139   7.915  11.251  0.00  0.00    +0.000 A 
ATOM      5  C   UNL     1      44.824   6.966  12.026  0.00  0.00    +0.000 A 
ATOM      6  C   UNL     1      45.818   7.448  12.900  0.00  0.00    +0.000 A 
ENDROOT
BRANCH   5   7
ATOM      7  C   UNL     1      44.558   5.517  11.903  0.00  0.00    +0.000 A 
ATOM      8  C   UNL     1      44.092   4.756  12.983  0.00  0.00    +0.000 A 
ATOM      9  N   UNL     1      43.798   3.434  12.909  0.00  0.00    +0.000 NA
ATOM     10  C   UNL     1      43.972   2.879  11.688  0.00  0.00    +0.000 A 
ATOM     11  C   UNL     1      44.422   3.612  10.602  0.00  0.00    +0.000 A 
ATOM     12  N   UNL     1      44.725   4.946  10.676  0.00  0.00    +0.000 NA
BRANCH  11  13
ATOM     13  C   UNL     1      44.571   2.930   9.286  0.00  0.00    +0.000 C 
ATOM     14  N   UNL     1      44.301   3.687   8.178  0.00  0.00    +0.000 N 
ATOM     15  O   UNL     1      44.913   1.756   9.193  0.00  0.00    +0.000 OA
ATOM     16  H   UNL     1      44.067   4.665   8.274  0.00  0.00    +0.000 HD
ATOM     17  H   UNL     1      44.415   3.273   7.262  0.00  0.00    +0.000 HD
ENDBRANCH  11  13
ENDBRANCH   5   7
BRANCH   1  18
ATOM     18  N   UNL     1      47.151   9.213  13.896  0.00  0.00    +0.000 N 
ATOM     19  H   UNL     1      46.725   9.436  14.792  0.00  0.00    +0.000 HD
BRANCH  18  20
ATOM     20  C   UNL     1      48.496   8.606  14.015  0.00  0.00    +0.000 C 
ATOM     21  C   UNL     1      49.417   8.395  12.830  0.00  0.00    +0.000 C 
ATOM     22  C   UNL     1      49.626   9.585  13.705  0.00  0.00    +0.000 C 
BRANCH  20  26
ATOM     23  C   UNL     1      48.754   5.890  17.345  0.00  0.00    +0.000 A 
ATOM     24  C   UNL     1      48.762   7.252  17.613  0.00  0.00    +0.000 A 
ATOM     25  C   UNL     1      48.706   8.142  16.537  0.00  0.00    +0.000 A 
ATOM     26  C   UNL     1      48.643   7.676  15.214  0.00  0.00    +0.000 A 
ATOM     27  C   UNL     1      48.665   6.285  15.071  0.00  0.00    +0.000 A 
ATOM     28  N   UNL     1      48.722   5.388  16.089  0.00  0.00    +0.000 NA
BRANCH  23  30
ATOM     29  N   UNL     1      48.726   4.181  19.306  0.00  0.00    +0.000 NA
ATOM     30  C   UNL     1      48.757   4.929  18.419  0.00  0.00    +0.000 C 
ENDBRANCH  23  30
ENDBRANCH  20  26
ENDBRANCH  18  20
ENDBRANCH   1  18
TORSDOF 6
ENDMDL
MODEL 6
REMARK VINA RESULT:    -6.531      2.575      7.598
REMARK INTER + INTRA:          -9.745
REMARK INTER:                  -8.724
REMARK INTRA:                  -1.021
REMARK UNBOUND:                -0.923
REMARK  Name = 
REMARK  6 active torsions:
REMARK  status: ('A' for Active; 'I' for Inactive)
REMARK    1  A    between atoms: C_2  and  C_3
REMARK    2  A    between atoms: C_6  and  C_7
REMARK    3  A    between atoms: C_7  and  N_8
REMARK    4  A    between atoms: N_8  and  C_9
REMARK    5  A    between atoms: C_13  and  C_14
REMARK    6  A    between atoms: C_18  and  C_19
REMARK                            x       y       z     vdW  Elec       q    Type
REMARK                         _______ _______ _______ _____ _____    ______ ____
ROOT
ATOM      1  C   UNL     1      47.638   8.382  13.912  0.00  0.00    +0.000 A 
ATOM      2  C   UNL     1      48.600   8.667  12.941  0.00  0.00    +0.000 A 
ATOM      3  C   UNL     1      48.588   7.997  11.717  0.00  0.00    +0.000 A 
ATOM      4  C   UNL     1      47.650   6.990  11.476  0.00  0.00    +0.000 A 
ATOM      5  C   UNL     1      46.725   6.606  12.461  0.00  0.00    +0.000 A 
ATOM      6  C   UNL     1      46.716   7.350  13.656  0.00  0.00    +0.000 A 
ENDROOT
BRANCH   5   7
ATOM      7  C   UNL     1      45.830   5.444  12.282  0.00  0.00    +0.000 A 
ATOM      8  C   UNL     1      45.166   4.848  13.362  0.00  0.00    +0.000 A 
ATOM      9  N   UNL     1      44.307   3.805  13.244  0.00  0.00    +0.000 NA
ATOM     10  C   UNL     1      44.109   3.370  11.978  0.00  0.00    +0.000 A 
ATOM     11  C   UNL     1      44.745   3.950  10.892  0.00  0.00    +0.000 A 
ATOM     12  N   UNL     1      45.618   4.999  11.011  0.00  0.00    +0.000 NA
BRANCH  11  13
ATOM     13  C   UNL     1      44.459   3.424   9.528  0.00  0.00    +0.000 C 
ATOM     14  N   UNL     1      44.116   4.351   8.581  0.00  0.00    +0.000 N 
ATOM     15  O   UNL     1      44.523   2.229   9.262  0.00  0.00    +0.000 OA
ATOM     16  H   UNL     1      44.117   5.336   8.808  0.00  0.00    +0.000 HD
ATOM     17  H   UNL     1      43.941   4.043   7.634  0.00  0.00    +0.000 HD
ENDBRANCH  11  13
ENDBRANCH   5   7
BRANCH   1  18
ATOM     18  N   UNL     1      47.525   9.114  15.113  0.00  0.00    +0.000 N 
ATOM     19  H   UNL     1      46.573   9.093  15.472  0.00  0.00    +0.000 HD
BRANCH  18  20
ATOM     20  C   UNL     1      48.558   9.127  16.173  0.00  0.00    +0.000 C 
ATOM     21  C   UNL     1      49.510  10.286  16.387  0.00  0.00    +0.000 C 
ATOM     22  C   UNL     1      48.299  10.176  17.251  0.00  0.00    +0.000 C 
BRANCH  20  26
ATOM     23  C   UNL     1      49.845   5.148  17.198  0.00  0.00    +0.000 A 
ATOM     24  C   UNL     1      48.685   5.632  17.790  0.00  0.00    +0.000 A 
ATOM     25  C   UNL     1      48.275   6.931  17.485  0.00  0.00    +0.000 A 
ATOM     26  C   UNL     1      49.012   7.735  16.601  0.00  0.00    +0.000 A 
ATOM     27  C   UNL     1      50.172   7.147  16.087  0.00  0.00    +0.000 A 
ATOM     28  N   UNL     1      50.607   5.890  16.361  0.00  0.00    +0.000 NA
BRANCH  23  30
ATOM     29  N   UNL     1      50.685   2.722  17.617  0.00  0.00    +0.000 NA
ATOM     30  C   UNL     1      50.286   3.797  17.437  0.00  0.00    +0.000 C 
ENDBRANCH  23  30
ENDBRANCH  20  26
ENDBRANCH  18  20
ENDBRANCH   1  18
TORSDOF 6
ENDMDL
MODEL 7
REMARK VINA RESULT:    -6.525      3.175      8.172
REMARK INTER + INTRA:          -9.738
REMARK INTER:                  -9.125
REMARK INTRA:                  -0.613
REMARK UNBOUND:                -0.923
REMARK  Name = 
REMARK  6 active torsions:
REMARK  status: ('A' for Active; 'I' for Inactive)
REMARK    1  A    between atoms: C_2  and  C_3
REMARK    2  A    between atoms: C_6  and  C_7
REMARK    3  A    between atoms: C_7  and  N_8
REMARK    4  A    between atoms: N_8  and  C_9
REMARK    5  A    between atoms: C_13  and  C_14
REMARK    6  A    between atoms: C_18  and  C_19
REMARK                            x       y       z     vdW  Elec       q    Type
REMARK                         _______ _______ _______ _____ _____    ______ ____
ROOT
ATOM      1  C   UNL     1      47.657   5.038  15.561  0.00  0.00    +0.000 A 
ATOM      2  C   UNL     1      48.569   6.016  15.163  0.00  0.00    +0.000 A 
ATOM      3  C   UNL     1      48.339   6.769  14.012  0.00  0.00    +0.000 A 
ATOM      4  C   UNL     1      47.225   6.508  13.211  0.00  0.00    +0.000 A 
ATOM      5  C   UNL     1      46.332   5.470  13.523  0.00  0.00    +0.000 A 
ATOM      6  C   UNL     1      46.551   4.777  14.729  0.00  0.00    +0.000 A 
ENDROOT
BRANCH   5   7
ATOM      7  C   UNL     1      45.237   5.080  12.610  0.00  0.00    +0.000 A 
ATOM      8  C   UNL     1      43.889   5.252  12.955  0.00  0.00    +0.000 A 
ATOM      9  N   UNL     1      42.852   4.945  12.138  0.00  0.00    +0.000 NA
ATOM     10  C   UNL     1      43.205   4.462  10.925  0.00  0.00    +0.000 A 
ATOM     11  C   UNL     1      44.530   4.293  10.556  0.00  0.00    +0.000 A 
ATOM     12  N   UNL     1      45.579   4.597  11.382  0.00  0.00    +0.000 NA
BRANCH  11  13
ATOM     13  C   UNL     1      44.836   3.771   9.195  0.00  0.00    +0.000 C 
ATOM     14  N   UNL     1      44.735   2.416   9.029  0.00  0.00    +0.000 N 
ATOM     15  O   UNL     1      45.162   4.508   8.270  0.00  0.00    +0.000 OA
ATOM     16  H   UNL     1      44.418   1.832   9.789  0.00  0.00    +0.000 HD
ATOM     17  H   UNL     1      44.906   2.020   8.114  0.00  0.00    +0.000 HD
ENDBRANCH  11  13
ENDBRANCH   5   7
BRANCH   1  18
ATOM     18  N   UNL     1      47.771   4.335  16.778  0.00  0.00    +0.000 N 
ATOM     19  H   UNL     1      47.539   3.351  16.663  0.00  0.00    +0.000 HD
BRANCH  18  20
ATOM     20  C   UNL     1      48.837   4.579  17.776  0.00  0.00    +0.000 C 
ATOM     21  C   UNL     1      49.081   5.932  18.414  0.00  0.00    +0.000 C 
ATOM     22  C   UNL     1      48.296   4.908  19.165  0.00  0.00    +0.000 C 
BRANCH  20  26
ATOM     23  C   UNL     1      52.064   1.738  17.548  0.00  0.00    +0.000 A 
ATOM     24  C   UNL     1      52.346   3.008  18.033  0.00  0.00    +0.000 A 
ATOM     25  C   UNL     1      51.312   3.945  18.085  0.00  0.00    +0.000 A 
ATOM     26  C   UNL     1      50.015   3.617  17.659  0.00  0.00    +0.000 A 
ATOM     27  C   UNL     1      49.860   2.316  17.170  0.00  0.00    +0.000 A 
ATOM     28  N   UNL     1      50.839   1.378  17.100  0.00  0.00    +0.000 NA
BRANCH  23  30
ATOM     29  N   UNL     1      53.929  -0.075  17.519  0.00  0.00    +0.000 NA
ATOM     30  C   UNL     1      53.080   0.716  17.522  0.00  0.00    +0.000 C 
ENDBRANCH  23  30
ENDBRANCH  20  26
ENDBRANCH  18  20
ENDBRANCH   1  18
TORSDOF 6
ENDMDL
MODEL 8
REMARK VINA RESULT:    -5.973      2.837      7.946
REMARK INTER + INTRA:          -8.991
REMARK INTER:                  -8.204
REMARK INTRA:                  -0.787
REMARK UNBOUND:                -0.923
REMARK  Name = 
REMARK  6 active torsions:
REMARK  status: ('A' for Active; 'I' for Inactive)
REMARK    1  A    between atoms: C_2  and  C_3
REMARK    2  A    between atoms: C_6  and  C_7
REMARK    3  A    between atoms: C_7  and  N_8
REMARK    4  A    between atoms: N_8  and  C_9
REMARK    5  A    between atoms: C_13  and  C_14
REMARK    6  A    between atoms: C_18  and  C_19
REMARK                            x       y       z     vdW  Elec       q    Type
REMARK                         _______ _______ _______ _____ _____    ______ ____
ROOT
ATOM      1  C   UNL     1      48.085   8.298  12.125  0.00  0.00    +0.000 A 
ATOM      2  C   UNL     1      47.286   9.442  12.160  0.00  0.00    +0.000 A 
ATOM      3  C   UNL     1      45.901   9.331  12.287  0.00  0.00    +0.000 A 
ATOM      4  C   UNL     1      45.295   8.073  12.318  0.00  0.00    +0.000 A 
ATOM      5  C   UNL     1      46.053   6.898  12.191  0.00  0.00    +0.000 A 
ATOM      6  C   UNL     1      47.452   7.040  12.136  0.00  0.00    +0.000 A 
ENDROOT
BRANCH   5   7
ATOM      7  C   UNL     1      45.418   5.569  12.067  0.00  0.00    +0.000 A 
ATOM      8  C   UNL     1      44.916   4.882  13.181  0.00  0.00    +0.000 A 
ATOM      9  N   UNL     1      44.294   3.679  13.113  0.00  0.00    +0.000 NA
ATOM     10  C   UNL     1      44.167   3.172  11.866  0.00  0.00    +0.000 A 
ATOM     11  C   UNL     1      44.645   3.836  10.748  0.00  0.00    +0.000 A 
ATOM     12  N   UNL     1      45.280   5.048  10.815  0.00  0.00    +0.000 NA
BRANCH  11  13
ATOM     13  C   UNL     1      44.450   3.218   9.407  0.00  0.00    +0.000 C 
ATOM     14  N   UNL     1      44.165   4.077   8.380  0.00  0.00    +0.000 N 
ATOM     15  O   UNL     1      44.535   2.008   9.226  0.00  0.00    +0.000 OA
ATOM     16  H   UNL     1      44.147   5.074   8.540  0.00  0.00    +0.000 HD
ATOM     17  H   UNL     1      44.052   3.704   7.446  0.00  0.00    +0.000 HD
ENDBRANCH  11  13
ENDBRANCH   5   7
BRANCH   1  18
ATOM     18  N   UNL     1      49.495   8.350  12.124  0.00  0.00    +0.000 N 
ATOM     19  H   UNL     1      49.853   8.712  11.244  0.00  0.00    +0.000 HD
BRANCH  18  20
ATOM     20  C   UNL     1      50.307   8.737  13.299  0.00  0.00    +0.000 C 
ATOM     21  C   UNL     1      51.810   8.925  13.242  0.00  0.00    +0.000 C 
ATOM     22  C   UNL     1      50.928  10.126  13.169  0.00  0.00    +0.000 C 
BRANCH  20  26
ATOM     23  C   UNL     1      48.646   7.746  17.146  0.00  0.00    +0.000 A 
ATOM     24  C   UNL     1      49.262   6.735  16.421  0.00  0.00    +0.000 A 
ATOM     25  C   UNL     1      49.780   7.040  15.160  0.00  0.00    +0.000 A 
ATOM     26  C   UNL     1      49.684   8.337  14.632  0.00  0.00    +0.000 A 
ATOM     27  C   UNL     1      49.022   9.263  15.445  0.00  0.00    +0.000 A 
ATOM     28  N   UNL     1      48.503   9.006  16.673  0.00  0.00    +0.000 NA
BRANCH  23  30
ATOM     29  N   UNL     1      47.772   7.270  19.549  0.00  0.00    +0.000 NA
ATOM     30  C   UNL     1      48.142   7.499  18.473  0.00  0.00    +0.000 C 
ENDBRANCH  23  30
ENDBRANCH  20  26
ENDBRANCH  18  20
ENDBRANCH   1  18
TORSDOF 6
ENDMDL
MODEL 9
REMARK VINA RESULT:    -5.850      2.629      4.310
REMARK INTER + INTRA:          -8.826
REMARK INTER:                  -8.414
REMARK INTRA:                  -0.411
REMARK UNBOUND:                -0.923
REMARK  Name = 
REMARK  6 active torsions:
REMARK  status: ('A' for Active; 'I' for Inactive)
REMARK    1  A    between atoms: C_2  and  C_3
REMARK    2  A    between atoms: C_6  and  C_7
REMARK    3  A    between atoms: C_7  and  N_8
REMARK    4  A    between atoms: N_8  and  C_9
REMARK    5  A    between atoms: C_13  and  C_14
REMARK    6  A    between atoms: C_18  and  C_19
REMARK                            x       y       z     vdW  Elec       q    Type
REMARK                         _______ _______ _______ _____ _____    ______ ____
ROOT
ATOM      1  C   UNL     1      48.235   8.869  15.060  0.00  0.00    +0.000 A 
ATOM      2  C   UNL     1      49.097   9.949  15.259  0.00  0.00    +0.000 A 
ATOM      3  C   UNL     1      50.353   9.753  15.833  0.00  0.00    +0.000 A 
ATOM      4  C   UNL     1      50.737   8.483  16.271  0.00  0.00    +0.000 A 
ATOM      5  C   UNL     1      49.864   7.387  16.177  0.00  0.00    +0.000 A 
ATOM      6  C   UNL     1      48.633   7.602  15.528  0.00  0.00    +0.000 A 
ENDROOT
BRANCH   5   7
ATOM      7  C   UNL     1      50.191   6.074  16.772  0.00  0.00    +0.000 A 
ATOM      8  C   UNL     1      51.277   5.906  17.642  0.00  0.00    +0.000 A 
ATOM      9  N   UNL     1      51.594   4.732  18.241  0.00  0.00    +0.000 NA
ATOM     10  C   UNL     1      50.765   3.703  17.954  0.00  0.00    +0.000 A 
ATOM     11  C   UNL     1      49.678   3.846  17.106  0.00  0.00    +0.000 A 
ATOM     12  N   UNL     1      49.360   5.030  16.495  0.00  0.00    +0.000 NA
BRANCH  11  13
ATOM     13  C   UNL     1      48.803   2.667  16.855  0.00  0.00    +0.000 C 
ATOM     14  N   UNL     1      47.606   2.650  17.520  0.00  0.00    +0.000 N 
ATOM     15  O   UNL     1      49.130   1.759  16.099  0.00  0.00    +0.000 OA
ATOM     16  H   UNL     1      47.335   3.430  18.101  0.00  0.00    +0.000 HD
ATOM     17  H   UNL     1      46.967   1.882  17.358  0.00  0.00    +0.000 HD
ENDBRANCH  11  13
ENDBRANCH   5   7
BRANCH   1  18
ATOM     18  N   UNL     1      47.009   8.985  14.373  0.00  0.00    +0.000 N 
ATOM     19  H   UNL     1      46.447   9.749  14.742  0.00  0.00    +0.000 HD
BRANCH  18  20
ATOM     20  C   UNL     1      46.858   8.791  12.914  0.00  0.00    +0.000 C 
ATOM     21  C   UNL     1      46.829   9.938  11.923  0.00  0.00    +0.000 C 
ATOM     22  C   UNL     1      48.103   9.187  12.123  0.00  0.00    +0.000 C 
BRANCH  20  26
ATOM     23  C   UNL     1      44.659   5.220  11.939  0.00  0.00    +0.000 A 
ATOM     24  C   UNL     1      45.840   5.084  12.656  0.00  0.00    +0.000 A 
ATOM     25  C   UNL     1      46.575   6.234  12.953  0.00  0.00    +0.000 A 
ATOM     26  C   UNL     1      46.135   7.501  12.540  0.00  0.00    +0.000 A 
ATOM     27  C   UNL     1      44.945   7.508  11.806  0.00  0.00    +0.000 A 
ATOM     28  N   UNL     1      44.204   6.414  11.494  0.00  0.00    +0.000 NA
BRANCH  23  30
ATOM     29  N   UNL     1      43.135   3.172  11.440  0.00  0.00    +0.000 NA
ATOM     30  C   UNL     1      43.835   4.073  11.651  0.00  0.00    +0.000 C 
ENDBRANCH  23  30
ENDBRANCH  20  26
ENDBRANCH  18  20
ENDBRANCH   1  18
TORSDOF 6
ENDMDL
