MODEL 1
REMARK VINA RESULT:    -7.677      0.000      0.000
REMARK INTER + INTRA:         -12.045
REMARK INTER:                 -10.819
REMARK INTRA:                  -1.226
REMARK UNBOUND:                -1.226
REMARK  Name = 
REMARK  7 active torsions:
REMARK  status: ('A' for Active; 'I' for Inactive)
REMARK    1  A    between atoms: C_2  and  C_3
REMARK    2  A    between atoms: C_3  and  N_4
REMARK    3  A    between atoms: C_3  and  C_17
REMARK    4  A    between atoms: C_5  and  C_7
REMARK    5  A    between atoms: C_20  and  C_21
REMARK    6  A    between atoms: C_21  and  N_22
REMARK    7  A    between atoms: C_23  and  C_25
REMARK                            x       y       z     vdW  Elec       q    Type
REMARK                         _______ _______ _______ _____ _____    ______ ____
ROOT
ATOM      1  C   UNL     1      47.116   5.308  14.755  0.00  0.00    +0.000 C 
ENDROOT
BRANCH   1   2
ATOM      2  C   UNL     1      46.182   5.084  13.578  0.00  0.00    +0.000 A 
ATOM      3  C   UNL     1      45.587   6.169  12.917  0.00  0.00    +0.000 A 
ATOM      4  C   UNL     1      44.789   5.959  11.788  0.00  0.00    +0.000 A 
ATOM      5  C   UNL     1      44.569   4.664  11.301  0.00  0.00    +0.000 A 
ATOM      6  C   UNL     1      45.148   3.580  11.972  0.00  0.00    +0.000 A 
ATOM      7  C   UNL     1      45.928   3.784  13.108  0.00  0.00    +0.000 A 
BRANCH   5   8
ATOM      8  C   UNL     1      43.736   4.416  10.070  0.00  0.00    +0.000 C 
BRANCH   8   9
ATOM      9  N   UNL     1      44.422   3.611   9.092  0.00  0.00    +0.000 N 
ATOM     10  C   UNL     1      45.490   4.071   8.354  0.00  0.00    +0.000 C 
ATOM     11  O   UNL     1      45.969   5.193   8.474  0.00  0.00    +0.000 OA
ATOM     12  H   UNL     1      44.006   2.748   8.751  0.00  0.00    +0.000 HD
BRANCH  10  13
ATOM     13  C   UNL     1      46.060   3.042   7.369  0.00  0.00    +0.000 C 
ATOM     14  C   UNL     1      46.278   1.698   8.032  0.00  0.00    +0.000 C 
ATOM     15  C   UNL     1      47.232   1.009   7.077  0.00  0.00    +0.000 C 
ATOM     16  C   UNL     1      48.047   2.140   6.463  0.00  0.00    +0.000 C 
ATOM     17  N   UNL     1      47.422   3.399   6.890  0.00  0.00    +0.000 NA
ATOM     18  H   UNL     1      47.343   4.034   6.094  0.00  0.00    +0.000 HD
ENDBRANCH  10  13
ENDBRANCH   8   9
ENDBRANCH   5   8
ENDBRANCH   1   2
BRANCH   1  19
ATOM     19  N   UNL     1      48.264   6.089  14.328  0.00  0.00    +0.000 N 
ATOM     20  C   UNL     1      48.901   6.979  15.144  0.00  0.00    +0.000 C 
ATOM     21  O   UNL     1      48.510   7.208  16.285  0.00  0.00    +0.000 OA
ATOM     22  H   UNL     1      48.482   6.077  13.337  0.00  0.00    +0.000 HD
BRANCH  20  23
ATOM     23  C   UNL     1      50.102   7.619  14.592  0.00  0.00    +0.000 A 
ATOM     24  C   UNL     1      51.311   7.541  15.270  0.00  0.00    +0.000 A 
ATOM     25  S   UNL     1      52.590   8.348  14.478  0.00  0.00    +0.000 S 
ATOM     26  C   UNL     1      51.564   8.859  13.220  0.00  0.00    +0.000 A 
ATOM     27  N   UNL     1      52.024   9.642  12.210  0.00  0.00    +0.000 NA
ATOM     28  C   UNL     1      51.127   9.978  11.341  0.00  0.00    +0.000 A 
ATOM     29  N   UNL     1      49.815   9.589  11.386  0.00  0.00    +0.000 N 
ATOM     30  C   UNL     1      49.320   8.750  12.354  0.00  0.00    +0.000 A 
ATOM     31  O   UNL     1      48.169   8.335  12.309  0.00  0.00    +0.000 OA
ATOM     32  C   UNL     1      50.274   8.385  13.387  0.00  0.00    +0.000 A 
ATOM     33  H   UNL     1      49.170   9.859  10.658  0.00  0.00    +0.000 HD
ENDBRANCH  20  23
ENDBRANCH   1  19
BRANCH   1  35
ATOM     34  N   UNL     1      47.885   2.864  15.835  0.00  0.00    +0.000 NA
ATOM     35  C   UNL     1      47.536   3.972  15.346  0.00  0.00    +0.000 C 
ENDBRANCH   1  35
TORSDOF 7
ENDMDL
MODEL 2
REMARK VINA RESULT:    -7.421      3.819      5.662
REMARK INTER + INTRA:         -11.684
REMARK INTER:                 -10.569
REMARK INTRA:                  -1.115
REMARK UNBOUND:                -1.226
REMARK  Name = 
REMARK  7 active torsions:
REMARK  status: ('A' for Active; 'I' for Inactive)
REMARK    1  A    between atoms: C_2  and  C_3
REMARK    2  A    between atoms: C_3  and  N_4
REMARK    3  A    between atoms: C_3  and  C_17
REMARK    4  A    between atoms: C_5  and  C_7
REMARK    5  A    between atoms: C_20  and  C_21
REMARK    6  A    between atoms: C_21  and  N_22
REMARK    7  A    between atoms: C_23  and  C_25
REMARK                            x       y       z     vdW  Elec       q    Type
REMARK                         _______ _______ _______ _____ _____    ______ ____
ROOT
ATOM      1  C   UNL     1      48.276   4.707  17.127  0.00  0.00    +0.000 C 
ENDROOT
BRANCH   1   2
ATOM      2  C   UNL     1      47.950   5.203  15.730  0.00  0.00    +0.000 A 
ATOM      3  C   UNL     1      47.065   4.494  14.905  0.00  0.00    +0.000 A 
ATOM      4  C   UNL     1      46.709   4.996  13.649  0.00  0.00    +0.000 A 
ATOM      5  C   UNL     1      47.234   6.213  13.194  0.00  0.00    +0.000 A 
ATOM      6  C   UNL     1      48.131   6.912  14.010  0.00  0.00    +0.000 A 
ATOM      7  C   UNL     1      48.501   6.405  15.253  0.00  0.00    +0.000 A 
BRANCH   5   8
ATOM      8  C   UNL     1      46.844   6.788  11.856  0.00  0.00    +0.000 C 
BRANCH   8   9
ATOM      9  N   UNL     1      46.181   5.826  11.014  0.00  0.00    +0.000 N 
ATOM     10  C   UNL     1      44.811   5.699  10.950  0.00  0.00    +0.000 C 
ATOM     11  O   UNL     1      44.031   6.402  11.583  0.00  0.00    +0.000 OA
ATOM     12  H   UNL     1      46.701   5.056  10.601  0.00  0.00    +0.000 HD
BRANCH  10  13
ATOM     13  C   UNL     1      44.327   4.606   9.989  0.00  0.00    +0.000 C 
ATOM     14  C   UNL     1      44.761   3.230  10.449  0.00  0.00    +0.000 C 
ATOM     15  C   UNL     1      44.604   2.397   9.192  0.00  0.00    +0.000 C 
ATOM     16  C   UNL     1      44.869   3.369   8.050  0.00  0.00    +0.000 C 
ATOM     17  N   UNL     1      44.943   4.713   8.640  0.00  0.00    +0.000 NA
ATOM     18  H   UNL     1      44.403   5.369   8.075  0.00  0.00    +0.000 HD
ENDBRANCH  10  13
ENDBRANCH   8   9
ENDBRANCH   5   8
ENDBRANCH   1   2
BRANCH   1  19
ATOM     19  N   UNL     1      49.682   4.352  17.206  0.00  0.00    +0.000 N 
ATOM     20  C   UNL     1      50.400   4.413  18.366  0.00  0.00    +0.000 C 
ATOM     21  O   UNL     1      49.905   4.816  19.415  0.00  0.00    +0.000 OA
ATOM     22  H   UNL     1      50.169   4.214  16.326  0.00  0.00    +0.000 HD
BRANCH  20  23
ATOM     23  C   UNL     1      51.785   3.932  18.297  0.00  0.00    +0.000 A 
ATOM     24  C   UNL     1      52.836   4.770  18.647  0.00  0.00    +0.000 A 
ATOM     25  S   UNL     1      54.371   4.038  18.498  0.00  0.00    +0.000 S 
ATOM     26  C   UNL     1      53.687   2.588  17.927  0.00  0.00    +0.000 A 
ATOM     27  N   UNL     1      54.467   1.536  17.563  0.00  0.00    +0.000 NA
ATOM     28  C   UNL     1      53.813   0.513  17.120  0.00  0.00    +0.000 A 
ATOM     29  N   UNL     1      52.449   0.443  17.020  0.00  0.00    +0.000 N 
ATOM     30  C   UNL     1      51.620   1.457  17.432  0.00  0.00    +0.000 A 
ATOM     31  O   UNL     1      50.403   1.325  17.430  0.00  0.00    +0.000 OA
ATOM     32  C   UNL     1      52.304   2.653  17.889  0.00  0.00    +0.000 A 
ATOM     33  H   UNL     1      51.996  -0.399  16.696  0.00  0.00    +0.000 HD
ENDBRANCH  20  23
ENDBRANCH   1  19
BRANCH   1  35
ATOM     34  N   UNL     1      46.641   2.554  17.776  0.00  0.00    +0.000 NA
ATOM     35  C   UNL     1      47.382   3.530  17.483  0.00  0.00    +0.000 C 
ENDBRANCH   1  35
TORSDOF 7
ENDMDL
MODEL 3
REMARK VINA RESULT:    -7.405      3.092      3.756
REMARK INTER + INTRA:         -11.662
REMARK INTER:                 -10.451
REMARK INTRA:                  -1.211
REMARK UNBOUND:                -1.226
REMARK  Name = 
REMARK  7 active torsions:
REMARK  status: ('A' for Active; 'I' for Inactive)
REMARK    1  A    between atoms: C_2  and  C_3
REMARK    2  A    between atoms: C_3  and  N_4
REMARK    3  A    between atoms: C_3  and  C_17
REMARK    4  A    between atoms: C_5  and  C_7
REMARK    5  A    between atoms: C_20  and  C_21
REMARK    6  A    between atoms: C_21  and  N_22
REMARK    7  A    between atoms: C_23  and  C_25
REMARK                            x       y       z     vdW  Elec       q    Type
REMARK                         _______ _______ _______ _____ _____    ______ ____
ROOT
ATOM      1  C   UNL     1      47.264   4.356  15.898  0.00  0.00    +0.000 C 
ENDROOT
BRANCH   1   2
ATOM      2  C   UNL     1      46.858   4.760  14.491  0.00  0.00    +0.000 A 
ATOM      3  C   UNL     1      45.941   3.991  13.761  0.00  0.00    +0.000 A 
ATOM      4  C   UNL     1      45.513   4.409  12.497  0.00  0.00    +0.000 A 
ATOM      5  C   UNL     1      45.996   5.601  11.940  0.00  0.00    +0.000 A 
ATOM      6  C   UNL     1      46.926   6.359  12.661  0.00  0.00    +0.000 A 
ATOM      7  C   UNL     1      47.367   5.935  13.913  0.00  0.00    +0.000 A 
BRANCH   5   8
ATOM      8  C   UNL     1      45.529   6.086  10.591  0.00  0.00    +0.000 C 
BRANCH   8   9
ATOM      9  N   UNL     1      45.873   5.178   9.527  0.00  0.00    +0.000 N 
ATOM     10  C   UNL     1      44.963   4.330   8.938  0.00  0.00    +0.000 C 
ATOM     11  O   UNL     1      43.777   4.281   9.245  0.00  0.00    +0.000 OA
ATOM     12  H   UNL     1      46.847   4.971   9.321  0.00  0.00    +0.000 HD
BRANCH  10  13
ATOM     13  C   UNL     1      45.554   3.449   7.830  0.00  0.00    +0.000 C 
ATOM     14  C   UNL     1      46.018   2.112   8.369  0.00  0.00    +0.000 C 
ATOM     15  C   UNL     1      46.945   1.618   7.277  0.00  0.00    +0.000 C 
ATOM     16  C   UNL     1      47.533   2.884   6.668  0.00  0.00    +0.000 C 
ATOM     17  N   UNL     1      46.797   4.018   7.245  0.00  0.00    +0.000 NA
ATOM     18  H   UNL     1      46.550   4.680   6.509  0.00  0.00    +0.000 HD
ENDBRANCH  10  13
ENDBRANCH   8   9
ENDBRANCH   5   8
ENDBRANCH   1   2
BRANCH   1  19
ATOM     19  N   UNL     1      47.988   5.445  16.532  0.00  0.00    +0.000 N 
ATOM     20  C   UNL     1      47.871   5.740  17.859  0.00  0.00    +0.000 C 
ATOM     21  O   UNL     1      47.107   5.124  18.597  0.00  0.00    +0.000 OA
ATOM     22  H   UNL     1      48.464   6.096  15.916  0.00  0.00    +0.000 HD
BRANCH  20  23
ATOM     23  C   UNL     1      48.740   6.811  18.363  0.00  0.00    +0.000 A 
ATOM     24  C   UNL     1      48.218   7.816  19.168  0.00  0.00    +0.000 A 
ATOM     25  S   UNL     1      49.376   8.973  19.652  0.00  0.00    +0.000 S 
ATOM     26  C   UNL     1      50.607   8.192  18.774  0.00  0.00    +0.000 A 
ATOM     27  N   UNL     1      51.867   8.696  18.726  0.00  0.00    +0.000 NA
ATOM     28  C   UNL     1      52.690   8.015  17.997  0.00  0.00    +0.000 A 
ATOM     29  N   UNL     1      52.367   6.868  17.323  0.00  0.00    +0.000 N 
ATOM     30  C   UNL     1      51.123   6.289  17.391  0.00  0.00    +0.000 A 
ATOM     31  O   UNL     1      50.894   5.208  16.864  0.00  0.00    +0.000 OA
ATOM     32  C   UNL     1      50.144   7.043  18.154  0.00  0.00    +0.000 A 
ATOM     33  H   UNL     1      53.064   6.363  16.796  0.00  0.00    +0.000 HD
ENDBRANCH  20  23
ENDBRANCH   1  19
BRANCH   1  35
ATOM     34  N   UNL     1      48.786   2.029  15.815  0.00  0.00    +0.000 NA
ATOM     35  C   UNL     1      48.096   3.084  15.853  0.00  0.00    +0.000 C 
ENDBRANCH   1  35
TORSDOF 7
ENDMDL
MODEL 4
REMARK VINA RESULT:    -7.170      1.819      2.430
REMARK INTER + INTRA:         -11.330
REMARK INTER:                 -10.495
REMARK INTRA:                  -0.835
REMARK UNBOUND:                -1.226
REMARK  Name = 
REMARK  7 active torsions:
REMARK  status: ('A' for Active; 'I' for Inactive)
REMARK    1  A    between atoms: C_2  and  C_3
REMARK    2  A    between atoms: C_3  and  N_4
REMARK    3  A    between atoms: C_3  and  C_17
REMARK    4  A    between atoms: C_5  and  C_7
REMARK    5  A    between atoms: C_20  and  C_21
REMARK    6  A    between atoms: C_21  and  N_22
REMARK    7  A    between atoms: C_23  and  C_25
REMARK                            x       y       z     vdW  Elec       q    Type
REMARK                         _______ _______ _______ _____ _____    ______ ____
ROOT
ATOM      1  C   UNL     1      46.967   5.074  14.906  0.00  0.00    +0.000 C 
ENDROOT
BRANCH   1   2
ATOM      2  C   UNL     1      46.108   5.022  13.655  0.00  0.00    +0.000 A 
ATOM      3  C   UNL     1      46.145   6.062  12.715  0.00  0.00    +0.000 A 
ATOM      4  C   UNL     1      45.410   5.972  11.529  0.00  0.00    +0.000 A 
ATOM      5  C   UNL     1      44.623   4.844  11.262  0.00  0.00    +0.000 A 
ATOM      6  C   UNL     1      44.572   3.814  12.209  0.00  0.00    +0.000 A 
ATOM      7  C   UNL     1      45.289   3.909  13.399  0.00  0.00    +0.000 A 
BRANCH   5   8
ATOM      8  C   UNL     1      43.844   4.712   9.979  0.00  0.00    +0.000 C 
BRANCH   8   9
ATOM      9  N   UNL     1      44.481   3.830   9.034  0.00  0.00    +0.000 N 
ATOM     10  C   UNL     1      45.579   4.193   8.288  0.00  0.00    +0.000 C 
ATOM     11  O   UNL     1      46.130   5.285   8.371  0.00  0.00    +0.000 OA
ATOM     12  H   UNL     1      44.011   2.984   8.721  0.00  0.00    +0.000 HD
BRANCH  10  13
ATOM     13  C   UNL     1      46.085   3.095   7.344  0.00  0.00    +0.000 C 
ATOM     14  C   UNL     1      46.291   1.785   8.074  0.00  0.00    +0.000 C 
ATOM     15  C   UNL     1      47.191   1.016   7.127  0.00  0.00    +0.000 C 
ATOM     16  C   UNL     1      48.014   2.087   6.423  0.00  0.00    +0.000 C 
ATOM     17  N   UNL     1      47.438   3.385   6.798  0.00  0.00    +0.000 NA
ATOM     18  H   UNL     1      47.348   3.976   5.971  0.00  0.00    +0.000 HD
ENDBRANCH  10  13
ENDBRANCH   8   9
ENDBRANCH   5   8
ENDBRANCH   1   2
BRANCH   1  19
ATOM     19  N   UNL     1      48.024   6.056  14.736  0.00  0.00    +0.000 N 
ATOM     20  C   UNL     1      48.690   6.620  15.786  0.00  0.00    +0.000 C 
ATOM     21  O   UNL     1      48.403   6.360  16.951  0.00  0.00    +0.000 OA
ATOM     22  H   UNL     1      48.143   6.443  13.805  0.00  0.00    +0.000 HD
BRANCH  20  23
ATOM     23  C   UNL     1      49.794   7.525  15.442  0.00  0.00    +0.000 A 
ATOM     24  C   UNL     1      49.537   8.731  14.803  0.00  0.00    +0.000 A 
ATOM     25  S   UNL     1      50.942   9.645  14.481  0.00  0.00    +0.000 S 
ATOM     26  C   UNL     1      51.945   8.445  15.151  0.00  0.00    +0.000 A 
ATOM     27  N   UNL     1      53.297   8.579  15.156  0.00  0.00    +0.000 NA
ATOM     28  C   UNL     1      53.932   7.577  15.669  0.00  0.00    +0.000 A 
ATOM     29  N   UNL     1      53.336   6.459  16.189  0.00  0.00    +0.000 N 
ATOM     30  C   UNL     1      51.972   6.308  16.259  0.00  0.00    +0.000 A 
ATOM     31  O   UNL     1      51.466   5.347  16.824  0.00  0.00    +0.000 OA
ATOM     32  C   UNL     1      51.210   7.382  15.647  0.00  0.00    +0.000 A 
ATOM     33  H   UNL     1      53.887   5.724  16.606  0.00  0.00    +0.000 HD
ENDBRANCH  20  23
ENDBRANCH   1  19
BRANCH   1  35
ATOM     34  N   UNL     1      47.997   2.550  15.457  0.00  0.00    +0.000 NA
ATOM     35  C   UNL     1      47.530   3.695  15.208  0.00  0.00    +0.000 C 
ENDBRANCH   1  35
TORSDOF 7
ENDMDL
MODEL 5
REMARK VINA RESULT:    -7.024      4.110      8.697
REMARK INTER + INTRA:         -11.125
REMARK INTER:                 -10.025
REMARK INTRA:                  -1.100
REMARK UNBOUND:                -1.226
REMARK  Name = 
REMARK  7 active torsions:
REMARK  status: ('A' for Active; 'I' for Inactive)
REMARK    1  A    between atoms: C_2  and  C_3
REMARK    2  A    between atoms: C_3  and  N_4
REMARK    3  A    between atoms: C_3  and  C_17
REMARK    4  A    between atoms: C_5  and  C_7
REMARK    5  A    between atoms: C_20  and  C_21
REMARK    6  A    between atoms: C_21  and  N_22
REMARK    7  A    between atoms: C_23  and  C_25
REMARK                            x       y       z     vdW  Elec       q    Type
REMARK                         _______ _______ _______ _____ _____    ______ ____
ROOT
ATOM      1  C   UNL     1      47.957   6.937  13.693  0.00  0.00    +0.000 C 
ENDROOT
BRANCH   1   2
ATOM      2  C   UNL     1      48.284   6.209  14.985  0.00  0.00    +0.000 A 
ATOM      3  C   UNL     1      47.551   5.081  15.379  0.00  0.00    +0.000 A 
ATOM      4  C   UNL     1      47.906   4.370  16.530  0.00  0.00    +0.000 A 
ATOM      5  C   UNL     1      48.997   4.776  17.309  0.00  0.00    +0.000 A 
ATOM      6  C   UNL     1      49.718   5.913  16.927  0.00  0.00    +0.000 A 
ATOM      7  C   UNL     1      49.356   6.633  15.791  0.00  0.00    +0.000 A 
BRANCH   5   8
ATOM      8  C   UNL     1      49.416   4.011  18.539  0.00  0.00    +0.000 C 
BRANCH   8   9
ATOM      9  N   UNL     1      50.770   3.526  18.454  0.00  0.00    +0.000 N 
ATOM     10  C   UNL     1      51.155   2.515  17.602  0.00  0.00    +0.000 C 
ATOM     11  O   UNL     1      50.393   1.950  16.825  0.00  0.00    +0.000 OA
ATOM     12  H   UNL     1      51.447   3.760  19.175  0.00  0.00    +0.000 HD
BRANCH  10  13
ATOM     13  C   UNL     1      52.645   2.160  17.685  0.00  0.00    +0.000 C 
ATOM     14  C   UNL     1      52.871   0.670  17.536  0.00  0.00    +0.000 C 
ATOM     15  C   UNL     1      54.269   0.491  18.092  0.00  0.00    +0.000 C 
ATOM     16  C   UNL     1      54.407   1.580  19.147  0.00  0.00    +0.000 C 
ATOM     17  N   UNL     1      53.232   2.452  19.020  0.00  0.00    +0.000 NA
ATOM     18  H   UNL     1      53.521   3.430  19.053  0.00  0.00    +0.000 HD
ENDBRANCH  10  13
ENDBRANCH   8   9
ENDBRANCH   5   8
ENDBRANCH   1   2
BRANCH   1  19
ATOM     19  N   UNL     1      47.222   6.054  12.805  0.00  0.00    +0.000 N 
ATOM     20  C   UNL     1      46.285   6.503  11.920  0.00  0.00    +0.000 C 
ATOM     21  O   UNL     1      45.973   7.688  11.851  0.00  0.00    +0.000 OA
ATOM     22  H   UNL     1      47.306   5.057  12.979  0.00  0.00    +0.000 HD
BRANCH  20  23
ATOM     23  C   UNL     1      45.699   5.494  11.029  0.00  0.00    +0.000 A 
ATOM     24  C   UNL     1      45.824   5.619   9.651  0.00  0.00    +0.000 A 
ATOM     25  S   UNL     1      45.076   4.355   8.781  0.00  0.00    +0.000 S 
ATOM     26  C   UNL     1      44.529   3.616  10.213  0.00  0.00    +0.000 A 
ATOM     27  N   UNL     1      43.770   2.490  10.179  0.00  0.00    +0.000 NA
ATOM     28  C   UNL     1      43.401   2.058  11.341  0.00  0.00    +0.000 A 
ATOM     29  N   UNL     1      43.734   2.645  12.532  0.00  0.00    +0.000 N 
ATOM     30  C   UNL     1      44.547   3.748  12.617  0.00  0.00    +0.000 A 
ATOM     31  O   UNL     1      44.913   4.188  13.699  0.00  0.00    +0.000 OA
ATOM     32  C   UNL     1      44.947   4.307  11.338  0.00  0.00    +0.000 A 
ATOM     33  H   UNL     1      43.441   2.239  13.409  0.00  0.00    +0.000 HD
ENDBRANCH  20  23
ENDBRANCH   1  19
BRANCH   1  35
ATOM     34  N   UNL     1      50.296   7.862  12.507  0.00  0.00    +0.000 NA
ATOM     35  C   UNL     1      49.236   7.443  13.045  0.00  0.00    +0.000 C 
ENDBRANCH   1  35
TORSDOF 7
ENDMDL
MODEL 6
REMARK VINA RESULT:    -6.523      4.112      8.815
REMARK INTER + INTRA:         -10.419
REMARK INTER:                  -9.318
REMARK INTRA:                  -1.101
REMARK UNBOUND:                -1.226
REMARK  Name = 
REMARK  7 active torsions:
REMARK  status: ('A' for Active; 'I' for Inactive)
REMARK    1  A    between atoms: C_2  and  C_3
REMARK    2  A    between atoms: C_3  and  N_4
REMARK    3  A    between atoms: C_3  and  C_17
REMARK    4  A    between atoms: C_5  and  C_7
REMARK    5  A    between atoms: C_20  and  C_21
REMARK    6  A    between atoms: C_21  and  N_22
REMARK    7  A    between atoms: C_23  and  C_25
REMARK                            x       y       z     vdW  Elec       q    Type
REMARK                         _______ _______ _______ _____ _____    ______ ____
ROOT
ATOM      1  C   UNL     1      47.550   6.497  13.850  0.00  0.00    +0.000 C 
ENDROOT
BRANCH   1   2
ATOM      2  C   UNL     1      48.099   5.946  15.154  0.00  0.00    +0.000 A 
ATOM      3  C   UNL     1      47.582   4.767  15.709  0.00  0.00    +0.000 A 
ATOM      4  C   UNL     1      48.144   4.223  16.869  0.00  0.00    +0.000 A 
ATOM      5  C   UNL     1      49.229   4.850  17.496  0.00  0.00    +0.000 A 
ATOM      6  C   UNL     1      49.733   6.037  16.952  0.00  0.00    +0.000 A 
ATOM      7  C   UNL     1      49.164   6.590  15.808  0.00  0.00    +0.000 A 
BRANCH   5   8
ATOM      8  C   UNL     1      49.868   4.269  18.731  0.00  0.00    +0.000 C 
BRANCH   8   9
ATOM      9  N   UNL     1      50.933   3.349  18.421  0.00  0.00    +0.000 N 
ATOM     10  C   UNL     1      52.262   3.707  18.427  0.00  0.00    +0.000 C 
ATOM     11  O   UNL     1      52.665   4.828  18.715  0.00  0.00    +0.000 OA
ATOM     12  H   UNL     1      50.731   2.459  17.972  0.00  0.00    +0.000 HD
BRANCH  10  13
ATOM     13  C   UNL     1      53.220   2.566  18.062  0.00  0.00    +0.000 C 
ATOM     14  C   UNL     1      52.468   1.331  17.610  0.00  0.00    +0.000 C 
ATOM     15  C   UNL     1      53.510   0.240  17.748  0.00  0.00    +0.000 C 
ATOM     16  C   UNL     1      54.395   0.696  18.901  0.00  0.00    +0.000 C 
ATOM     17  N   UNL     1      53.996   2.071  19.230  0.00  0.00    +0.000 NA
ATOM     18  H   UNL     1      54.826   2.652  19.353  0.00  0.00    +0.000 HD
ENDBRANCH  10  13
ENDBRANCH   8   9
ENDBRANCH   5   8
ENDBRANCH   1   2
BRANCH   1  19
ATOM     19  N   UNL     1      46.752   5.482  13.185  0.00  0.00    +0.000 N 
ATOM     20  C   UNL     1      45.483   5.710  12.737  0.00  0.00    +0.000 C 
ATOM     21  O   UNL     1      44.917   6.786  12.911  0.00  0.00    +0.000 OA
ATOM     22  H   UNL     1      47.108   4.532  13.210  0.00  0.00    +0.000 HD
BRANCH  20  23
ATOM     23  C   UNL     1      44.847   4.608  12.004  0.00  0.00    +0.000 A 
ATOM     24  C   UNL     1      44.032   3.702  12.670  0.00  0.00    +0.000 A 
ATOM     25  S   UNL     1      43.387   2.491  11.654  0.00  0.00    +0.000 S 
ATOM     26  C   UNL     1      44.203   3.114  10.297  0.00  0.00    +0.000 A 
ATOM     27  N   UNL     1      44.117   2.510   9.084  0.00  0.00    +0.000 NA
ATOM     28  C   UNL     1      44.812   3.076   8.152  0.00  0.00    +0.000 A 
ATOM     29  N   UNL     1      45.577   4.199   8.324  0.00  0.00    +0.000 N 
ATOM     30  C   UNL     1      45.646   4.877   9.516  0.00  0.00    +0.000 A 
ATOM     31  O   UNL     1      46.252   5.936   9.612  0.00  0.00    +0.000 OA
ATOM     32  C   UNL     1      44.925   4.254  10.612  0.00  0.00    +0.000 A 
ATOM     33  H   UNL     1      46.072   4.612   7.548  0.00  0.00    +0.000 HD
ENDBRANCH  20  23
ENDBRANCH   1  19
BRANCH   1  35
ATOM     34  N   UNL     1      49.636   7.377  12.236  0.00  0.00    +0.000 NA
ATOM     35  C   UNL     1      48.691   6.978  12.968  0.00  0.00    +0.000 C 
ENDBRANCH   1  35
TORSDOF 7
ENDMDL
MODEL 7
REMARK VINA RESULT:    -5.118     11.267     13.936
REMARK INTER + INTRA:          -8.438
REMARK INTER:                  -7.356
REMARK INTRA:                  -1.082
REMARK UNBOUND:                -1.226
REMARK  Name = 
REMARK  7 active torsions:
REMARK  status: ('A' for Active; 'I' for Inactive)
REMARK    1  A    between atoms: C_2  and  C_3
REMARK    2  A    between atoms: C_3  and  N_4
REMARK    3  A    between atoms: C_3  and  C_17
REMARK    4  A    between atoms: C_5  and  C_7
REMARK    5  A    between atoms: C_20  and  C_21
REMARK    6  A    between atoms: C_21  and  N_22
REMARK    7  A    between atoms: C_23  and  C_25
REMARK                            x       y       z     vdW  Elec       q    Type
REMARK                         _______ _______ _______ _____ _____    ______ ____
ROOT
ATOM      1  C   UNL     1      41.305  -3.698  13.472  0.00  0.00    +0.000 C 
ENDROOT
BRANCH   1   2
ATOM      2  C   UNL     1      40.743  -3.168  14.779  0.00  0.00    +0.000 A 
ATOM      3  C   UNL     1      41.322  -3.525  16.006  0.00  0.00    +0.000 A 
ATOM      4  C   UNL     1      40.848  -2.973  17.200  0.00  0.00    +0.000 A 
ATOM      5  C   UNL     1      39.786  -2.058  17.191  0.00  0.00    +0.000 A 
ATOM      6  C   UNL     1      39.196  -1.717  15.968  0.00  0.00    +0.000 A 
ATOM      7  C   UNL     1      39.655  -2.278  14.779  0.00  0.00    +0.000 A 
BRANCH   5   8
ATOM      8  C   UNL     1      39.276  -1.430  18.462  0.00  0.00    +0.000 C 
BRANCH   8   9
ATOM      9  N   UNL     1      38.758  -0.102  18.253  0.00  0.00    +0.000 N 
ATOM     10  C   UNL     1      38.761   0.869  19.228  0.00  0.00    +0.000 C 
ATOM     11  O   UNL     1      39.222   0.706  20.352  0.00  0.00    +0.000 OA
ATOM     12  H   UNL     1      38.169   0.101  17.449  0.00  0.00    +0.000 HD
BRANCH  10  13
ATOM     13  C   UNL     1      38.154   2.206  18.783  0.00  0.00    +0.000 C 
ATOM     14  C   UNL     1      37.643   2.138  17.359  0.00  0.00    +0.000 C 
ATOM     15  C   UNL     1      37.528   3.601  16.979  0.00  0.00    +0.000 C 
ATOM     16  C   UNL     1      38.622   4.294  17.781  0.00  0.00    +0.000 C 
ATOM     17  N   UNL     1      39.159   3.301  18.721  0.00  0.00    +0.000 NA
ATOM     18  H   UNL     1      39.258   3.719  19.648  0.00  0.00    +0.000 HD
ENDBRANCH  10  13
ENDBRANCH   8   9
ENDBRANCH   5   8
ENDBRANCH   1   2
BRANCH   1  19
ATOM     19  N   UNL     1      40.299  -3.599  12.429  0.00  0.00    +0.000 N 
ATOM     20  C   UNL     1      40.328  -2.639  11.459  0.00  0.00    +0.000 C 
ATOM     21  O   UNL     1      41.191  -1.766  11.434  0.00  0.00    +0.000 OA
ATOM     22  H   UNL     1      39.468  -4.170  12.540  0.00  0.00    +0.000 HD
BRANCH  20  23
ATOM     23  C   UNL     1      39.289  -2.732  10.424  0.00  0.00    +0.000 A 
ATOM     24  C   UNL     1      39.309  -3.773   9.505  0.00  0.00    +0.000 A 
ATOM     25  S   UNL     1      38.027  -3.712   8.379  0.00  0.00    +0.000 S 
ATOM     26  C   UNL     1      37.423  -2.273   9.059  0.00  0.00    +0.000 A 
ATOM     27  N   UNL     1      36.338  -1.647   8.533  0.00  0.00    +0.000 NA
ATOM     28  C   UNL     1      36.010  -0.550   9.133  0.00  0.00    +0.000 A 
ATOM     29  N   UNL     1      36.663  -0.030  10.219  0.00  0.00    +0.000 N 
ATOM     30  C   UNL     1      37.725  -0.660  10.820  0.00  0.00    +0.000 A 
ATOM     31  O   UNL     1      38.221  -0.227  11.852  0.00  0.00    +0.000 OA
ATOM     32  C   UNL     1      38.169  -1.871  10.154  0.00  0.00    +0.000 A 
ATOM     33  H   UNL     1      36.337   0.815  10.664  0.00  0.00    +0.000 HD
ENDBRANCH  20  23
ENDBRANCH   1  19
BRANCH   1  35
ATOM     34  N   UNL     1      42.176  -6.318  13.807  0.00  0.00    +0.000 NA
ATOM     35  C   UNL     1      41.781  -5.130  13.654  0.00  0.00    +0.000 C 
ENDBRANCH   1  35
TORSDOF 7
ENDMDL
MODEL 8
REMARK VINA RESULT:    -5.017     11.215     12.226
REMARK INTER + INTRA:          -8.297
REMARK INTER:                  -7.050
REMARK INTRA:                  -1.246
REMARK UNBOUND:                -1.226
REMARK  Name = 
REMARK  7 active torsions:
REMARK  status: ('A' for Active; 'I' for Inactive)
REMARK    1  A    between atoms: C_2  and  C_3
REMARK    2  A    between atoms: C_3  and  N_4
REMARK    3  A    between atoms: C_3  and  C_17
REMARK    4  A    between atoms: C_5  and  C_7
REMARK    5  A    between atoms: C_20  and  C_21
REMARK    6  A    between atoms: C_21  and  N_22
REMARK    7  A    between atoms: C_23  and  C_25
REMARK                            x       y       z     vdW  Elec       q    Type
REMARK                         _______ _______ _______ _____ _____    ______ ____
ROOT
ATOM      1  C   UNL     1      40.067  -2.767  18.986  0.00  0.00    +0.000 C 
ENDROOT
BRANCH   1   2
ATOM      2  C   UNL     1      40.485  -3.143  17.575  0.00  0.00    +0.000 A 
ATOM      3  C   UNL     1      41.627  -3.925  17.350  0.00  0.00    +0.000 A 
ATOM      4  C   UNL     1      41.963  -4.331  16.054  0.00  0.00    +0.000 A 
ATOM      5  C   UNL     1      41.167  -3.961  14.962  0.00  0.00    +0.000 A 
ATOM      6  C   UNL     1      40.038  -3.165  15.186  0.00  0.00    +0.000 A 
ATOM      7  C   UNL     1      39.711  -2.744  16.473  0.00  0.00    +0.000 A 
BRANCH   5   8
ATOM      8  C   UNL     1      41.494  -4.409  13.561  0.00  0.00    +0.000 C 
BRANCH   8   9
ATOM      9  N   UNL     1      40.625  -3.819  12.575  0.00  0.00    +0.000 N 
ATOM     10  C   UNL     1      40.904  -2.630  11.942  0.00  0.00    +0.000 C 
ATOM     11  O   UNL     1      41.921  -1.974  12.138  0.00  0.00    +0.000 OA
ATOM     12  H   UNL     1      39.668  -4.146  12.470  0.00  0.00    +0.000 HD
BRANCH  10  13
ATOM     13  C   UNL     1      39.834  -2.191  10.933  0.00  0.00    +0.000 C 
ATOM     14  C   UNL     1      38.457  -2.156  11.563  0.00  0.00    +0.000 C 
ATOM     15  C   UNL     1      37.541  -2.164  10.356  0.00  0.00    +0.000 C 
ATOM     16  C   UNL     1      38.307  -2.946   9.296  0.00  0.00    +0.000 C 
ATOM     17  N   UNL     1      39.663  -3.161   9.819  0.00  0.00    +0.000 NA
ATOM     18  H   UNL     1      40.350  -2.960   9.091  0.00  0.00    +0.000 HD
ENDBRANCH  10  13
ENDBRANCH   8   9
ENDBRANCH   5   8
ENDBRANCH   1   2
BRANCH   1  19
ATOM     19  N   UNL     1      39.856  -1.333  19.070  0.00  0.00    +0.000 N 
ATOM     20  C   UNL     1      38.869  -0.771  19.828  0.00  0.00    +0.000 C 
ATOM     21  O   UNL     1      38.066  -1.453  20.457  0.00  0.00    +0.000 OA
ATOM     22  H   UNL     1      40.365  -0.756  18.408  0.00  0.00    +0.000 HD
BRANCH  20  23
ATOM     23  C   UNL     1      38.848   0.697  19.878  0.00  0.00    +0.000 A 
ATOM     24  C   UNL     1      39.110   1.360  21.070  0.00  0.00    +0.000 A 
ATOM     25  S   UNL     1      39.035   3.060  20.934  0.00  0.00    +0.000 S 
ATOM     26  C   UNL     1      38.615   2.968  19.288  0.00  0.00    +0.000 A 
ATOM     27  N   UNL     1      38.359   4.087  18.562  0.00  0.00    +0.000 NA
ATOM     28  C   UNL     1      38.023   3.863  17.334  0.00  0.00    +0.000 A 
ATOM     29  N   UNL     1      37.932   2.621  16.764  0.00  0.00    +0.000 N 
ATOM     30  C   UNL     1      38.240   1.467  17.442  0.00  0.00    +0.000 A 
ATOM     31  O   UNL     1      38.252   0.381  16.878  0.00  0.00    +0.000 OA
ATOM     32  C   UNL     1      38.572   1.656  18.843  0.00  0.00    +0.000 A 
ATOM     33  H   UNL     1      37.696   2.515  15.789  0.00  0.00    +0.000 HD
ENDBRANCH  20  23
ENDBRANCH   1  19
BRANCH   1  35
ATOM     34  N   UNL     1      41.988  -3.625  20.806  0.00  0.00    +0.000 NA
ATOM     35  C   UNL     1      41.117  -3.237  19.981  0.00  0.00    +0.000 C 
ENDBRANCH   1  35
TORSDOF 7
ENDMDL
MODEL 9
REMARK VINA RESULT:    -4.868      4.600      7.095
REMARK INTER + INTRA:          -8.086
REMARK INTER:                  -7.053
REMARK INTRA:                  -1.033
REMARK UNBOUND:                -1.226
REMARK  Name = 
REMARK  7 active torsions:
REMARK  status: ('A' for Active; 'I' for Inactive)
REMARK    1  A    between atoms: C_2  and  C_3
REMARK    2  A    between atoms: C_3  and  N_4
REMARK    3  A    between atoms: C_3  and  C_17
REMARK    4  A    between atoms: C_5  and  C_7
REMARK    5  A    between atoms: C_20  and  C_21
REMARK    6  A    between atoms: C_21  and  N_22
REMARK    7  A    between atoms: C_23  and  C_25
REMARK                            x       y       z     vdW  Elec       q    Type
REMARK                         _______ _______ _______ _____ _____    ______ ____
ROOT
ATOM      1  C   UNL     1      48.595   6.179  15.738  0.00  0.00    +0.000 C 
ENDROOT
BRANCH   1   2
ATOM      2  C   UNL     1      49.108   7.005  14.570  0.00  0.00    +0.000 A 
ATOM      3  C   UNL     1      50.093   7.983  14.762  0.00  0.00    +0.000 A 
ATOM      4  C   UNL     1      50.615   8.686  13.671  0.00  0.00    +0.000 A 
ATOM      5  C   UNL     1      50.160   8.427  12.372  0.00  0.00    +0.000 A 
ATOM      6  C   UNL     1      49.162   7.463  12.183  0.00  0.00    +0.000 A 
ATOM      7  C   UNL     1      48.628   6.774  13.270  0.00  0.00    +0.000 A 
BRANCH   5   8
ATOM      8  C   UNL     1      50.727   9.152  11.178  0.00  0.00    +0.000 C 
BRANCH   8   9
ATOM      9  N   UNL     1      51.712   8.372  10.475  0.00  0.00    +0.000 N 
ATOM     10  C   UNL     1      52.534   8.897   9.504  0.00  0.00    +0.000 C 
ATOM     11  O   UNL     1      52.521  10.075   9.162  0.00  0.00    +0.000 OA
ATOM     12  H   UNL     1      51.688   7.356  10.512  0.00  0.00    +0.000 HD
BRANCH  10  13
ATOM     13  C   UNL     1      53.503   7.881   8.886  0.00  0.00    +0.000 C 
ATOM     14  C   UNL     1      54.334   8.504   7.783  0.00  0.00    +0.000 C 
ATOM     15  C   UNL     1      54.848   7.292   7.032  0.00  0.00    +0.000 C 
ATOM     16  C   UNL     1      53.760   6.241   7.205  0.00  0.00    +0.000 C 
ATOM     17  N   UNL     1      52.803   6.771   8.186  0.00  0.00    +0.000 NA
ATOM     18  H   UNL     1      52.563   6.046   8.862  0.00  0.00    +0.000 HD
ENDBRANCH  10  13
ENDBRANCH   8   9
ENDBRANCH   5   8
ENDBRANCH   1   2
BRANCH   1  19
ATOM     19  N   UNL     1      49.708   5.525  16.403  0.00  0.00    +0.000 N 
ATOM     20  C   UNL     1      49.715   5.247  17.739  0.00  0.00    +0.000 C 
ATOM     21  O   UNL     1      48.789   5.576  18.475  0.00  0.00    +0.000 OA
ATOM     22  H   UNL     1      50.566   5.427  15.869  0.00  0.00    +0.000 HD
BRANCH  20  23
ATOM     23  C   UNL     1      50.876   4.499  18.239  0.00  0.00    +0.000 A 
ATOM     24  C   UNL     1      51.779   5.104  19.103  0.00  0.00    +0.000 A 
ATOM     25  S   UNL     1      53.063   4.082  19.572  0.00  0.00    +0.000 S 
ATOM     26  C   UNL     1      52.476   2.807  18.609  0.00  0.00    +0.000 A 
ATOM     27  N   UNL     1      53.142   1.627  18.520  0.00  0.00    +0.000 NA
ATOM     28  C   UNL     1      52.596   0.763  17.729  0.00  0.00    +0.000 A 
ATOM     29  N   UNL     1      51.437   0.969  17.030  0.00  0.00    +0.000 N 
ATOM     30  C   UNL     1      50.699   2.122  17.136  0.00  0.00    +0.000 A 
ATOM     31  O   UNL     1      49.613   2.237  16.583  0.00  0.00    +0.000 OA
ATOM     32  C   UNL     1      51.295   3.150  17.972  0.00  0.00    +0.000 A 
ATOM     33  H   UNL     1      51.043   0.240  16.453  0.00  0.00    +0.000 HD
ENDBRANCH  20  23
ENDBRANCH   1  19
BRANCH   1  35
ATOM     34  N   UNL     1      46.712   4.338  14.844  0.00  0.00    +0.000 NA
ATOM     35  C   UNL     1      47.566   5.172  15.249  0.00  0.00    +0.000 C 
ENDBRANCH   1  35
TORSDOF 7
ENDMDL
