MODEL 1
REMARK VINA RESULT:    -8.216      0.000      0.000
REMARK INTER + INTRA:         -12.424
REMARK INTER:                 -11.578
REMARK INTRA:                  -0.845
REMARK UNBOUND:                -0.845
REMARK  Name = 
REMARK  8 active torsions:
REMARK  status: ('A' for Active; 'I' for Inactive)
REMARK    1  A    between atoms: C_1  and  O_2
REMARK    2  A    between atoms: O_2  and  C_3
REMARK    3  A    between atoms: C_8  and  C_9
REMARK    4  A    between atoms: N_11  and  C_12
REMARK    5  A    between atoms: C_12  and  C_13
REMARK    6  A    between atoms: C_16  and  C_17
REMARK    7  A    between atoms: C_17  and  N_18
REMARK    8  A    between atoms: C_19  and  C_21
REMARK                            x       y       z     vdW  Elec       q    Type
REMARK                         _______ _______ _______ _____ _____    ______ ____
ROOT
ATOM      1  C   UNL     1      45.161   4.203  12.946  0.00  0.00    +0.000 C 
ATOM      2  C   UNL     1      45.580   5.518  12.271  0.00  0.00    +0.000 C 
ATOM      3  C   UNL     1      46.293   6.465  13.237  0.00  0.00    +0.000 C 
ATOM      4  C   UNL     1      47.517   5.803  13.891  0.00  0.00    +0.000 C 
ATOM      5  C   UNL     1      47.096   4.496  14.583  0.00  0.00    +0.000 C 
ATOM      6  C   UNL     1      46.370   3.545  13.632  0.00  0.00    +0.000 C 
ENDROOT
BRANCH   1   7
ATOM      7  C   UNL     1      44.536   3.218  11.938  0.00  0.00    +0.000 C 
BRANCH   7  10
ATOM      8  C   UNL     1      44.896   2.344   9.641  0.00  0.00    +0.000 C 
ATOM      9  O   UNL     1      43.833   1.730   9.640  0.00  0.00    +0.000 OA
ATOM     10  N   UNL     1      45.322   3.067  10.731  0.00  0.00    +0.000 N 
ATOM     11  H   UNL     1      46.208   3.555  10.659  0.00  0.00    +0.000 HD
BRANCH   8  17
ATOM     12  C   UNL     1      46.018   3.459   7.592  0.00  0.00    +0.000 A 
ATOM     13  C   UNL     1      46.821   3.302   6.450  0.00  0.00    +0.000 A 
ATOM     14  C   UNL     1      47.369   2.060   6.120  0.00  0.00    +0.000 A 
ATOM     15  C   UNL     1      47.135   0.959   6.934  0.00  0.00    +0.000 A 
ATOM     16  C   UNL     1      46.345   1.101   8.074  0.00  0.00    +0.000 A 
ATOM     17  C   UNL     1      45.771   2.342   8.417  0.00  0.00    +0.000 A 
BRANCH  12  19
ATOM     18  C   UNL     1      46.303   5.490   8.813  0.00  0.00    +0.000 C 
ATOM     19  O   UNL     1      45.499   4.675   7.966  0.00  0.00    +0.000 OA
ENDBRANCH  12  19
ENDBRANCH   8  17
ENDBRANCH   7  10
ENDBRANCH   1   7
BRANCH   4  20
ATOM     20  C   UNL     1      48.206   6.735  14.904  0.00  0.00    +0.000 C 
BRANCH  20  21
ATOM     21  N   UNL     1      49.345   6.126  15.560  0.00  0.00    +0.000 N 
ATOM     22  C   UNL     1      49.299   5.672  16.856  0.00  0.00    +0.000 C 
ATOM     23  O   UNL     1      48.281   5.755  17.538  0.00  0.00    +0.000 OA
ATOM     24  H   UNL     1      50.233   6.148  15.069  0.00  0.00    +0.000 HD
BRANCH  22  25
ATOM     25  C   UNL     1      50.509   5.020  17.372  0.00  0.00    +0.000 A 
ATOM     26  C   UNL     1      51.527   5.801  17.906  0.00  0.00    +0.000 A 
ATOM     27  S   UNL     1      52.850   4.899  18.492  0.00  0.00    +0.000 S 
ATOM     28  C   UNL     1      52.136   3.435  18.009  0.00  0.00    +0.000 A 
ATOM     29  N   UNL     1      52.780   2.250  18.199  0.00  0.00    +0.000 NA
ATOM     30  C   UNL     1      52.145   1.221  17.752  0.00  0.00    +0.000 A 
ATOM     31  N   UNL     1      50.920   1.265  17.139  0.00  0.00    +0.000 N 
ATOM     32  C   UNL     1      50.208   2.431  16.973  0.00  0.00    +0.000 A 
ATOM     33  O   UNL     1      49.075   2.424  16.501  0.00  0.00    +0.000 OA
ATOM     34  C   UNL     1      50.894   3.627  17.431  0.00  0.00    +0.000 A 
ATOM     35  H   UNL     1      50.469   0.417  16.826  0.00  0.00    +0.000 HD
ENDBRANCH  22  25
ENDBRANCH  20  21
ENDBRANCH   4  20
TORSDOF 7
ENDMDL
MODEL 2
REMARK VINA RESULT:    -7.588      2.277      2.705
REMARK INTER + INTRA:         -11.538
REMARK INTER:                 -10.443
REMARK INTRA:                  -1.096
REMARK UNBOUND:                -0.845
REMARK  Name = 
REMARK  8 active torsions:
REMARK  status: ('A' for Active; 'I' for Inactive)
REMARK    1  A    between atoms: C_1  and  O_2
REMARK    2  A    between atoms: O_2  and  C_3
REMARK    3  A    between atoms: C_8  and  C_9
REMARK    4  A    between atoms: N_11  and  C_12
REMARK    5  A    between atoms: C_12  and  C_13
REMARK    6  A    between atoms: C_16  and  C_17
REMARK    7  A    between atoms: C_17  and  N_18
REMARK    8  A    between atoms: C_19  and  C_21
REMARK                            x       y       z     vdW  Elec       q    Type
REMARK                         _______ _______ _______ _____ _____    ______ ____
ROOT
ATOM      1  C   UNL     1      45.347   4.343  13.066  0.00  0.00    +0.000 C 
ATOM      2  C   UNL     1      45.500   5.610  12.211  0.00  0.00    +0.000 C 
ATOM      3  C   UNL     1      46.231   6.728  12.956  0.00  0.00    +0.000 C 
ATOM      4  C   UNL     1      47.609   6.274  13.463  0.00  0.00    +0.000 C 
ATOM      5  C   UNL     1      47.456   5.016  14.334  0.00  0.00    +0.000 C 
ATOM      6  C   UNL     1      46.715   3.895  13.607  0.00  0.00    +0.000 C 
ENDROOT
BRANCH   1   7
ATOM      7  C   UNL     1      44.701   3.192  12.270  0.00  0.00    +0.000 C 
BRANCH   7  10
ATOM      8  C   UNL     1      44.804   2.679   9.842  0.00  0.00    +0.000 C 
ATOM      9  O   UNL     1      43.583   2.724   9.716  0.00  0.00    +0.000 OA
ATOM     10  N   UNL     1      45.421   2.868  11.057  0.00  0.00    +0.000 N 
ATOM     11  H   UNL     1      46.434   2.823  11.085  0.00  0.00    +0.000 HD
BRANCH   8  17
ATOM     12  C   UNL     1      46.059   3.413   7.700  0.00  0.00    +0.000 A 
ATOM     13  C   UNL     1      46.843   3.034   6.598  0.00  0.00    +0.000 A 
ATOM     14  C   UNL     1      47.242   1.706   6.421  0.00  0.00    +0.000 A 
ATOM     15  C   UNL     1      46.876   0.741   7.350  0.00  0.00    +0.000 A 
ATOM     16  C   UNL     1      46.103   1.104   8.452  0.00  0.00    +0.000 A 
ATOM     17  C   UNL     1      45.678   2.434   8.642  0.00  0.00    +0.000 A 
BRANCH  12  19
ATOM     18  C   UNL     1      46.476   5.469   8.837  0.00  0.00    +0.000 C 
ATOM     19  O   UNL     1      45.685   4.716   7.924  0.00  0.00    +0.000 OA
ENDBRANCH  12  19
ENDBRANCH   8  17
ENDBRANCH   7  10
ENDBRANCH   1   7
BRANCH   4  20
ATOM     20  C   UNL     1      48.326   7.380  14.259  0.00  0.00    +0.000 C 
BRANCH  20  21
ATOM     21  N   UNL     1      48.223   7.210  15.695  0.00  0.00    +0.000 N 
ATOM     22  C   UNL     1      49.104   7.789  16.574  0.00  0.00    +0.000 C 
ATOM     23  O   UNL     1      50.036   8.492  16.193  0.00  0.00    +0.000 OA
ATOM     24  H   UNL     1      47.539   6.542  16.037  0.00  0.00    +0.000 HD
BRANCH  22  25
ATOM     25  C   UNL     1      48.843   7.582  18.005  0.00  0.00    +0.000 A 
ATOM     26  C   UNL     1      48.595   8.682  18.816  0.00  0.00    +0.000 A 
ATOM     27  S   UNL     1      48.280   8.280  20.443  0.00  0.00    +0.000 S 
ATOM     28  C   UNL     1      48.512   6.625  20.135  0.00  0.00    +0.000 A 
ATOM     29  N   UNL     1      48.413   5.710  21.139  0.00  0.00    +0.000 NA
ATOM     30  C   UNL     1      48.651   4.495  20.778  0.00  0.00    +0.000 A 
ATOM     31  N   UNL     1      48.971   4.109  19.502  0.00  0.00    +0.000 N 
ATOM     32  C   UNL     1      49.031   4.989  18.446  0.00  0.00    +0.000 A 
ATOM     33  O   UNL     1      49.232   4.597  17.301  0.00  0.00    +0.000 OA
ATOM     34  C   UNL     1      48.802   6.379  18.806  0.00  0.00    +0.000 A 
ATOM     35  H   UNL     1      49.130   3.136  19.283  0.00  0.00    +0.000 HD
ENDBRANCH  22  25
ENDBRANCH  20  21
ENDBRANCH   4  20
TORSDOF 7
ENDMDL
MODEL 3
REMARK VINA RESULT:    -7.542      3.299      9.706
REMARK INTER + INTRA:         -11.474
REMARK INTER:                 -10.291
REMARK INTRA:                  -1.183
REMARK UNBOUND:                -0.845
REMARK  Name = 
REMARK  8 active torsions:
REMARK  status: ('A' for Active; 'I' for Inactive)
REMARK    1  A    between atoms: C_1  and  O_2
REMARK    2  A    between atoms: O_2  and  C_3
REMARK    3  A    between atoms: C_8  and  C_9
REMARK    4  A    between atoms: N_11  and  C_12
REMARK    5  A    between atoms: C_12  and  C_13
REMARK    6  A    between atoms: C_16  and  C_17
REMARK    7  A    between atoms: C_17  and  N_18
REMARK    8  A    between atoms: C_19  and  C_21
REMARK                            x       y       z     vdW  Elec       q    Type
REMARK                         _______ _______ _______ _____ _____    ______ ____
ROOT
ATOM      1  C   UNL     1      47.010   5.897  13.114  0.00  0.00    +0.000 C 
ATOM      2  C   UNL     1      45.620   6.509  12.879  0.00  0.00    +0.000 C 
ATOM      3  C   UNL     1      44.714   5.592  12.055  0.00  0.00    +0.000 C 
ATOM      4  C   UNL     1      44.569   4.202  12.695  0.00  0.00    +0.000 C 
ATOM      5  C   UNL     1      45.958   3.581  12.915  0.00  0.00    +0.000 C 
ATOM      6  C   UNL     1      46.879   4.491  13.725  0.00  0.00    +0.000 C 
ENDROOT
BRANCH   1   7
ATOM      7  C   UNL     1      47.876   6.783  14.030  0.00  0.00    +0.000 C 
BRANCH   7  10
ATOM      8  C   UNL     1      49.239   6.248  16.037  0.00  0.00    +0.000 C 
ATOM      9  O   UNL     1      50.269   6.688  15.532  0.00  0.00    +0.000 OA
ATOM     10  N   UNL     1      48.042   6.233  15.359  0.00  0.00    +0.000 N 
ATOM     11  H   UNL     1      47.231   5.861  15.841  0.00  0.00    +0.000 HD
BRANCH   8  17
ATOM     12  C   UNL     1      48.536   4.596  17.901  0.00  0.00    +0.000 A 
ATOM     13  C   UNL     1      48.604   4.244  19.260  0.00  0.00    +0.000 A 
ATOM     14  C   UNL     1      49.362   4.996  20.161  0.00  0.00    +0.000 A 
ATOM     15  C   UNL     1      50.075   6.102  19.716  0.00  0.00    +0.000 A 
ATOM     16  C   UNL     1      50.023   6.459  18.369  0.00  0.00    +0.000 A 
ATOM     17  C   UNL     1      49.253   5.723  17.446  0.00  0.00    +0.000 A 
BRANCH  12  19
ATOM     18  C   UNL     1      48.375   2.588  16.622  0.00  0.00    +0.000 C 
ATOM     19  O   UNL     1      47.833   3.854  16.982  0.00  0.00    +0.000 OA
ENDBRANCH  12  19
ENDBRANCH   8  17
ENDBRANCH   7  10
ENDBRANCH   1   7
BRANCH   4  20
ATOM     20  C   UNL     1      43.701   3.260  11.841  0.00  0.00    +0.000 C 
BRANCH  20  21
ATOM     21  N   UNL     1      44.462   2.515  10.859  0.00  0.00    +0.000 N 
ATOM     22  C   UNL     1      44.575   2.915   9.550  0.00  0.00    +0.000 C 
ATOM     23  O   UNL     1      44.036   3.937   9.134  0.00  0.00    +0.000 OA
ATOM     24  H   UNL     1      44.822   1.607  11.138  0.00  0.00    +0.000 HD
BRANCH  22  25
ATOM     25  C   UNL     1      45.429   2.097   8.679  0.00  0.00    +0.000 A 
ATOM     26  C   UNL     1      45.327   0.712   8.734  0.00  0.00    +0.000 A 
ATOM     27  S   UNL     1      46.357  -0.097   7.643  0.00  0.00    +0.000 S 
ATOM     28  C   UNL     1      47.015   1.370   7.091  0.00  0.00    +0.000 A 
ATOM     29  N   UNL     1      47.997   1.381   6.148  0.00  0.00    +0.000 NA
ATOM     30  C   UNL     1      48.434   2.557   5.848  0.00  0.00    +0.000 A 
ATOM     31  N   UNL     1      47.972   3.724   6.398  0.00  0.00    +0.000 N 
ATOM     32  C   UNL     1      46.946   3.767   7.314  0.00  0.00    +0.000 A 
ATOM     33  O   UNL     1      46.498   4.834   7.720  0.00  0.00    +0.000 OA
ATOM     34  C   UNL     1      46.439   2.464   7.712  0.00  0.00    +0.000 A 
ATOM     35  H   UNL     1      48.348   4.615   6.106  0.00  0.00    +0.000 HD
ENDBRANCH  22  25
ENDBRANCH  20  21
ENDBRANCH   4  20
TORSDOF 7
ENDMDL
MODEL 4
REMARK VINA RESULT:    -7.436      1.108      2.036
REMARK INTER + INTRA:         -11.325
REMARK INTER:                 -10.712
REMARK INTRA:                  -0.613
REMARK UNBOUND:                -0.845
REMARK  Name = 
REMARK  8 active torsions:
REMARK  status: ('A' for Active; 'I' for Inactive)
REMARK    1  A    between atoms: C_1  and  O_2
REMARK    2  A    between atoms: O_2  and  C_3
REMARK    3  A    between atoms: C_8  and  C_9
REMARK    4  A    between atoms: N_11  and  C_12
REMARK    5  A    between atoms: C_12  and  C_13
REMARK    6  A    between atoms: C_16  and  C_17
REMARK    7  A    between atoms: C_17  and  N_18
REMARK    8  A    between atoms: C_19  and  C_21
REMARK                            x       y       z     vdW  Elec       q    Type
REMARK                         _______ _______ _______ _____ _____    ______ ____
ROOT
ATOM      1  C   UNL     1      45.589   5.973  11.656  0.00  0.00    +0.000 C 
ATOM      2  C   UNL     1      46.930   6.415  12.262  0.00  0.00    +0.000 C 
ATOM      3  C   UNL     1      47.042   6.054  13.744  0.00  0.00    +0.000 C 
ATOM      4  C   UNL     1      46.834   4.551  13.986  0.00  0.00    +0.000 C 
ATOM      5  C   UNL     1      45.485   4.109  13.395  0.00  0.00    +0.000 C 
ATOM      6  C   UNL     1      45.352   4.476  11.918  0.00  0.00    +0.000 C 
ENDROOT
BRANCH   1   7
ATOM      7  C   UNL     1      45.530   6.250  10.140  0.00  0.00    +0.000 C 
BRANCH   7  10
ATOM      8  C   UNL     1      45.353   4.332   8.571  0.00  0.00    +0.000 C 
ATOM      9  O   UNL     1      44.126   4.388   8.542  0.00  0.00    +0.000 OA
ATOM     10  N   UNL     1      46.105   5.185   9.346  0.00  0.00    +0.000 N 
ATOM     11  H   UNL     1      47.114   5.086   9.315  0.00  0.00    +0.000 HD
BRANCH   8  17
ATOM     12  C   UNL     1      46.253   1.962   8.049  0.00  0.00    +0.000 A 
ATOM     13  C   UNL     1      47.002   1.143   7.188  0.00  0.00    +0.000 A 
ATOM     14  C   UNL     1      47.582   1.659   6.026  0.00  0.00    +0.000 A 
ATOM     15  C   UNL     1      47.411   2.998   5.700  0.00  0.00    +0.000 A 
ATOM     16  C   UNL     1      46.666   3.823   6.542  0.00  0.00    +0.000 A 
ATOM     17  C   UNL     1      46.084   3.325   7.725  0.00  0.00    +0.000 A 
BRANCH  12  19
ATOM     18  C   UNL     1      44.238   1.224   9.091  0.00  0.00    +0.000 C 
ATOM     19  O   UNL     1      45.637   1.477   9.177  0.00  0.00    +0.000 OA
ENDBRANCH  12  19
ENDBRANCH   8  17
ENDBRANCH   7  10
ENDBRANCH   1   7
BRANCH   4  20
ATOM     20  C   UNL     1      46.894   4.192  15.482  0.00  0.00    +0.000 C 
BRANCH  20  21
ATOM     21  N   UNL     1      48.246   4.048  15.983  0.00  0.00    +0.000 N 
ATOM     22  C   UNL     1      48.700   4.716  17.094  0.00  0.00    +0.000 C 
ATOM     23  O   UNL     1      47.979   5.477  17.734  0.00  0.00    +0.000 OA
ATOM     24  H   UNL     1      48.901   3.522  15.413  0.00  0.00    +0.000 HD
BRANCH  22  25
ATOM     25  C   UNL     1      50.074   4.428  17.524  0.00  0.00    +0.000 A 
ATOM     26  C   UNL     1      50.859   5.459  18.025  0.00  0.00    +0.000 A 
ATOM     27  S   UNL     1      52.416   4.964  18.511  0.00  0.00    +0.000 S 
ATOM     28  C   UNL     1      52.119   3.364  18.023  0.00  0.00    +0.000 A 
ATOM     29  N   UNL     1      53.083   2.410  18.141  0.00  0.00    +0.000 NA
ATOM     30  C   UNL     1      52.741   1.248  17.697  0.00  0.00    +0.000 A 
ATOM     31  N   UNL     1      51.518   0.950  17.154  0.00  0.00    +0.000 N 
ATOM     32  C   UNL     1      50.496   1.867  17.062  0.00  0.00    +0.000 A 
ATOM     33  O   UNL     1      49.386   1.544  16.652  0.00  0.00    +0.000 OA
ATOM     34  C   UNL     1      50.841   3.203  17.519  0.00  0.00    +0.000 A 
ATOM     35  H   UNL     1      51.309   0.014  16.839  0.00  0.00    +0.000 HD
ENDBRANCH  22  25
ENDBRANCH  20  21
ENDBRANCH   4  20
TORSDOF 7
ENDMDL
MODEL 5
REMARK VINA RESULT:    -7.351      2.159      2.802
REMARK INTER + INTRA:         -11.205
REMARK INTER:                 -10.532
REMARK INTRA:                  -0.673
REMARK UNBOUND:                -0.845
REMARK  Name = 
REMARK  8 active torsions:
REMARK  status: ('A' for Active; 'I' for Inactive)
REMARK    1  A    between atoms: C_1  and  O_2
REMARK    2  A    between atoms: O_2  and  C_3
REMARK    3  A    between atoms: C_8  and  C_9
REMARK    4  A    between atoms: N_11  and  C_12
REMARK    5  A    between atoms: C_12  and  C_13
REMARK    6  A    between atoms: C_16  and  C_17
REMARK    7  A    between atoms: C_17  and  N_18
REMARK    8  A    between atoms: C_19  and  C_21
REMARK                            x       y       z     vdW  Elec       q    Type
REMARK                         _______ _______ _______ _____ _____    ______ ____
ROOT
ATOM      1  C   UNL     1      44.441   5.243  11.363  0.00  0.00    +0.000 C 
ATOM      2  C   UNL     1      45.037   6.443  10.611  0.00  0.00    +0.000 C 
ATOM      3  C   UNL     1      45.653   7.473  11.559  0.00  0.00    +0.000 C 
ATOM      4  C   UNL     1      46.721   6.848  12.471  0.00  0.00    +0.000 C 
ATOM      5  C   UNL     1      46.121   5.658  13.237  0.00  0.00    +0.000 C 
ATOM      6  C   UNL     1      45.490   4.626  12.304  0.00  0.00    +0.000 C 
ENDROOT
BRANCH   1   7
ATOM      7  C   UNL     1      43.916   4.166  10.393  0.00  0.00    +0.000 C 
BRANCH   7  10
ATOM      8  C   UNL     1      45.207   2.660   8.898  0.00  0.00    +0.000 C 
ATOM      9  O   UNL     1      44.865   1.653   9.513  0.00  0.00    +0.000 OA
ATOM     10  N   UNL     1      44.810   3.920   9.281  0.00  0.00    +0.000 N 
ATOM     11  H   UNL     1      45.124   4.706   8.722  0.00  0.00    +0.000 HD
BRANCH   8  17
ATOM     12  C   UNL     1      46.838   1.409   7.325  0.00  0.00    +0.000 A 
ATOM     13  C   UNL     1      47.636   1.452   6.169  0.00  0.00    +0.000 A 
ATOM     14  C   UNL     1      47.681   2.594   5.367  0.00  0.00    +0.000 A 
ATOM     15  C   UNL     1      46.918   3.707   5.699  0.00  0.00    +0.000 A 
ATOM     16  C   UNL     1      46.116   3.677   6.840  0.00  0.00    +0.000 A 
ATOM     17  C   UNL     1      46.068   2.540   7.670  0.00  0.00    +0.000 A 
BRANCH  12  19
ATOM     18  C   UNL     1      46.477  -0.946   7.451  0.00  0.00    +0.000 C 
ATOM     19  O   UNL     1      46.741   0.287   8.112  0.00  0.00    +0.000 OA
ENDBRANCH  12  19
ENDBRANCH   8  17
ENDBRANCH   7  10
ENDBRANCH   1   7
BRANCH   4  20
ATOM     20  C   UNL     1      47.305   7.871  13.462  0.00  0.00    +0.000 C 
BRANCH  20  21
ATOM     21  N   UNL     1      47.676   7.286  14.735  0.00  0.00    +0.000 N 
ATOM     22  C   UNL     1      48.969   6.937  15.042  0.00  0.00    +0.000 C 
ATOM     23  O   UNL     1      49.893   7.105  14.251  0.00  0.00    +0.000 OA
ATOM     24  H   UNL     1      46.924   7.025  15.365  0.00  0.00    +0.000 HD
BRANCH  22  25
ATOM     25  C   UNL     1      49.210   6.412  16.392  0.00  0.00    +0.000 A 
ATOM     26  C   UNL     1      49.935   7.175  17.299  0.00  0.00    +0.000 A 
ATOM     27  S   UNL     1      50.104   6.447  18.831  0.00  0.00    +0.000 S 
ATOM     28  C   UNL     1      49.258   5.062  18.326  0.00  0.00    +0.000 A 
ATOM     29  N   UNL     1      49.070   4.014  19.174  0.00  0.00    +0.000 NA
ATOM     30  C   UNL     1      48.448   3.012  18.653  0.00  0.00    +0.000 A 
ATOM     31  N   UNL     1      47.987   2.965  17.363  0.00  0.00    +0.000 N 
ATOM     32  C   UNL     1      48.106   4.019  16.487  0.00  0.00    +0.000 A 
ATOM     33  O   UNL     1      47.604   3.977  15.368  0.00  0.00    +0.000 OA
ATOM     34  C   UNL     1      48.831   5.163  17.015  0.00  0.00    +0.000 A 
ATOM     35  H   UNL     1      47.491   2.154  17.022  0.00  0.00    +0.000 HD
ENDBRANCH  22  25
ENDBRANCH  20  21
ENDBRANCH   4  20
TORSDOF 7
ENDMDL
MODEL 6
REMARK VINA RESULT:    -7.281      3.549      9.224
REMARK INTER + INTRA:         -11.105
REMARK INTER:                  -9.940
REMARK INTRA:                  -1.166
REMARK UNBOUND:                -0.845
REMARK  Name = 
REMARK  8 active torsions:
REMARK  status: ('A' for Active; 'I' for Inactive)
REMARK    1  A    between atoms: C_1  and  O_2
REMARK    2  A    between atoms: O_2  and  C_3
REMARK    3  A    between atoms: C_8  and  C_9
REMARK    4  A    between atoms: N_11  and  C_12
REMARK    5  A    between atoms: C_12  and  C_13
REMARK    6  A    between atoms: C_16  and  C_17
REMARK    7  A    between atoms: C_17  and  N_18
REMARK    8  A    between atoms: C_19  and  C_21
REMARK                            x       y       z     vdW  Elec       q    Type
REMARK                         _______ _______ _______ _____ _____    ______ ____
ROOT
ATOM      1  C   UNL     1      50.393   7.822  15.949  0.00  0.00    +0.000 C 
ATOM      2  C   UNL     1      49.431   6.688  15.564  0.00  0.00    +0.000 C 
ATOM      3  C   UNL     1      48.539   7.062  14.379  0.00  0.00    +0.000 C 
ATOM      4  C   UNL     1      49.362   7.485  13.151  0.00  0.00    +0.000 C 
ATOM      5  C   UNL     1      50.313   8.632  13.531  0.00  0.00    +0.000 C 
ATOM      6  C   UNL     1      51.202   8.278  14.722  0.00  0.00    +0.000 C 
ENDROOT
BRANCH   1   7
ATOM      7  C   UNL     1      51.355   7.396  17.075  0.00  0.00    +0.000 C 
BRANCH   7  10
ATOM      8  C   UNL     1      51.419   5.139  18.111  0.00  0.00    +0.000 C 
ATOM      9  O   UNL     1      50.962   5.546  19.176  0.00  0.00    +0.000 OA
ATOM     10  N   UNL     1      51.665   5.982  17.052  0.00  0.00    +0.000 N 
ATOM     11  H   UNL     1      52.037   5.576  16.200  0.00  0.00    +0.000 HD
BRANCH   8  17
ATOM     12  C   UNL     1      50.820   2.739  17.349  0.00  0.00    +0.000 A 
ATOM     13  C   UNL     1      51.203   1.389  17.278  0.00  0.00    +0.000 A 
ATOM     14  C   UNL     1      52.439   0.963  17.771  0.00  0.00    +0.000 A 
ATOM     15  C   UNL     1      53.318   1.882  18.329  0.00  0.00    +0.000 A 
ATOM     16  C   UNL     1      52.955   3.227  18.401  0.00  0.00    +0.000 A 
ATOM     17  C   UNL     1      51.708   3.675  17.922  0.00  0.00    +0.000 A 
BRANCH  12  19
ATOM     18  C   UNL     1      48.501   3.170  17.703  0.00  0.00    +0.000 C 
ATOM     19  O   UNL     1      49.630   3.195  16.836  0.00  0.00    +0.000 OA
ENDBRANCH  12  19
ENDBRANCH   8  17
ENDBRANCH   7  10
ENDBRANCH   1   7
BRANCH   4  20
ATOM     20  C   UNL     1      48.466   7.913  11.974  0.00  0.00    +0.000 C 
BRANCH  20  21
ATOM     21  N   UNL     1      47.684   6.823  11.424  0.00  0.00    +0.000 N 
ATOM     22  C   UNL     1      46.315   6.779  11.508  0.00  0.00    +0.000 C 
ATOM     23  O   UNL     1      45.667   7.667  12.055  0.00  0.00    +0.000 OA
ATOM     24  H   UNL     1      48.191   6.018  11.071  0.00  0.00    +0.000 HD
BRANCH  22  25
ATOM     25  C   UNL     1      45.648   5.646  10.852  0.00  0.00    +0.000 A 
ATOM     26  C   UNL     1      45.687   5.544   9.467  0.00  0.00    +0.000 A 
ATOM     27  S   UNL     1      44.897   4.162   8.857  0.00  0.00    +0.000 S 
ATOM     28  C   UNL     1      44.430   3.674  10.416  0.00  0.00    +0.000 A 
ATOM     29  N   UNL     1      43.683   2.550  10.599  0.00  0.00    +0.000 NA
ATOM     30  C   UNL     1      43.364   2.316  11.826  0.00  0.00    +0.000 A 
ATOM     31  N   UNL     1      43.732   3.098  12.890  0.00  0.00    +0.000 N 
ATOM     32  C   UNL     1      44.529   4.212  12.761  0.00  0.00    +0.000 A 
ATOM     33  O   UNL     1      44.913   4.838  13.744  0.00  0.00    +0.000 OA
ATOM     34  C   UNL     1      44.890   4.539  11.392  0.00  0.00    +0.000 A 
ATOM     35  H   UNL     1      43.461   2.848  13.831  0.00  0.00    +0.000 HD
ENDBRANCH  22  25
ENDBRANCH  20  21
ENDBRANCH   4  20
TORSDOF 7
ENDMDL
MODEL 7
REMARK VINA RESULT:    -7.142      3.034      9.663
REMARK INTER + INTRA:         -10.911
REMARK INTER:                  -9.646
REMARK INTRA:                  -1.265
REMARK UNBOUND:                -0.845
REMARK  Name = 
REMARK  8 active torsions:
REMARK  status: ('A' for Active; 'I' for Inactive)
REMARK    1  A    between atoms: C_1  and  O_2
REMARK    2  A    between atoms: O_2  and  C_3
REMARK    3  A    between atoms: C_8  and  C_9
REMARK    4  A    between atoms: N_11  and  C_12
REMARK    5  A    between atoms: C_12  and  C_13
REMARK    6  A    between atoms: C_16  and  C_17
REMARK    7  A    between atoms: C_17  and  N_18
REMARK    8  A    between atoms: C_19  and  C_21
REMARK                            x       y       z     vdW  Elec       q    Type
REMARK                         _______ _______ _______ _____ _____    ______ ____
ROOT
ATOM      1  C   UNL     1      50.216   7.013  15.128  0.00  0.00    +0.000 C 
ATOM      2  C   UNL     1      50.433   8.288  14.300  0.00  0.00    +0.000 C 
ATOM      3  C   UNL     1      49.647   8.267  12.987  0.00  0.00    +0.000 C 
ATOM      4  C   UNL     1      48.144   8.049  13.221  0.00  0.00    +0.000 C 
ATOM      5  C   UNL     1      47.924   6.763  14.036  0.00  0.00    +0.000 C 
ATOM      6  C   UNL     1      48.713   6.764  15.344  0.00  0.00    +0.000 C 
ENDROOT
BRANCH   1   7
ATOM      7  C   UNL     1      50.930   7.091  16.492  0.00  0.00    +0.000 C 
BRANCH   7  10
ATOM      8  C   UNL     1      50.985   4.865  17.594  0.00  0.00    +0.000 C 
ATOM      9  O   UNL     1      49.847   4.987  18.038  0.00  0.00    +0.000 OA
ATOM     10  N   UNL     1      51.592   5.856  16.857  0.00  0.00    +0.000 N 
ATOM     11  H   UNL     1      52.532   5.684  16.516  0.00  0.00    +0.000 HD
BRANCH   8  17
ATOM     12  C   UNL     1      53.035   3.516  18.418  0.00  0.00    +0.000 A 
ATOM     13  C   UNL     1      53.660   2.263  18.532  0.00  0.00    +0.000 A 
ATOM     14  C   UNL     1      53.038   1.102  18.066  0.00  0.00    +0.000 A 
ATOM     15  C   UNL     1      51.775   1.174  17.491  0.00  0.00    +0.000 A 
ATOM     16  C   UNL     1      51.139   2.410  17.376  0.00  0.00    +0.000 A 
ATOM     17  C   UNL     1      51.755   3.594  17.828  0.00  0.00    +0.000 A 
BRANCH  12  19
ATOM     18  C   UNL     1      53.409   4.954  20.285  0.00  0.00    +0.000 C 
ATOM     19  O   UNL     1      53.602   4.669  18.903  0.00  0.00    +0.000 OA
ENDBRANCH  12  19
ENDBRANCH   8  17
ENDBRANCH   7  10
ENDBRANCH   1   7
BRANCH   4  20
ATOM     20  C   UNL     1      47.357   7.974  11.900  0.00  0.00    +0.000 C 
BRANCH  20  21
ATOM     21  N   UNL     1      46.683   6.706  11.706  0.00  0.00    +0.000 N 
ATOM     22  C   UNL     1      45.319   6.603  11.584  0.00  0.00    +0.000 C 
ATOM     23  O   UNL     1      44.586   7.588  11.629  0.00  0.00    +0.000 OA
ATOM     24  H   UNL     1      47.244   5.863  11.783  0.00  0.00    +0.000 HD
BRANCH  22  25
ATOM     25  C   UNL     1      44.777   5.262  11.330  0.00  0.00    +0.000 A 
ATOM     26  C   UNL     1      43.993   4.651  12.301  0.00  0.00    +0.000 A 
ATOM     27  S   UNL     1      43.412   3.114  11.848  0.00  0.00    +0.000 S 
ATOM     28  C   UNL     1      44.226   3.184  10.358  0.00  0.00    +0.000 A 
ATOM     29  N   UNL     1      44.165   2.144   9.482  0.00  0.00    +0.000 NA
ATOM     30  C   UNL     1      44.860   2.311   8.408  0.00  0.00    +0.000 A 
ATOM     31  N   UNL     1      45.604   3.427   8.126  0.00  0.00    +0.000 N 
ATOM     32  C   UNL     1      45.653   4.523   8.955  0.00  0.00    +0.000 A 
ATOM     33  O   UNL     1      46.257   5.541   8.630  0.00  0.00    +0.000 OA
ATOM     34  C   UNL     1      44.912   4.374  10.197  0.00  0.00    +0.000 A 
ATOM     35  H   UNL     1      46.113   3.500   7.256  0.00  0.00    +0.000 HD
ENDBRANCH  22  25
ENDBRANCH  20  21
ENDBRANCH   4  20
TORSDOF 7
ENDMDL
MODEL 8
REMARK VINA RESULT:    -7.079      2.243      3.347
REMARK INTER + INTRA:         -10.822
REMARK INTER:                  -9.910
REMARK INTRA:                  -0.912
REMARK UNBOUND:                -0.845
REMARK  Name = 
REMARK  8 active torsions:
REMARK  status: ('A' for Active; 'I' for Inactive)
REMARK    1  A    between atoms: C_1  and  O_2
REMARK    2  A    between atoms: O_2  and  C_3
REMARK    3  A    between atoms: C_8  and  C_9
REMARK    4  A    between atoms: N_11  and  C_12
REMARK    5  A    between atoms: C_12  and  C_13
REMARK    6  A    between atoms: C_16  and  C_17
REMARK    7  A    between atoms: C_17  and  N_18
REMARK    8  A    between atoms: C_19  and  C_21
REMARK                            x       y       z     vdW  Elec       q    Type
REMARK                         _______ _______ _______ _____ _____    ______ ____
ROOT
ATOM      1  C   UNL     1      46.146   7.867  12.482  0.00  0.00    +0.000 C 
ATOM      2  C   UNL     1      46.664   9.266  12.114  0.00  0.00    +0.000 C 
ATOM      3  C   UNL     1      47.902   9.656  12.923  0.00  0.00    +0.000 C 
ATOM      4  C   UNL     1      49.034   8.627  12.772  0.00  0.00    +0.000 C 
ATOM      5  C   UNL     1      48.522   7.229  13.157  0.00  0.00    +0.000 C 
ATOM      6  C   UNL     1      47.276   6.830  12.366  0.00  0.00    +0.000 C 
ENDROOT
BRANCH   1   7
ATOM      7  C   UNL     1      44.961   7.445  11.590  0.00  0.00    +0.000 C 
BRANCH   7  10
ATOM      8  C   UNL     1      44.177   5.382  10.450  0.00  0.00    +0.000 C 
ATOM      9  O   UNL     1      42.995   5.637  10.663  0.00  0.00    +0.000 OA
ATOM     10  N   UNL     1      45.193   6.197  10.893  0.00  0.00    +0.000 N 
ATOM     11  H   UNL     1      46.146   5.927  10.674  0.00  0.00    +0.000 HD
BRANCH   8  17
ATOM     12  C   UNL     1      44.160   2.838   9.971  0.00  0.00    +0.000 A 
ATOM     13  C   UNL     1      44.627   1.780   9.174  0.00  0.00    +0.000 A 
ATOM     14  C   UNL     1      45.476   2.015   8.089  0.00  0.00    +0.000 A 
ATOM     15  C   UNL     1      45.860   3.313   7.777  0.00  0.00    +0.000 A 
ATOM     16  C   UNL     1      45.401   4.374   8.556  0.00  0.00    +0.000 A 
ATOM     17  C   UNL     1      44.554   4.157   9.662  0.00  0.00    +0.000 A 
BRANCH  12  19
ATOM     18  C   UNL     1      43.845   2.666  12.330  0.00  0.00    +0.000 C 
ATOM     19  O   UNL     1      43.292   2.644  11.018  0.00  0.00    +0.000 OA
ENDBRANCH  12  19
ENDBRANCH   8  17
ENDBRANCH   7  10
ENDBRANCH   1   7
BRANCH   4  20
ATOM     20  C   UNL     1      50.262   8.988  13.627  0.00  0.00    +0.000 C 
BRANCH  20  21
ATOM     21  N   UNL     1      50.761   7.877  14.412  0.00  0.00    +0.000 N 
ATOM     22  C   UNL     1      51.342   8.043  15.645  0.00  0.00    +0.000 C 
ATOM     23  O   UNL     1      51.472   9.151  16.159  0.00  0.00    +0.000 OA
ATOM     24  H   UNL     1      50.778   6.964  13.969  0.00  0.00    +0.000 HD
BRANCH  22  25
ATOM     25  C   UNL     1      51.746   6.823  16.355  0.00  0.00    +0.000 A 
ATOM     26  C   UNL     1      53.097   6.579  16.574  0.00  0.00    +0.000 A 
ATOM     27  S   UNL     1      53.405   5.142  17.438  0.00  0.00    +0.000 S 
ATOM     28  C   UNL     1      51.750   4.765  17.509  0.00  0.00    +0.000 A 
ATOM     29  N   UNL     1      51.323   3.618  18.105  0.00  0.00    +0.000 NA
ATOM     30  C   UNL     1      50.047   3.434  18.054  0.00  0.00    +0.000 A 
ATOM     31  N   UNL     1      49.158   4.297  17.469  0.00  0.00    +0.000 N 
ATOM     32  C   UNL     1      49.536   5.492  16.902  0.00  0.00    +0.000 A 
ATOM     33  O   UNL     1      48.705   6.283  16.467  0.00  0.00    +0.000 OA
ATOM     34  C   UNL     1      50.970   5.733  16.904  0.00  0.00    +0.000 A 
ATOM     35  H   UNL     1      48.167   4.101  17.478  0.00  0.00    +0.000 HD
ENDBRANCH  22  25
ENDBRANCH  20  21
ENDBRANCH   4  20
TORSDOF 7
ENDMDL
MODEL 9
REMARK VINA RESULT:    -6.856      5.742      8.768
REMARK INTER + INTRA:         -10.507
REMARK INTER:                  -9.326
REMARK INTRA:                  -1.181
REMARK UNBOUND:                -0.845
REMARK  Name = 
REMARK  8 active torsions:
REMARK  status: ('A' for Active; 'I' for Inactive)
REMARK    1  A    between atoms: C_1  and  O_2
REMARK    2  A    between atoms: O_2  and  C_3
REMARK    3  A    between atoms: C_8  and  C_9
REMARK    4  A    between atoms: N_11  and  C_12
REMARK    5  A    between atoms: C_12  and  C_13
REMARK    6  A    between atoms: C_16  and  C_17
REMARK    7  A    between atoms: C_17  and  N_18
REMARK    8  A    between atoms: C_19  and  C_21
REMARK                            x       y       z     vdW  Elec       q    Type
REMARK                         _______ _______ _______ _____ _____    ______ ____
ROOT
ATOM      1  C   UNL     1      50.915   9.257  11.455  0.00  0.00    +0.000 C 
ATOM      2  C   UNL     1      50.591   7.757  11.382  0.00  0.00    +0.000 C 
ATOM      3  C   UNL     1      49.410   7.375  12.275  0.00  0.00    +0.000 C 
ATOM      4  C   UNL     1      48.152   8.195  11.946  0.00  0.00    +0.000 C 
ATOM      5  C   UNL     1      48.470   9.697  12.036  0.00  0.00    +0.000 C 
ATOM      6  C   UNL     1      49.657  10.091  11.158  0.00  0.00    +0.000 C 
ENDROOT
BRANCH   1   7
ATOM      7  C   UNL     1      52.039   9.647  10.474  0.00  0.00    +0.000 C 
BRANCH   7  10
ATOM      8  C   UNL     1      53.610   8.356   9.046  0.00  0.00    +0.000 C 
ATOM      9  O   UNL     1      54.574   9.041   9.378  0.00  0.00    +0.000 OA
ATOM     10  N   UNL     1      52.340   8.605   9.514  0.00  0.00    +0.000 N 
ATOM     11  H   UNL     1      51.592   7.995   9.203  0.00  0.00    +0.000 HD
BRANCH   8  17
ATOM     12  C   UNL     1      53.776   5.830   8.506  0.00  0.00    +0.000 A 
ATOM     13  C   UNL     1      54.013   4.839   7.538  0.00  0.00    +0.000 A 
ATOM     14  C   UNL     1      54.274   5.178   6.208  0.00  0.00    +0.000 A 
ATOM     15  C   UNL     1      54.288   6.512   5.822  0.00  0.00    +0.000 A 
ATOM     16  C   UNL     1      54.049   7.507   6.769  0.00  0.00    +0.000 A 
ATOM     17  C   UNL     1      53.797   7.187   8.118  0.00  0.00    +0.000 A 
BRANCH  12  19
ATOM     18  C   UNL     1      54.564   5.176  10.661  0.00  0.00    +0.000 C 
ATOM     19  O   UNL     1      53.476   5.527   9.812  0.00  0.00    +0.000 OA
ENDBRANCH  12  19
ENDBRANCH   8  17
ENDBRANCH   7  10
ENDBRANCH   1   7
BRANCH   4  20
ATOM     20  C   UNL     1      46.977   7.851  12.878  0.00  0.00    +0.000 C 
BRANCH  20  21
ATOM     21  N   UNL     1      46.338   6.591  12.552  0.00  0.00    +0.000 N 
ATOM     22  C   UNL     1      45.217   6.512  11.762  0.00  0.00    +0.000 C 
ATOM     23  O   UNL     1      44.690   7.510  11.279  0.00  0.00    +0.000 OA
ATOM     24  H   UNL     1      46.675   5.761  13.028  0.00  0.00    +0.000 HD
BRANCH  22  25
ATOM     25  C   UNL     1      44.713   5.165  11.464  0.00  0.00    +0.000 A 
ATOM     26  C   UNL     1      43.959   4.495  12.419  0.00  0.00    +0.000 A 
ATOM     27  S   UNL     1      43.419   2.959  11.915  0.00  0.00    +0.000 S 
ATOM     28  C   UNL     1      44.213   3.109  10.421  0.00  0.00    +0.000 A 
ATOM     29  N   UNL     1      44.174   2.101   9.507  0.00  0.00    +0.000 NA
ATOM     30  C   UNL     1      44.851   2.328   8.433  0.00  0.00    +0.000 A 
ATOM     31  N   UNL     1      45.557   3.476   8.185  0.00  0.00    +0.000 N 
ATOM     32  C   UNL     1      45.583   4.542   9.054  0.00  0.00    +0.000 A 
ATOM     33  O   UNL     1      46.152   5.589   8.761  0.00  0.00    +0.000 OA
ATOM     34  C   UNL     1      44.862   4.325  10.297  0.00  0.00    +0.000 A 
ATOM     35  H   UNL     1      46.054   3.597   7.313  0.00  0.00    +0.000 HD
ENDBRANCH  22  25
ENDBRANCH  20  21
ENDBRANCH   4  20
TORSDOF 7
ENDMDL
