MODEL 1
REMARK VINA RESULT:    -8.428      0.000      0.000
REMARK INTER + INTRA:         -13.706
REMARK INTER:                 -12.370
REMARK INTRA:                  -1.336
REMARK UNBOUND:                -1.336
REMARK  Name = 
REMARK  9 active torsions:
REMARK  status: ('A' for Active; 'I' for Inactive)
REMARK    1  A    between atoms: C_1  and  C_2
REMARK    2  A    between atoms: C_2  and  C_3
REMARK    3  A    between atoms: C_3  and  N_4
REMARK    4  A    between atoms: C_3  and  C_17
REMARK    5  A    between atoms: C_5  and  C_7
REMARK    6  A    between atoms: C_20  and  C_21
REMARK    7  A    between atoms: C_21  and  N_22
REMARK    8  A    between atoms: N_22  and  C_23
REMARK    9  A    between atoms: C_23  and  C_24
REMARK                            x       y       z     vdW  Elec       q    Type
REMARK                         _______ _______ _______ _____ _____    ______ ____
ROOT
ATOM      1  C   UNL     1      46.527   7.759  12.758  0.00  0.00    +0.000 C 
ENDROOT
BRANCH   1   2
ATOM      2  C   UNL     1      45.814   6.549  12.167  0.00  0.00    +0.000 A 
ATOM      3  C   UNL     1      45.990   6.224  10.815  0.00  0.00    +0.000 A 
ATOM      4  C   UNL     1      45.334   5.123  10.256  0.00  0.00    +0.000 A 
ATOM      5  C   UNL     1      44.498   4.309  11.035  0.00  0.00    +0.000 A 
ATOM      6  C   UNL     1      44.338   4.618  12.390  0.00  0.00    +0.000 A 
ATOM      7  C   UNL     1      44.988   5.724  12.948  0.00  0.00    +0.000 A 
BRANCH   5   8
ATOM      8  C   UNL     1      43.805   3.110  10.420  0.00  0.00    +0.000 C 
BRANCH   8   9
ATOM      9  N   UNL     1      44.249   2.931   9.041  0.00  0.00    +0.000 NA
ATOM     10  H   UNL     1      44.654   3.809   8.718  0.00  0.00    +0.000 HD
BRANCH   9  11
ATOM     11  C   UNL     1      45.204   1.839   8.870  0.00  0.00    +0.000 C 
BRANCH  11  12
ATOM     12  C   UNL     1      46.390   2.343   8.045  0.00  0.00    +0.000 C 
ATOM     13  C   UNL     1      47.105   1.287   7.216  0.00  0.00    +0.000 C 
ATOM     14  C   UNL     1      47.936   2.155   6.296  0.00  0.00    +0.000 C 
ATOM     15  N   UNL     1      47.043   3.259   5.920  0.00  0.00    +0.000 NA
ATOM     16  C   UNL     1      46.030   3.384   6.989  0.00  0.00    +0.000 C 
ATOM     17  H   UNL     1      46.570   3.018   5.049  0.00  0.00    +0.000 HD
ENDBRANCH  11  12
ENDBRANCH   9  11
ENDBRANCH   8   9
ENDBRANCH   5   8
ENDBRANCH   1   2
BRANCH   1  18
ATOM     18  N   UNL     1      47.097   7.387  14.044  0.00  0.00    +0.000 N 
ATOM     19  C   UNL     1      48.252   6.666  14.189  0.00  0.00    +0.000 C 
ATOM     20  O   UNL     1      48.927   6.304  13.229  0.00  0.00    +0.000 OA
ATOM     21  H   UNL     1      46.529   7.586  14.860  0.00  0.00    +0.000 HD
BRANCH  19  22
ATOM     22  C   UNL     1      48.661   6.371  15.572  0.00  0.00    +0.000 A 
ATOM     23  C   UNL     1      49.501   7.247  16.247  0.00  0.00    +0.000 A 
ATOM     24  S   UNL     1      49.888   6.742  17.830  0.00  0.00    +0.000 S 
ATOM     25  C   UNL     1      48.992   5.307  17.652  0.00  0.00    +0.000 A 
ATOM     26  N   UNL     1      48.954   4.377  18.644  0.00  0.00    +0.000 NA
ATOM     27  C   UNL     1      48.277   3.315  18.356  0.00  0.00    +0.000 A 
ATOM     28  N   UNL     1      47.615   3.108  17.175  0.00  0.00    +0.000 N 
ATOM     29  C   UNL     1      47.544   4.063  16.192  0.00  0.00    +0.000 A 
ATOM     30  O   UNL     1      46.799   3.915  15.231  0.00  0.00    +0.000 OA
ATOM     31  C   UNL     1      48.358   5.240  16.424  0.00  0.00    +0.000 A 
ATOM     32  H   UNL     1      47.061   2.279  17.027  0.00  0.00    +0.000 HD
ENDBRANCH  19  22
ENDBRANCH   1  18
BRANCH   1  34
ATOM     33  C   UNL     1      45.789  10.023  11.815  0.00  0.00    +0.000 C 
ATOM     34  C   UNL     1      45.597   8.981  12.910  0.00  0.00    +0.000 C 
ENDBRANCH   1  34
TORSDOF 8
ENDMDL
MODEL 2
REMARK VINA RESULT:    -7.884      1.397      1.805
REMARK INTER + INTRA:         -12.908
REMARK INTER:                 -11.475
REMARK INTRA:                  -1.433
REMARK UNBOUND:                -1.336
REMARK  Name = 
REMARK  9 active torsions:
REMARK  status: ('A' for Active; 'I' for Inactive)
REMARK    1  A    between atoms: C_1  and  C_2
REMARK    2  A    between atoms: C_2  and  C_3
REMARK    3  A    between atoms: C_3  and  N_4
REMARK    4  A    between atoms: C_3  and  C_17
REMARK    5  A    between atoms: C_5  and  C_7
REMARK    6  A    between atoms: C_20  and  C_21
REMARK    7  A    between atoms: C_21  and  N_22
REMARK    8  A    between atoms: N_22  and  C_23
REMARK    9  A    between atoms: C_23  and  C_24
REMARK                            x       y       z     vdW  Elec       q    Type
REMARK                         _______ _______ _______ _____ _____    ______ ____
ROOT
ATOM      1  C   UNL     1      48.103   6.769  13.115  0.00  0.00    +0.000 C 
ENDROOT
BRANCH   1   2
ATOM      2  C   UNL     1      46.968   5.938  12.529  0.00  0.00    +0.000 A 
ATOM      3  C   UNL     1      46.465   4.839  13.239  0.00  0.00    +0.000 A 
ATOM      4  C   UNL     1      45.431   4.061  12.710  0.00  0.00    +0.000 A 
ATOM      5  C   UNL     1      44.863   4.368  11.464  0.00  0.00    +0.000 A 
ATOM      6  C   UNL     1      45.348   5.477  10.763  0.00  0.00    +0.000 A 
ATOM      7  C   UNL     1      46.387   6.251  11.289  0.00  0.00    +0.000 A 
BRANCH   5   8
ATOM      8  C   UNL     1      43.732   3.526  10.908  0.00  0.00    +0.000 C 
BRANCH   8   9
ATOM      9  N   UNL     1      43.957   3.264   9.490  0.00  0.00    +0.000 NA
ATOM     10  H   UNL     1      44.430   4.071   9.086  0.00  0.00    +0.000 HD
BRANCH   9  11
ATOM     11  C   UNL     1      44.723   2.046   9.235  0.00  0.00    +0.000 C 
BRANCH  11  12
ATOM     12  C   UNL     1      46.051   2.427   8.576  0.00  0.00    +0.000 C 
ATOM     13  C   UNL     1      46.690   1.343   7.721  0.00  0.00    +0.000 C 
ATOM     14  C   UNL     1      47.732   2.144   6.969  0.00  0.00    +0.000 C 
ATOM     15  N   UNL     1      47.053   3.399   6.619  0.00  0.00    +0.000 NA
ATOM     16  C   UNL     1      45.961   3.592   7.595  0.00  0.00    +0.000 C 
ATOM     17  H   UNL     1      46.646   3.304   5.688  0.00  0.00    +0.000 HD
ENDBRANCH  11  12
ENDBRANCH   9  11
ENDBRANCH   8   9
ENDBRANCH   5   8
ENDBRANCH   1   2
BRANCH   1  18
ATOM     18  N   UNL     1      47.973   6.789  14.564  0.00  0.00    +0.000 N 
ATOM     19  C   UNL     1      49.035   6.807  15.427  0.00  0.00    +0.000 C 
ATOM     20  O   UNL     1      50.199   6.848  15.038  0.00  0.00    +0.000 OA
ATOM     21  H   UNL     1      47.036   6.665  14.931  0.00  0.00    +0.000 HD
BRANCH  19  22
ATOM     22  C   UNL     1      48.703   6.807  16.862  0.00  0.00    +0.000 A 
ATOM     23  C   UNL     1      48.318   7.988  17.483  0.00  0.00    +0.000 A 
ATOM     24  S   UNL     1      47.989   7.809  19.147  0.00  0.00    +0.000 S 
ATOM     25  C   UNL     1      48.404   6.160  19.111  0.00  0.00    +0.000 A 
ATOM     26  N   UNL     1      48.394   5.409  20.246  0.00  0.00    +0.000 NA
ATOM     27  C   UNL     1      48.777   4.186  20.080  0.00  0.00    +0.000 A 
ATOM     28  N   UNL     1      49.146   3.639  18.881  0.00  0.00    +0.000 N 
ATOM     29  C   UNL     1      49.071   4.332  17.700  0.00  0.00    +0.000 A 
ATOM     30  O   UNL     1      49.236   3.761  16.629  0.00  0.00    +0.000 OA
ATOM     31  C   UNL     1      48.731   5.736  17.835  0.00  0.00    +0.000 A 
ATOM     32  H   UNL     1      49.389   2.663  18.806  0.00  0.00    +0.000 HD
ENDBRANCH  19  22
ENDBRANCH   1  18
BRANCH   1  34
ATOM     33  C   UNL     1      47.123   9.133  13.210  0.00  0.00    +0.000 C 
ATOM     34  C   UNL     1      48.138   8.205  12.553  0.00  0.00    +0.000 C 
ENDBRANCH   1  34
TORSDOF 8
ENDMDL
MODEL 3
REMARK VINA RESULT:    -7.655      1.912      2.592
REMARK INTER + INTRA:         -12.572
REMARK INTER:                 -11.179
REMARK INTRA:                  -1.393
REMARK UNBOUND:                -1.336
REMARK  Name = 
REMARK  9 active torsions:
REMARK  status: ('A' for Active; 'I' for Inactive)
REMARK    1  A    between atoms: C_1  and  C_2
REMARK    2  A    between atoms: C_2  and  C_3
REMARK    3  A    between atoms: C_3  and  N_4
REMARK    4  A    between atoms: C_3  and  C_17
REMARK    5  A    between atoms: C_5  and  C_7
REMARK    6  A    between atoms: C_20  and  C_21
REMARK    7  A    between atoms: C_21  and  N_22
REMARK    8  A    between atoms: N_22  and  C_23
REMARK    9  A    between atoms: C_23  and  C_24
REMARK                            x       y       z     vdW  Elec       q    Type
REMARK                         _______ _______ _______ _____ _____    ______ ____
ROOT
ATOM      1  C   UNL     1      47.628   6.905  12.961  0.00  0.00    +0.000 C 
ENDROOT
BRANCH   1   2
ATOM      2  C   UNL     1      46.639   5.922  12.346  0.00  0.00    +0.000 A 
ATOM      3  C   UNL     1      46.180   4.829  13.094  0.00  0.00    +0.000 A 
ATOM      4  C   UNL     1      45.281   3.914  12.539  0.00  0.00    +0.000 A 
ATOM      5  C   UNL     1      44.804   4.073  11.229  0.00  0.00    +0.000 A 
ATOM      6  C   UNL     1      45.243   5.176  10.488  0.00  0.00    +0.000 A 
ATOM      7  C   UNL     1      46.148   6.087  11.040  0.00  0.00    +0.000 A 
BRANCH   5   8
ATOM      8  C   UNL     1      43.817   3.082  10.646  0.00  0.00    +0.000 C 
BRANCH   8   9
ATOM      9  N   UNL     1      44.095   2.880   9.227  0.00  0.00    +0.000 NA
ATOM     10  H   UNL     1      44.487   3.742   8.851  0.00  0.00    +0.000 HD
BRANCH   9  11
ATOM     11  C   UNL     1      44.992   1.757   8.961  0.00  0.00    +0.000 C 
BRANCH  11  12
ATOM     12  C   UNL     1      46.249   2.283   8.266  0.00  0.00    +0.000 C 
ATOM     13  C   UNL     1      46.979   1.277   7.388  0.00  0.00    +0.000 C 
ATOM     14  C   UNL     1      47.903   2.189   6.609  0.00  0.00    +0.000 C 
ATOM     15  N   UNL     1      47.080   3.361   6.284  0.00  0.00    +0.000 NA
ATOM     16  C   UNL     1      46.002   3.431   7.292  0.00  0.00    +0.000 C 
ATOM     17  H   UNL     1      46.658   3.223   5.366  0.00  0.00    +0.000 HD
ENDBRANCH  11  12
ENDBRANCH   9  11
ENDBRANCH   8   9
ENDBRANCH   5   8
ENDBRANCH   1   2
BRANCH   1  18
ATOM     18  N   UNL     1      47.688   6.677  14.396  0.00  0.00    +0.000 N 
ATOM     19  C   UNL     1      48.847   6.682  15.125  0.00  0.00    +0.000 C 
ATOM     20  O   UNL     1      49.941   6.922  14.619  0.00  0.00    +0.000 OA
ATOM     21  H   UNL     1      46.823   6.387  14.840  0.00  0.00    +0.000 HD
BRANCH  19  22
ATOM     22  C   UNL     1      48.708   6.413  16.565  0.00  0.00    +0.000 A 
ATOM     23  C   UNL     1      48.870   5.120  17.046  0.00  0.00    +0.000 A 
ATOM     24  S   UNL     1      48.656   4.985  18.733  0.00  0.00    +0.000 S 
ATOM     25  C   UNL     1      48.284   6.639  18.875  0.00  0.00    +0.000 A 
ATOM     26  N   UNL     1      47.938   7.179  20.075  0.00  0.00    +0.000 NA
ATOM     27  C   UNL     1      47.635   8.434  20.029  0.00  0.00    +0.000 A 
ATOM     28  N   UNL     1      47.668   9.204  18.897  0.00  0.00    +0.000 N 
ATOM     29  C   UNL     1      48.108   8.722  17.690  0.00  0.00    +0.000 A 
ATOM     30  O   UNL     1      48.294   9.480  16.746  0.00  0.00    +0.000 OA
ATOM     31  C   UNL     1      48.380   7.298  17.663  0.00  0.00    +0.000 A 
ATOM     32  H   UNL     1      47.467  10.191  18.932  0.00  0.00    +0.000 HD
ENDBRANCH  19  22
ENDBRANCH   1  18
BRANCH   1  34
ATOM     33  C   UNL     1      45.905   8.784  13.197  0.00  0.00    +0.000 C 
ATOM     34  C   UNL     1      47.270   8.375  12.659  0.00  0.00    +0.000 C 
ENDBRANCH   1  34
TORSDOF 8
ENDMDL
MODEL 4
REMARK VINA RESULT:    -6.947      2.731      8.067
REMARK INTER + INTRA:         -11.532
REMARK INTER:                  -9.900
REMARK INTRA:                  -1.631
REMARK UNBOUND:                -1.336
REMARK  Name = 
REMARK  9 active torsions:
REMARK  status: ('A' for Active; 'I' for Inactive)
REMARK    1  A    between atoms: C_1  and  C_2
REMARK    2  A    between atoms: C_2  and  C_3
REMARK    3  A    between atoms: C_3  and  N_4
REMARK    4  A    between atoms: C_3  and  C_17
REMARK    5  A    between atoms: C_5  and  C_7
REMARK    6  A    between atoms: C_20  and  C_21
REMARK    7  A    between atoms: C_21  and  N_22
REMARK    8  A    between atoms: N_22  and  C_23
REMARK    9  A    between atoms: C_23  and  C_24
REMARK                            x       y       z     vdW  Elec       q    Type
REMARK                         _______ _______ _______ _____ _____    ______ ____
ROOT
ATOM      1  C   UNL     1      47.550   7.888  12.500  0.00  0.00    +0.000 C 
ENDROOT
BRANCH   1   2
ATOM      2  C   UNL     1      48.026   7.867  13.947  0.00  0.00    +0.000 A 
ATOM      3  C   UNL     1      48.689   6.740  14.451  0.00  0.00    +0.000 A 
ATOM      4  C   UNL     1      49.122   6.703  15.780  0.00  0.00    +0.000 A 
ATOM      5  C   UNL     1      48.919   7.796  16.636  0.00  0.00    +0.000 A 
ATOM      6  C   UNL     1      48.278   8.932  16.129  0.00  0.00    +0.000 A 
ATOM      7  C   UNL     1      47.837   8.966  14.803  0.00  0.00    +0.000 A 
BRANCH   5   8
ATOM      8  C   UNL     1      49.407   7.749  18.069  0.00  0.00    +0.000 C 
BRANCH   8   9
ATOM      9  N   UNL     1      49.920   6.417  18.378  0.00  0.00    +0.000 NA
ATOM     10  H   UNL     1      50.876   6.513  18.718  0.00  0.00    +0.000 HD
BRANCH   9  11
ATOM     11  C   UNL     1      49.107   5.688  19.348  0.00  0.00    +0.000 C 
BRANCH  11  12
ATOM     12  C   UNL     1      48.619   4.387  18.707  0.00  0.00    +0.000 C 
ATOM     13  C   UNL     1      47.370   4.511  17.848  0.00  0.00    +0.000 C 
ATOM     14  C   UNL     1      47.391   3.187  17.114  0.00  0.00    +0.000 C 
ATOM     15  N   UNL     1      48.803   2.976  16.768  0.00  0.00    +0.000 NA
ATOM     16  C   UNL     1      49.609   3.750  17.735  0.00  0.00    +0.000 C 
ATOM     17  H   UNL     1      48.971   3.347  15.833  0.00  0.00    +0.000 HD
ENDBRANCH  11  12
ENDBRANCH   9  11
ENDBRANCH   8   9
ENDBRANCH   5   8
ENDBRANCH   1   2
BRANCH   1  18
ATOM     18  N   UNL     1      46.762   6.691  12.247  0.00  0.00    +0.000 N 
ATOM     19  C   UNL     1      45.498   6.705  11.719  0.00  0.00    +0.000 C 
ATOM     20  O   UNL     1      44.938   7.743  11.378  0.00  0.00    +0.000 OA
ATOM     21  H   UNL     1      47.146   5.820  12.595  0.00  0.00    +0.000 HD
BRANCH  19  22
ATOM     22  C   UNL     1      44.852   5.392  11.554  0.00  0.00    +0.000 A 
ATOM     23  C   UNL     1      44.085   4.864  12.584  0.00  0.00    +0.000 A 
ATOM     24  S   UNL     1      43.427   3.331  12.230  0.00  0.00    +0.000 S 
ATOM     25  C   UNL     1      44.190   3.291  10.710  0.00  0.00    +0.000 A 
ATOM     26  N   UNL     1      44.083   2.203   9.900  0.00  0.00    +0.000 NA
ATOM     27  C   UNL     1      44.751   2.290   8.798  0.00  0.00    +0.000 A 
ATOM     28  N   UNL     1      45.498   3.373   8.420  0.00  0.00    +0.000 N 
ATOM     29  C   UNL     1      45.548   4.528   9.161  0.00  0.00    +0.000 A 
ATOM     30  O   UNL     1      46.078   5.536   8.709  0.00  0.00    +0.000 OA
ATOM     31  C   UNL     1      44.888   4.457  10.450  0.00  0.00    +0.000 A 
ATOM     32  H   UNL     1      45.959   3.402   7.525  0.00  0.00    +0.000 HD
ENDBRANCH  19  22
ENDBRANCH   1  18
BRANCH   1  34
ATOM     33  C   UNL     1      49.314   9.392  11.413  0.00  0.00    +0.000 C 
ATOM     34  C   UNL     1      48.714   7.994  11.493  0.00  0.00    +0.000 C 
ENDBRANCH   1  34
TORSDOF 8
ENDMDL
MODEL 5
REMARK VINA RESULT:    -6.887      3.125      7.678
REMARK INTER + INTRA:         -11.444
REMARK INTER:                  -9.736
REMARK INTRA:                  -1.708
REMARK UNBOUND:                -1.336
REMARK  Name = 
REMARK  9 active torsions:
REMARK  status: ('A' for Active; 'I' for Inactive)
REMARK    1  A    between atoms: C_1  and  C_2
REMARK    2  A    between atoms: C_2  and  C_3
REMARK    3  A    between atoms: C_3  and  N_4
REMARK    4  A    between atoms: C_3  and  C_17
REMARK    5  A    between atoms: C_5  and  C_7
REMARK    6  A    between atoms: C_20  and  C_21
REMARK    7  A    between atoms: C_21  and  N_22
REMARK    8  A    between atoms: N_22  and  C_23
REMARK    9  A    between atoms: C_23  and  C_24
REMARK                            x       y       z     vdW  Elec       q    Type
REMARK                         _______ _______ _______ _____ _____    ______ ____
ROOT
ATOM      1  C   UNL     1      47.852   8.388  12.570  0.00  0.00    +0.000 C 
ENDROOT
BRANCH   1   2
ATOM      2  C   UNL     1      48.179   8.010  14.008  0.00  0.00    +0.000 A 
ATOM      3  C   UNL     1      48.275   9.004  14.991  0.00  0.00    +0.000 A 
ATOM      4  C   UNL     1      48.586   8.673  16.313  0.00  0.00    +0.000 A 
ATOM      5  C   UNL     1      48.794   7.338  16.692  0.00  0.00    +0.000 A 
ATOM      6  C   UNL     1      48.677   6.340  15.718  0.00  0.00    +0.000 A 
ATOM      7  C   UNL     1      48.374   6.672  14.394  0.00  0.00    +0.000 A 
BRANCH   5   8
ATOM      8  C   UNL     1      49.115   6.991  18.132  0.00  0.00    +0.000 C 
BRANCH   8   9
ATOM      9  N   UNL     1      48.123   6.053  18.651  0.00  0.00    +0.000 NA
ATOM     10  H   UNL     1      47.598   5.675  17.864  0.00  0.00    +0.000 HD
BRANCH   9  11
ATOM     11  C   UNL     1      48.700   4.970  19.443  0.00  0.00    +0.000 C 
BRANCH  11  12
ATOM     12  C   UNL     1      48.708   3.692  18.602  0.00  0.00    +0.000 C 
ATOM     13  C   UNL     1      47.629   3.607  17.532  0.00  0.00    +0.000 C 
ATOM     14  C   UNL     1      48.140   2.453  16.697  0.00  0.00    +0.000 C 
ATOM     15  N   UNL     1      49.590   2.667  16.614  0.00  0.00    +0.000 NA
ATOM     16  C   UNL     1      49.980   3.478  17.786  0.00  0.00    +0.000 C 
ATOM     17  H   UNL     1      49.797   3.198  15.768  0.00  0.00    +0.000 HD
ENDBRANCH  11  12
ENDBRANCH   9  11
ENDBRANCH   8   9
ENDBRANCH   5   8
ENDBRANCH   1   2
BRANCH   1  18
ATOM     18  N   UNL     1      47.264   7.237  11.902  0.00  0.00    +0.000 N 
ATOM     19  C   UNL     1      45.944   7.150  11.548  0.00  0.00    +0.000 C 
ATOM     20  O   UNL     1      45.150   8.068  11.735  0.00  0.00    +0.000 OA
ATOM     21  H   UNL     1      47.859   6.422  11.808  0.00  0.00    +0.000 HD
BRANCH  19  22
ATOM     22  C   UNL     1      45.531   5.896  10.896  0.00  0.00    +0.000 A 
ATOM     23  C   UNL     1      45.796   5.697   9.547  0.00  0.00    +0.000 A 
ATOM     24  S   UNL     1      45.233   4.201   8.952  0.00  0.00    +0.000 S 
ATOM     25  C   UNL     1      44.565   3.788  10.462  0.00  0.00    +0.000 A 
ATOM     26  N   UNL     1      43.871   2.629  10.628  0.00  0.00    +0.000 NA
ATOM     27  C   UNL     1      43.378   2.466  11.811  0.00  0.00    +0.000 A 
ATOM     28  N   UNL     1      43.535   3.344  12.850  0.00  0.00    +0.000 N 
ATOM     29  C   UNL     1      44.312   4.471  12.752  0.00  0.00    +0.000 A 
ATOM     30  O   UNL     1      44.575   5.136  13.746  0.00  0.00    +0.000 OA
ATOM     31  C   UNL     1      44.819   4.750  11.422  0.00  0.00    +0.000 A 
ATOM     32  H   UNL     1      43.168   3.138  13.766  0.00  0.00    +0.000 HD
ENDBRANCH  19  22
ENDBRANCH   1  18
BRANCH   1  34
ATOM     33  C   UNL     1      50.054   7.782  11.411  0.00  0.00    +0.000 C 
ATOM     34  C   UNL     1      49.085   8.895  11.793  0.00  0.00    +0.000 C 
ENDBRANCH   1  34
TORSDOF 8
ENDMDL
MODEL 6
REMARK VINA RESULT:    -6.841      3.092      4.847
REMARK INTER + INTRA:         -11.376
REMARK INTER:                 -10.037
REMARK INTRA:                  -1.339
REMARK UNBOUND:                -1.336
REMARK  Name = 
REMARK  9 active torsions:
REMARK  status: ('A' for Active; 'I' for Inactive)
REMARK    1  A    between atoms: C_1  and  C_2
REMARK    2  A    between atoms: C_2  and  C_3
REMARK    3  A    between atoms: C_3  and  N_4
REMARK    4  A    between atoms: C_3  and  C_17
REMARK    5  A    between atoms: C_5  and  C_7
REMARK    6  A    between atoms: C_20  and  C_21
REMARK    7  A    between atoms: C_21  and  N_22
REMARK    8  A    between atoms: N_22  and  C_23
REMARK    9  A    between atoms: C_23  and  C_24
REMARK                            x       y       z     vdW  Elec       q    Type
REMARK                         _______ _______ _______ _____ _____    ______ ____
ROOT
ATOM      1  C   UNL     1      49.421   6.798  17.317  0.00  0.00    +0.000 C 
ENDROOT
BRANCH   1   2
ATOM      2  C   UNL     1      48.623   6.262  16.135  0.00  0.00    +0.000 A 
ATOM      3  C   UNL     1      48.636   6.946  14.912  0.00  0.00    +0.000 A 
ATOM      4  C   UNL     1      47.900   6.471  13.822  0.00  0.00    +0.000 A 
ATOM      5  C   UNL     1      47.144   5.293  13.919  0.00  0.00    +0.000 A 
ATOM      6  C   UNL     1      47.148   4.595  15.132  0.00  0.00    +0.000 A 
ATOM      7  C   UNL     1      47.877   5.074  16.225  0.00  0.00    +0.000 A 
BRANCH   5   8
ATOM      8  C   UNL     1      46.364   4.781  12.726  0.00  0.00    +0.000 C 
BRANCH   8   9
ATOM      9  N   UNL     1      45.728   3.509  13.055  0.00  0.00    +0.000 NA
ATOM     10  H   UNL     1      45.473   3.524  14.042  0.00  0.00    +0.000 HD
BRANCH   9  11
ATOM     11  C   UNL     1      44.557   3.210  12.234  0.00  0.00    +0.000 C 
BRANCH  11  12
ATOM     12  C   UNL     1      44.818   3.696  10.806  0.00  0.00    +0.000 C 
ATOM     13  C   UNL     1      44.880   2.606   9.747  0.00  0.00    +0.000 C 
ATOM     14  C   UNL     1      44.782   3.428   8.479  0.00  0.00    +0.000 C 
ATOM     15  N   UNL     1      43.771   4.451   8.777  0.00  0.00    +0.000 NA
ATOM     16  C   UNL     1      43.742   4.621  10.245  0.00  0.00    +0.000 C 
ATOM     17  H   UNL     1      42.859   4.112   8.471  0.00  0.00    +0.000 HD
ENDBRANCH  11  12
ENDBRANCH   9  11
ENDBRANCH   8   9
ENDBRANCH   5   8
ENDBRANCH   1   2
BRANCH   1  18
ATOM     18  N   UNL     1      50.376   5.785  17.738  0.00  0.00    +0.000 N 
ATOM     19  C   UNL     1      51.622   5.633  17.192  0.00  0.00    +0.000 C 
ATOM     20  O   UNL     1      52.051   6.378  16.314  0.00  0.00    +0.000 OA
ATOM     21  H   UNL     1      50.034   5.093  18.395  0.00  0.00    +0.000 HD
BRANCH  19  22
ATOM     22  C   UNL     1      52.440   4.538  17.738  0.00  0.00    +0.000 A 
ATOM     23  C   UNL     1      53.683   4.813  18.294  0.00  0.00    +0.000 A 
ATOM     24  S   UNL     1      54.501   3.428  18.861  0.00  0.00    +0.000 S 
ATOM     25  C   UNL     1      53.249   2.403  18.335  0.00  0.00    +0.000 A 
ATOM     26  N   UNL     1      53.346   1.052  18.467  0.00  0.00    +0.000 NA
ATOM     27  C   UNL     1      52.346   0.395  17.982  0.00  0.00    +0.000 A 
ATOM     28  N   UNL     1      51.246   0.964  17.398  0.00  0.00    +0.000 N 
ATOM     29  C   UNL     1      51.064   2.323  17.337  0.00  0.00    +0.000 A 
ATOM     30  O   UNL     1      49.994   2.793  16.972  0.00  0.00    +0.000 OA
ATOM     31  C   UNL     1      52.194   3.112  17.788  0.00  0.00    +0.000 A 
ATOM     32  H   UNL     1      50.474   0.400  17.081  0.00  0.00    +0.000 HD
ENDBRANCH  19  22
ENDBRANCH   1  18
BRANCH   1  34
ATOM     33  C   UNL     1      48.384   6.143  19.565  0.00  0.00    +0.000 C 
ATOM     34  C   UNL     1      48.522   7.221  18.497  0.00  0.00    +0.000 C 
ENDBRANCH   1  34
TORSDOF 8
ENDMDL
MODEL 7
REMARK VINA RESULT:    -6.632      4.322      8.603
REMARK INTER + INTRA:         -11.069
REMARK INTER:                 -10.546
REMARK INTRA:                  -0.523
REMARK UNBOUND:                -1.336
REMARK  Name = 
REMARK  9 active torsions:
REMARK  status: ('A' for Active; 'I' for Inactive)
REMARK    1  A    between atoms: C_1  and  C_2
REMARK    2  A    between atoms: C_2  and  C_3
REMARK    3  A    between atoms: C_3  and  N_4
REMARK    4  A    between atoms: C_3  and  C_17
REMARK    5  A    between atoms: C_5  and  C_7
REMARK    6  A    between atoms: C_20  and  C_21
REMARK    7  A    between atoms: C_21  and  N_22
REMARK    8  A    between atoms: N_22  and  C_23
REMARK    9  A    between atoms: C_23  and  C_24
REMARK                            x       y       z     vdW  Elec       q    Type
REMARK                         _______ _______ _______ _____ _____    ______ ____
ROOT
ATOM      1  C   UNL     1      48.575   5.837  17.329  0.00  0.00    +0.000 C 
ENDROOT
BRANCH   1   2
ATOM      2  C   UNL     1      49.436   4.580  17.358  0.00  0.00    +0.000 A 
ATOM      3  C   UNL     1      50.800   4.671  17.665  0.00  0.00    +0.000 A 
ATOM      4  C   UNL     1      51.604   3.528  17.685  0.00  0.00    +0.000 A 
ATOM      5  C   UNL     1      51.065   2.262  17.412  0.00  0.00    +0.000 A 
ATOM      6  C   UNL     1      49.699   2.165  17.127  0.00  0.00    +0.000 A 
ATOM      7  C   UNL     1      48.896   3.309  17.100  0.00  0.00    +0.000 A 
BRANCH   5   8
ATOM      8  C   UNL     1      51.944   1.029  17.452  0.00  0.00    +0.000 C 
BRANCH   8   9
ATOM      9  N   UNL     1      52.990   1.194  18.458  0.00  0.00    +0.000 NA
ATOM     10  H   UNL     1      52.918   0.425  19.123  0.00  0.00    +0.000 HD
BRANCH   9  11
ATOM     11  C   UNL     1      54.337   1.256  17.896  0.00  0.00    +0.000 C 
BRANCH  11  12
ATOM     12  C   UNL     1      54.898  -0.165  17.800  0.00  0.00    +0.000 C 
ATOM     13  C   UNL     1      54.240  -1.190  18.712  0.00  0.00    +0.000 C 
ATOM     14  C   UNL     1      54.757  -2.482  18.116  0.00  0.00    +0.000 C 
ATOM     15  N   UNL     1      54.692  -2.274  16.664  0.00  0.00    +0.000 NA
ATOM     16  C   UNL     1      54.742  -0.816  16.429  0.00  0.00    +0.000 C 
ATOM     17  H   UNL     1      53.798  -2.628  16.321  0.00  0.00    +0.000 HD
ENDBRANCH  11  12
ENDBRANCH   9  11
ENDBRANCH   8   9
ENDBRANCH   5   8
ENDBRANCH   1   2
BRANCH   1  18
ATOM     18  N   UNL     1      47.794   5.845  16.102  0.00  0.00    +0.000 N 
ATOM     19  C   UNL     1      48.286   6.229  14.884  0.00  0.00    +0.000 C 
ATOM     20  O   UNL     1      49.457   6.566  14.723  0.00  0.00    +0.000 OA
ATOM     21  H   UNL     1      46.802   5.662  16.202  0.00  0.00    +0.000 HD
BRANCH  19  22
ATOM     22  C   UNL     1      47.337   6.188  13.759  0.00  0.00    +0.000 A 
ATOM     23  C   UNL     1      46.981   7.363  13.111  0.00  0.00    +0.000 A 
ATOM     24  S   UNL     1      45.859   7.135  11.846  0.00  0.00    +0.000 S 
ATOM     25  C   UNL     1      45.765   5.464  12.156  0.00  0.00    +0.000 A 
ATOM     26  N   UNL     1      44.919   4.667  11.449  0.00  0.00    +0.000 NA
ATOM     27  C   UNL     1      44.914   3.430  11.821  0.00  0.00    +0.000 A 
ATOM     28  N   UNL     1      45.695   2.912  12.820  0.00  0.00    +0.000 N 
ATOM     29  C   UNL     1      46.632   3.660  13.486  0.00  0.00    +0.000 A 
ATOM     30  O   UNL     1      47.433   3.127  14.244  0.00  0.00    +0.000 OA
ATOM     31  C   UNL     1      46.621   5.076  13.170  0.00  0.00    +0.000 A 
ATOM     32  H   UNL     1      45.683   1.927  13.033  0.00  0.00    +0.000 HD
ENDBRANCH  19  22
ENDBRANCH   1  18
BRANCH   1  34
ATOM     33  C   UNL     1      48.666   8.260  18.154  0.00  0.00    +0.000 C 
ATOM     34  C   UNL     1      49.408   7.130  17.451  0.00  0.00    +0.000 C 
ENDBRANCH   1  34
TORSDOF 8
ENDMDL
MODEL 8
REMARK VINA RESULT:    -6.404      4.346      7.079
REMARK INTER + INTRA:         -10.735
REMARK INTER:                  -9.475
REMARK INTRA:                  -1.260
REMARK UNBOUND:                -1.336
REMARK  Name = 
REMARK  9 active torsions:
REMARK  status: ('A' for Active; 'I' for Inactive)
REMARK    1  A    between atoms: C_1  and  C_2
REMARK    2  A    between atoms: C_2  and  C_3
REMARK    3  A    between atoms: C_3  and  N_4
REMARK    4  A    between atoms: C_3  and  C_17
REMARK    5  A    between atoms: C_5  and  C_7
REMARK    6  A    between atoms: C_20  and  C_21
REMARK    7  A    between atoms: C_21  and  N_22
REMARK    8  A    between atoms: N_22  and  C_23
REMARK    9  A    between atoms: C_23  and  C_24
REMARK                            x       y       z     vdW  Elec       q    Type
REMARK                         _______ _______ _______ _____ _____    ______ ____
ROOT
ATOM      1  C   UNL     1      46.084   8.087  12.897  0.00  0.00    +0.000 C 
ENDROOT
BRANCH   1   2
ATOM      2  C   UNL     1      47.522   8.226  12.412  0.00  0.00    +0.000 A 
ATOM      3  C   UNL     1      48.367   7.109  12.395  0.00  0.00    +0.000 A 
ATOM      4  C   UNL     1      49.692   7.224  11.962  0.00  0.00    +0.000 A 
ATOM      5  C   UNL     1      50.202   8.454  11.521  0.00  0.00    +0.000 A 
ATOM      6  C   UNL     1      49.354   9.566  11.515  0.00  0.00    +0.000 A 
ATOM      7  C   UNL     1      48.032   9.453  11.955  0.00  0.00    +0.000 A 
BRANCH   5   8
ATOM      8  C   UNL     1      51.635   8.561  11.040  0.00  0.00    +0.000 C 
BRANCH   8   9
ATOM      9  N   UNL     1      52.222   7.230  10.920  0.00  0.00    +0.000 NA
ATOM     10  H   UNL     1      51.482   6.576  10.668  0.00  0.00    +0.000 HD
BRANCH   9  11
ATOM     11  C   UNL     1      53.315   7.157   9.953  0.00  0.00    +0.000 C 
BRANCH  11  12
ATOM     12  C   UNL     1      52.750   7.387   8.550  0.00  0.00    +0.000 C 
ATOM     13  C   UNL     1      53.317   8.585   7.805  0.00  0.00    +0.000 C 
ATOM     14  C   UNL     1      52.839   8.304   6.396  0.00  0.00    +0.000 C 
ATOM     15  N   UNL     1      53.030   6.859   6.221  0.00  0.00    +0.000 NA
ATOM     16  C   UNL     1      53.014   6.249   7.567  0.00  0.00    +0.000 C 
ATOM     17  H   UNL     1      53.945   6.697   5.801  0.00  0.00    +0.000 HD
ENDBRANCH  11  12
ENDBRANCH   9  11
ENDBRANCH   8   9
ENDBRANCH   5   8
ENDBRANCH   1   2
BRANCH   1  18
ATOM     18  N   UNL     1      45.491   6.910  12.281  0.00  0.00    +0.000 N 
ATOM     19  C   UNL     1      45.469   5.671  12.862  0.00  0.00    +0.000 C 
ATOM     20  O   UNL     1      45.921   5.462  13.985  0.00  0.00    +0.000 OA
ATOM     21  H   UNL     1      45.186   7.014  11.320  0.00  0.00    +0.000 HD
BRANCH  19  22
ATOM     22  C   UNL     1      44.839   4.598  12.075  0.00  0.00    +0.000 A 
ATOM     23  C   UNL     1      44.026   3.664  12.704  0.00  0.00    +0.000 A 
ATOM     24  S   UNL     1      43.396   2.483  11.647  0.00  0.00    +0.000 S 
ATOM     25  C   UNL     1      44.231   3.143  10.320  0.00  0.00    +0.000 A 
ATOM     26  N   UNL     1      44.169   2.560   9.092  0.00  0.00    +0.000 NA
ATOM     27  C   UNL     1      44.889   3.138   8.189  0.00  0.00    +0.000 A 
ATOM     28  N   UNL     1      45.647   4.260   8.394  0.00  0.00    +0.000 N 
ATOM     29  C   UNL     1      45.655   4.936   9.589  0.00  0.00    +0.000 A 
ATOM     30  O   UNL     1      46.199   6.029   9.684  0.00  0.00    +0.000 OA
ATOM     31  C   UNL     1      44.933   4.284  10.665  0.00  0.00    +0.000 A 
ATOM     32  H   UNL     1      46.150   4.695   7.637  0.00  0.00    +0.000 HD
ENDBRANCH  19  22
ENDBRANCH   1  18
BRANCH   1  34
ATOM     33  C   UNL     1      44.406   9.221  11.330  0.00  0.00    +0.000 C 
ATOM     34  C   UNL     1      45.234   9.340  12.604  0.00  0.00    +0.000 C 
ENDBRANCH   1  34
TORSDOF 8
ENDMDL
MODEL 9
REMARK VINA RESULT:    -6.185      4.401      8.847
REMARK INTER + INTRA:         -10.414
REMARK INTER:                  -9.673
REMARK INTRA:                  -0.741
REMARK UNBOUND:                -1.336
REMARK  Name = 
REMARK  9 active torsions:
REMARK  status: ('A' for Active; 'I' for Inactive)
REMARK    1  A    between atoms: C_1  and  C_2
REMARK    2  A    between atoms: C_2  and  C_3
REMARK    3  A    between atoms: C_3  and  N_4
REMARK    4  A    between atoms: C_3  and  C_17
REMARK    5  A    between atoms: C_5  and  C_7
REMARK    6  A    between atoms: C_20  and  C_21
REMARK    7  A    between atoms: C_21  and  N_22
REMARK    8  A    between atoms: N_22  and  C_23
REMARK    9  A    between atoms: C_23  and  C_24
REMARK                            x       y       z     vdW  Elec       q    Type
REMARK                         _______ _______ _______ _____ _____    ______ ____
ROOT
ATOM      1  C   UNL     1      47.634   4.267  17.520  0.00  0.00    +0.000 C 
ENDROOT
BRANCH   1   2
ATOM      2  C   UNL     1      49.086   3.809  17.587  0.00  0.00    +0.000 A 
ATOM      3  C   UNL     1      49.411   2.469  17.338  0.00  0.00    +0.000 A 
ATOM      4  C   UNL     1      50.737   2.032  17.407  0.00  0.00    +0.000 A 
ATOM      5  C   UNL     1      51.776   2.925  17.712  0.00  0.00    +0.000 A 
ATOM      6  C   UNL     1      51.457   4.268  17.939  0.00  0.00    +0.000 A 
ATOM      7  C   UNL     1      50.130   4.704  17.878  0.00  0.00    +0.000 A 
BRANCH   5   8
ATOM      8  C   UNL     1      53.211   2.442  17.768  0.00  0.00    +0.000 C 
BRANCH   8   9
ATOM      9  N   UNL     1      53.249   1.039  18.167  0.00  0.00    +0.000 NA
ATOM     10  H   UNL     1      52.941   0.472  17.378  0.00  0.00    +0.000 HD
BRANCH   9  11
ATOM     11  C   UNL     1      54.564   0.597  18.626  0.00  0.00    +0.000 C 
BRANCH  11  12
ATOM     12  C   UNL     1      55.065  -0.511  17.698  0.00  0.00    +0.000 C 
ATOM     13  C   UNL     1      54.686  -1.927  18.105  0.00  0.00    +0.000 C 
ATOM     14  C   UNL     1      55.005  -2.689  16.837  0.00  0.00    +0.000 C 
ATOM     15  N   UNL     1      54.533  -1.819  15.751  0.00  0.00    +0.000 NA
ATOM     16  C   UNL     1      54.524  -0.436  16.272  0.00  0.00    +0.000 C 
ATOM     17  H   UNL     1      53.577  -2.082  15.512  0.00  0.00    +0.000 HD
ENDBRANCH  11  12
ENDBRANCH   9  11
ENDBRANCH   8   9
ENDBRANCH   5   8
ENDBRANCH   1   2
BRANCH   1  18
ATOM     18  N   UNL     1      47.439   5.033  16.299  0.00  0.00    +0.000 N 
ATOM     19  C   UNL     1      47.289   4.473  15.059  0.00  0.00    +0.000 C 
ATOM     20  O   UNL     1      47.270   3.257  14.884  0.00  0.00    +0.000 OA
ATOM     21  H   UNL     1      47.537   6.039  16.381  0.00  0.00    +0.000 HD
BRANCH  19  22
ATOM     22  C   UNL     1      47.120   5.414  13.939  0.00  0.00    +0.000 A 
ATOM     23  C   UNL     1      48.157   6.272  13.595  0.00  0.00    +0.000 A 
ATOM     24  S   UNL     1      47.785   7.305  12.289  0.00  0.00    +0.000 S 
ATOM     25  C   UNL     1      46.205   6.682  12.173  0.00  0.00    +0.000 A 
ATOM     26  N   UNL     1      45.318   7.185  11.272  0.00  0.00    +0.000 NA
ATOM     27  C   UNL     1      44.143   6.652  11.326  0.00  0.00    +0.000 A 
ATOM     28  N   UNL     1      43.779   5.647  12.181  0.00  0.00    +0.000 N 
ATOM     29  C   UNL     1      44.671   5.044  13.032  0.00  0.00    +0.000 A 
ATOM     30  O   UNL     1      44.358   4.035  13.651  0.00  0.00    +0.000 OA
ATOM     31  C   UNL     1      45.984   5.659  13.077  0.00  0.00    +0.000 A 
ATOM     32  H   UNL     1      42.859   5.237  12.143  0.00  0.00    +0.000 HD
ENDBRANCH  19  22
ENDBRANCH   1  18
BRANCH   1  34
ATOM     33  C   UNL     1      47.473   6.586  18.593  0.00  0.00    +0.000 C 
ATOM     34  C   UNL     1      47.214   5.093  18.753  0.00  0.00    +0.000 C 
ENDBRANCH   1  34
TORSDOF 8
ENDMDL
