MODEL 1
REMARK VINA RESULT:    -7.941      0.000      0.000
REMARK INTER + INTRA:         -13.072
REMARK INTER:                 -11.654
REMARK INTRA:                  -1.418
REMARK UNBOUND:                -1.418
REMARK  Name = 
REMARK  10 active torsions:
REMARK  status: ('A' for Active; 'I' for Inactive)
REMARK    1  A    between atoms: C_1  and  O_2
REMARK    2  A    between atoms: O_2  and  C_3
REMARK    3  A    between atoms: C_10  and  C_11
REMARK    4  A    between atoms: N_13  and  C_14
REMARK    5  A    between atoms: C_14  and  C_15
REMARK    6  A    between atoms: C_18  and  C_19
REMARK    7  A    between atoms: C_19  and  O_20
REMARK    8  A    between atoms: O_20  and  C_21
REMARK    9  A    between atoms: C_21  and  C_22
REMARK   10  A    between atoms: C_26  and  C_27
REMARK                            x       y       z     vdW  Elec       q    Type
REMARK                         _______ _______ _______ _____ _____    ______ ____
ROOT
ATOM      1  C   UNL     1      48.492   6.662  13.564  0.00  0.00    +0.000 C 
ENDROOT
BRANCH   1   2
ATOM      2  C   UNL     1      47.169   6.241  12.954  0.00  0.00    +0.000 A 
ATOM      3  C   UNL     1      46.292   5.394  13.650  0.00  0.00    +0.000 A 
ATOM      4  C   UNL     1      45.052   5.032  13.100  0.00  0.00    +0.000 A 
ATOM      5  C   UNL     1      44.672   5.491  11.831  0.00  0.00    +0.000 A 
ATOM      6  C   UNL     1      45.548   6.333  11.136  0.00  0.00    +0.000 A 
ATOM      7  C   UNL     1      46.784   6.699  11.687  0.00  0.00    +0.000 A 
BRANCH   5   8
ATOM      8  C   UNL     1      43.367   5.069  11.202  0.00  0.00    +0.000 C 
BRANCH   8   9
ATOM      9  O   UNL     1      43.612   4.557   9.899  0.00  0.00    +0.000 OA
BRANCH   9  10
ATOM     10  C   UNL     1      44.056   3.198   9.954  0.00  0.00    +0.000 C 
BRANCH  10  11
ATOM     11  C   UNL     1      45.110   2.934   8.905  0.00  0.00    +0.000 A 
ATOM     12  C   UNL     1      45.678   3.979   8.182  0.00  0.00    +0.000 A 
ATOM     13  C   UNL     1      46.646   3.688   7.231  0.00  0.00    +0.000 A 
ATOM     14  C   UNL     1      47.033   2.367   7.036  0.00  0.00    +0.000 A 
ATOM     15  C   UNL     1      46.441   1.374   7.808  0.00  0.00    +0.000 A 
ATOM     16  C   UNL     1      46.830  -0.064   7.644  0.00  0.00    +0.000 C 
ATOM     17  N   UNL     1      45.496   1.641   8.740  0.00  0.00    +0.000 NA
ENDBRANCH  10  11
ENDBRANCH   9  10
ENDBRANCH   8   9
ENDBRANCH   5   8
ENDBRANCH   1   2
BRANCH   1  20
ATOM     18  C   UNL     1      49.414   7.252  15.798  0.00  0.00    +0.000 C 
ATOM     19  O   UNL     1      50.420   7.758  15.314  0.00  0.00    +0.000 OA
ATOM     20  N   UNL     1      48.445   6.686  15.005  0.00  0.00    +0.000 N 
ATOM     21  H   UNL     1      47.621   6.291  15.437  0.00  0.00    +0.000 HD
BRANCH  18  29
ATOM     22  C   UNL     1      48.903   4.688  18.025  0.00  0.00    +0.000 A 
ATOM     23  N   UNL     1      48.742   3.879  19.088  0.00  0.00    +0.000 NA
ATOM     24  C   UNL     1      48.665   4.441  20.296  0.00  0.00    +0.000 A 
ATOM     25  N   UNL     1      48.717   5.741  20.581  0.00  0.00    +0.000 NA
ATOM     26  C   UNL     1      48.878   6.510  19.488  0.00  0.00    +0.000 A 
ATOM     27  S   UNL     1      48.948   8.200  19.654  0.00  0.00    +0.000 S 
ATOM     28  C   UNL     1      49.156   8.406  17.976  0.00  0.00    +0.000 A 
ATOM     29  C   UNL     1      49.191   7.217  17.260  0.00  0.00    +0.000 A 
ATOM     30  C   UNL     1      48.996   6.082  18.171  0.00  0.00    +0.000 A 
BRANCH  22  32
ATOM     31  C   UNL     1      47.818   3.326  16.442  0.00  0.00    +0.000 C 
ATOM     32  O   UNL     1      48.954   4.115  16.773  0.00  0.00    +0.000 OA
ENDBRANCH  22  32
ENDBRANCH  18  29
ENDBRANCH   1  20
TORSDOF 8
ENDMDL
MODEL 2
REMARK VINA RESULT:    -7.669      1.432      2.550
REMARK INTER + INTRA:         -12.674
REMARK INTER:                 -11.462
REMARK INTRA:                  -1.212
REMARK UNBOUND:                -1.418
REMARK  Name = 
REMARK  10 active torsions:
REMARK  status: ('A' for Active; 'I' for Inactive)
REMARK    1  A    between atoms: C_1  and  O_2
REMARK    2  A    between atoms: O_2  and  C_3
REMARK    3  A    between atoms: C_10  and  C_11
REMARK    4  A    between atoms: N_13  and  C_14
REMARK    5  A    between atoms: C_14  and  C_15
REMARK    6  A    between atoms: C_18  and  C_19
REMARK    7  A    between atoms: C_19  and  O_20
REMARK    8  A    between atoms: O_20  and  C_21
REMARK    9  A    between atoms: C_21  and  C_22
REMARK   10  A    between atoms: C_26  and  C_27
REMARK                            x       y       z     vdW  Elec       q    Type
REMARK                         _______ _______ _______ _____ _____    ______ ____
ROOT
ATOM      1  C   UNL     1      48.282   6.653  13.969  0.00  0.00    +0.000 C 
ENDROOT
BRANCH   1   2
ATOM      2  C   UNL     1      47.007   6.251  13.254  0.00  0.00    +0.000 A 
ATOM      3  C   UNL     1      46.598   6.911  12.085  0.00  0.00    +0.000 A 
ATOM      4  C   UNL     1      45.436   6.516  11.404  0.00  0.00    +0.000 A 
ATOM      5  C   UNL     1      44.644   5.467  11.891  0.00  0.00    +0.000 A 
ATOM      6  C   UNL     1      45.050   4.811  13.058  0.00  0.00    +0.000 A 
ATOM      7  C   UNL     1      46.213   5.202  13.736  0.00  0.00    +0.000 A 
BRANCH   5   8
ATOM      8  C   UNL     1      43.364   5.063  11.202  0.00  0.00    +0.000 C 
BRANCH   8   9
ATOM      9  O   UNL     1      43.660   4.563   9.905  0.00  0.00    +0.000 OA
BRANCH   9  10
ATOM     10  C   UNL     1      44.111   3.206   9.966  0.00  0.00    +0.000 C 
BRANCH  10  11
ATOM     11  C   UNL     1      45.161   2.941   8.914  0.00  0.00    +0.000 A 
ATOM     12  C   UNL     1      45.753   3.987   8.213  0.00  0.00    +0.000 A 
ATOM     13  C   UNL     1      46.716   3.695   7.257  0.00  0.00    +0.000 A 
ATOM     14  C   UNL     1      47.076   2.371   7.037  0.00  0.00    +0.000 A 
ATOM     15  C   UNL     1      46.462   1.375   7.789  0.00  0.00    +0.000 A 
ATOM     16  C   UNL     1      46.821  -0.067   7.598  0.00  0.00    +0.000 C 
ATOM     17  N   UNL     1      45.520   1.644   8.724  0.00  0.00    +0.000 NA
ENDBRANCH  10  11
ENDBRANCH   9  10
ENDBRANCH   8   9
ENDBRANCH   5   8
ENDBRANCH   1   2
BRANCH   1  20
ATOM     18  C   UNL     1      49.245   6.365  16.244  0.00  0.00    +0.000 C 
ATOM     19  O   UNL     1      50.392   6.301  15.815  0.00  0.00    +0.000 OA
ATOM     20  N   UNL     1      48.172   6.518  15.400  0.00  0.00    +0.000 N 
ATOM     21  H   UNL     1      47.242   6.582  15.789  0.00  0.00    +0.000 HD
BRANCH  18  29
ATOM     22  C   UNL     1      47.840   8.548  18.491  0.00  0.00    +0.000 A 
ATOM     23  N   UNL     1      47.282   9.184  19.538  0.00  0.00    +0.000 NA
ATOM     24  C   UNL     1      47.213   8.533  20.701  0.00  0.00    +0.000 A 
ATOM     25  N   UNL     1      47.652   7.303  20.959  0.00  0.00    +0.000 NA
ATOM     26  C   UNL     1      48.202   6.707  19.884  0.00  0.00    +0.000 A 
ATOM     27  S   UNL     1      48.836   5.137  20.026  0.00  0.00    +0.000 S 
ATOM     28  C   UNL     1      49.283   5.114  18.384  0.00  0.00    +0.000 A 
ATOM     29  C   UNL     1      48.954   6.273  17.691  0.00  0.00    +0.000 A 
ATOM     30  C   UNL     1      48.330   7.237  18.605  0.00  0.00    +0.000 A 
BRANCH  22  32
ATOM     31  C   UNL     1      48.506  10.527  17.405  0.00  0.00    +0.000 C 
ATOM     32  O   UNL     1      47.940   9.227  17.296  0.00  0.00    +0.000 OA
ENDBRANCH  22  32
ENDBRANCH  18  29
ENDBRANCH   1  20
TORSDOF 8
ENDMDL
MODEL 3
REMARK VINA RESULT:    -7.149      1.681      2.353
REMARK INTER + INTRA:         -11.910
REMARK INTER:                 -10.581
REMARK INTRA:                  -1.329
REMARK UNBOUND:                -1.418
REMARK  Name = 
REMARK  10 active torsions:
REMARK  status: ('A' for Active; 'I' for Inactive)
REMARK    1  A    between atoms: C_1  and  O_2
REMARK    2  A    between atoms: O_2  and  C_3
REMARK    3  A    between atoms: C_10  and  C_11
REMARK    4  A    between atoms: N_13  and  C_14
REMARK    5  A    between atoms: C_14  and  C_15
REMARK    6  A    between atoms: C_18  and  C_19
REMARK    7  A    between atoms: C_19  and  O_20
REMARK    8  A    between atoms: O_20  and  C_21
REMARK    9  A    between atoms: C_21  and  C_22
REMARK   10  A    between atoms: C_26  and  C_27
REMARK                            x       y       z     vdW  Elec       q    Type
REMARK                         _______ _______ _______ _____ _____    ______ ____
ROOT
ATOM      1  C   UNL     1      47.615   4.291  15.100  0.00  0.00    +0.000 C 
ENDROOT
BRANCH   1   2
ATOM      2  C   UNL     1      46.609   4.414  13.973  0.00  0.00    +0.000 A 
ATOM      3  C   UNL     1      46.206   3.286  13.241  0.00  0.00    +0.000 A 
ATOM      4  C   UNL     1      45.248   3.394  12.220  0.00  0.00    +0.000 A 
ATOM      5  C   UNL     1      44.689   4.638  11.893  0.00  0.00    +0.000 A 
ATOM      6  C   UNL     1      45.093   5.762  12.621  0.00  0.00    +0.000 A 
ATOM      7  C   UNL     1      46.045   5.654  13.644  0.00  0.00    +0.000 A 
BRANCH   5   8
ATOM      8  C   UNL     1      43.698   4.781  10.765  0.00  0.00    +0.000 C 
BRANCH   8   9
ATOM      9  O   UNL     1      43.912   3.749   9.811  0.00  0.00    +0.000 OA
BRANCH   9  10
ATOM     10  C   UNL     1      44.624   4.239   8.671  0.00  0.00    +0.000 C 
BRANCH  10  11
ATOM     11  C   UNL     1      45.480   3.154   8.065  0.00  0.00    +0.000 A 
ATOM     12  C   UNL     1      45.576   1.900   8.661  0.00  0.00    +0.000 A 
ATOM     13  C   UNL     1      46.372   0.932   8.065  0.00  0.00    +0.000 A 
ATOM     14  C   UNL     1      47.040   1.233   6.884  0.00  0.00    +0.000 A 
ATOM     15  C   UNL     1      46.882   2.498   6.329  0.00  0.00    +0.000 A 
ATOM     16  C   UNL     1      47.572   2.870   5.051  0.00  0.00    +0.000 C 
ATOM     17  N   UNL     1      46.110   3.453   6.898  0.00  0.00    +0.000 NA
ENDBRANCH  10  11
ENDBRANCH   9  10
ENDBRANCH   8   9
ENDBRANCH   5   8
ENDBRANCH   1   2
BRANCH   1  20
ATOM     18  C   UNL     1      48.605   6.382  16.015  0.00  0.00    +0.000 C 
ATOM     19  O   UNL     1      49.610   6.279  15.321  0.00  0.00    +0.000 OA
ATOM     20  N   UNL     1      47.604   5.441  15.969  0.00  0.00    +0.000 N 
ATOM     21  H   UNL     1      46.782   5.565  16.543  0.00  0.00    +0.000 HD
BRANCH  18  29
ATOM     22  C   UNL     1      47.735   6.574  19.331  0.00  0.00    +0.000 A 
ATOM     23  N   UNL     1      47.471   6.914  20.607  0.00  0.00    +0.000 NA
ATOM     24  C   UNL     1      47.519   8.207  20.933  0.00  0.00    +0.000 A 
ATOM     25  N   UNL     1      47.792   9.229  20.123  0.00  0.00    +0.000 NA
ATOM     26  C   UNL     1      48.050   8.842  18.860  0.00  0.00    +0.000 A 
ATOM     27  S   UNL     1      48.402  10.011  17.679  0.00  0.00    +0.000 S 
ATOM     28  C   UNL     1      48.597   8.816  16.482  0.00  0.00    +0.000 A 
ATOM     29  C   UNL     1      48.417   7.518  16.943  0.00  0.00    +0.000 A 
ATOM     30  C   UNL     1      48.061   7.542  18.367  0.00  0.00    +0.000 A 
BRANCH  22  32
ATOM     31  C   UNL     1      48.816   4.484  19.306  0.00  0.00    +0.000 C 
ATOM     32  O   UNL     1      47.658   5.243  18.983  0.00  0.00    +0.000 OA
ENDBRANCH  22  32
ENDBRANCH  18  29
ENDBRANCH   1  20
TORSDOF 8
ENDMDL
MODEL 4
REMARK VINA RESULT:    -6.997      3.223      4.642
REMARK INTER + INTRA:         -11.687
REMARK INTER:                 -10.361
REMARK INTRA:                  -1.326
REMARK UNBOUND:                -1.418
REMARK  Name = 
REMARK  10 active torsions:
REMARK  status: ('A' for Active; 'I' for Inactive)
REMARK    1  A    between atoms: C_1  and  O_2
REMARK    2  A    between atoms: O_2  and  C_3
REMARK    3  A    between atoms: C_10  and  C_11
REMARK    4  A    between atoms: N_13  and  C_14
REMARK    5  A    between atoms: C_14  and  C_15
REMARK    6  A    between atoms: C_18  and  C_19
REMARK    7  A    between atoms: C_19  and  O_20
REMARK    8  A    between atoms: O_20  and  C_21
REMARK    9  A    between atoms: C_21  and  C_22
REMARK   10  A    between atoms: C_26  and  C_27
REMARK                            x       y       z     vdW  Elec       q    Type
REMARK                         _______ _______ _______ _____ _____    ______ ____
ROOT
ATOM      1  C   UNL     1      47.763   3.519  17.404  0.00  0.00    +0.000 C 
ENDROOT
BRANCH   1   2
ATOM      2  C   UNL     1      47.599   4.281  16.104  0.00  0.00    +0.000 A 
ATOM      3  C   UNL     1      48.168   5.554  15.939  0.00  0.00    +0.000 A 
ATOM      4  C   UNL     1      48.046   6.245  14.723  0.00  0.00    +0.000 A 
ATOM      5  C   UNL     1      47.330   5.689  13.653  0.00  0.00    +0.000 A 
ATOM      6  C   UNL     1      46.759   4.422  13.819  0.00  0.00    +0.000 A 
ATOM      7  C   UNL     1      46.886   3.729  15.031  0.00  0.00    +0.000 A 
BRANCH   5   8
ATOM      8  C   UNL     1      47.143   6.440  12.358  0.00  0.00    +0.000 C 
BRANCH   8   9
ATOM      9  O   UNL     1      45.778   6.379  11.967  0.00  0.00    +0.000 OA
BRANCH   9  10
ATOM     10  C   UNL     1      45.647   6.428  10.542  0.00  0.00    +0.000 C 
BRANCH  10  11
ATOM     11  C   UNL     1      45.356   5.056   9.981  0.00  0.00    +0.000 A 
ATOM     12  C   UNL     1      44.616   4.128  10.708  0.00  0.00    +0.000 A 
ATOM     13  C   UNL     1      44.370   2.881  10.150  0.00  0.00    +0.000 A 
ATOM     14  C   UNL     1      44.853   2.598   8.878  0.00  0.00    +0.000 A 
ATOM     15  C   UNL     1      45.565   3.579   8.198  0.00  0.00    +0.000 A 
ATOM     16  C   UNL     1      46.099   3.328   6.821  0.00  0.00    +0.000 C 
ATOM     17  N   UNL     1      45.814   4.799   8.728  0.00  0.00    +0.000 NA
ENDBRANCH  10  11
ENDBRANCH   9  10
ENDBRANCH   8   9
ENDBRANCH   5   8
ENDBRANCH   1   2
BRANCH   1  20
ATOM     18  C   UNL     1      49.931   2.364  17.010  0.00  0.00    +0.000 C 
ATOM     19  O   UNL     1      49.479   1.705  16.081  0.00  0.00    +0.000 OA
ATOM     20  N   UNL     1      49.147   3.251  17.708  0.00  0.00    +0.000 N 
ATOM     21  H   UNL     1      49.557   3.789  18.458  0.00  0.00    +0.000 HD
BRANCH  18  29
ATOM     22  C   UNL     1      52.351   4.663  17.820  0.00  0.00    +0.000 A 
ATOM     23  N   UNL     1      53.437   5.343  18.229  0.00  0.00    +0.000 NA
ATOM     24  C   UNL     1      54.510   4.643  18.602  0.00  0.00    +0.000 A 
ATOM     25  N   UNL     1      54.641   3.318  18.606  0.00  0.00    +0.000 NA
ATOM     26  C   UNL     1      53.532   2.681  18.190  0.00  0.00    +0.000 A 
ATOM     27  S   UNL     1      53.518   0.983  18.111  0.00  0.00    +0.000 S 
ATOM     28  C   UNL     1      51.907   0.972  17.559  0.00  0.00    +0.000 A 
ATOM     29  C   UNL     1      51.342   2.234  17.436  0.00  0.00    +0.000 A 
ATOM     30  C   UNL     1      52.332   3.258  17.790  0.00  0.00    +0.000 A 
BRANCH  22  32
ATOM     31  C   UNL     1      50.852   6.412  18.301  0.00  0.00    +0.000 C 
ATOM     32  O   UNL     1      51.250   5.382  17.406  0.00  0.00    +0.000 OA
ENDBRANCH  22  32
ENDBRANCH  18  29
ENDBRANCH   1  20
TORSDOF 8
ENDMDL
MODEL 5
REMARK VINA RESULT:    -6.967      1.819      3.187
REMARK INTER + INTRA:         -11.644
REMARK INTER:                 -10.556
REMARK INTRA:                  -1.089
REMARK UNBOUND:                -1.418
REMARK  Name = 
REMARK  10 active torsions:
REMARK  status: ('A' for Active; 'I' for Inactive)
REMARK    1  A    between atoms: C_1  and  O_2
REMARK    2  A    between atoms: O_2  and  C_3
REMARK    3  A    between atoms: C_10  and  C_11
REMARK    4  A    between atoms: N_13  and  C_14
REMARK    5  A    between atoms: C_14  and  C_15
REMARK    6  A    between atoms: C_18  and  C_19
REMARK    7  A    between atoms: C_19  and  O_20
REMARK    8  A    between atoms: O_20  and  C_21
REMARK    9  A    between atoms: C_21  and  C_22
REMARK   10  A    between atoms: C_26  and  C_27
REMARK                            x       y       z     vdW  Elec       q    Type
REMARK                         _______ _______ _______ _____ _____    ______ ____
ROOT
ATOM      1  C   UNL     1      47.454   3.859  15.417  0.00  0.00    +0.000 C 
ENDROOT
BRANCH   1   2
ATOM      2  C   UNL     1      46.855   4.394  14.132  0.00  0.00    +0.000 A 
ATOM      3  C   UNL     1      47.150   5.691  13.685  0.00  0.00    +0.000 A 
ATOM      4  C   UNL     1      46.623   6.174  12.476  0.00  0.00    +0.000 A 
ATOM      5  C   UNL     1      45.770   5.377  11.699  0.00  0.00    +0.000 A 
ATOM      6  C   UNL     1      45.474   4.085  12.146  0.00  0.00    +0.000 A 
ATOM      7  C   UNL     1      46.004   3.600  13.351  0.00  0.00    +0.000 A 
BRANCH   5   8
ATOM      8  C   UNL     1      45.153   5.898  10.425  0.00  0.00    +0.000 C 
BRANCH   8   9
ATOM      9  O   UNL     1      45.758   5.260   9.309  0.00  0.00    +0.000 OA
BRANCH   9  10
ATOM     10  C   UNL     1      44.862   4.327   8.698  0.00  0.00    +0.000 C 
BRANCH  10  11
ATOM     11  C   UNL     1      45.619   3.164   8.104  0.00  0.00    +0.000 A 
ATOM     12  C   UNL     1      45.591   1.909   8.705  0.00  0.00    +0.000 A 
ATOM     13  C   UNL     1      46.300   0.868   8.120  0.00  0.00    +0.000 A 
ATOM     14  C   UNL     1      47.003   1.101   6.945  0.00  0.00    +0.000 A 
ATOM     15  C   UNL     1      46.970   2.373   6.385  0.00  0.00    +0.000 A 
ATOM     16  C   UNL     1      47.704   2.674   5.113  0.00  0.00    +0.000 C 
ATOM     17  N   UNL     1      46.285   3.398   6.943  0.00  0.00    +0.000 NA
ENDBRANCH  10  11
ENDBRANCH   9  10
ENDBRANCH   8   9
ENDBRANCH   5   8
ENDBRANCH   1   2
BRANCH   1  20
ATOM     18  C   UNL     1      48.498   5.433  17.037  0.00  0.00    +0.000 C 
ATOM     19  O   UNL     1      49.632   5.163  16.658  0.00  0.00    +0.000 OA
ATOM     20  N   UNL     1      47.395   4.823  16.488  0.00  0.00    +0.000 N 
ATOM     21  H   UNL     1      46.475   5.081  16.814  0.00  0.00    +0.000 HD
BRANCH  18  29
ATOM     22  C   UNL     1      48.268   8.859  17.048  0.00  0.00    +0.000 A 
ATOM     23  N   UNL     1      48.083  10.167  17.309  0.00  0.00    +0.000 NA
ATOM     24  C   UNL     1      47.787  10.519  18.561  0.00  0.00    +0.000 A 
ATOM     25  N   UNL     1      47.661   9.711  19.613  0.00  0.00    +0.000 NA
ATOM     26  C   UNL     1      47.854   8.416  19.305  0.00  0.00    +0.000 A 
ATOM     27  S   UNL     1      47.752   7.238  20.525  0.00  0.00    +0.000 S 
ATOM     28  C   UNL     1      48.078   5.988  19.416  0.00  0.00    +0.000 A 
ATOM     29  C   UNL     1      48.255   6.423  18.108  0.00  0.00    +0.000 A 
ATOM     30  C   UNL     1      48.148   7.886  18.053  0.00  0.00    +0.000 A 
BRANCH  22  32
ATOM     31  C   UNL     1      49.999   8.509  15.493  0.00  0.00    +0.000 C 
ATOM     32  O   UNL     1      48.603   8.494  15.762  0.00  0.00    +0.000 OA
ENDBRANCH  22  32
ENDBRANCH  18  29
ENDBRANCH   1  20
TORSDOF 8
ENDMDL
MODEL 6
REMARK VINA RESULT:    -6.960      5.126      9.806
REMARK INTER + INTRA:         -11.634
REMARK INTER:                 -10.786
REMARK INTRA:                  -0.848
REMARK UNBOUND:                -1.418
REMARK  Name = 
REMARK  10 active torsions:
REMARK  status: ('A' for Active; 'I' for Inactive)
REMARK    1  A    between atoms: C_1  and  O_2
REMARK    2  A    between atoms: O_2  and  C_3
REMARK    3  A    between atoms: C_10  and  C_11
REMARK    4  A    between atoms: N_13  and  C_14
REMARK    5  A    between atoms: C_14  and  C_15
REMARK    6  A    between atoms: C_18  and  C_19
REMARK    7  A    between atoms: C_19  and  O_20
REMARK    8  A    between atoms: O_20  and  C_21
REMARK    9  A    between atoms: C_21  and  C_22
REMARK   10  A    between atoms: C_26  and  C_27
REMARK                            x       y       z     vdW  Elec       q    Type
REMARK                         _______ _______ _______ _____ _____    ______ ____
ROOT
ATOM      1  C   UNL     1      47.317   3.636  17.024  0.00  0.00    +0.000 C 
ENDROOT
BRANCH   1   2
ATOM      2  C   UNL     1      48.787   3.351  17.258  0.00  0.00    +0.000 A 
ATOM      3  C   UNL     1      49.625   4.317  17.836  0.00  0.00    +0.000 A 
ATOM      4  C   UNL     1      50.979   4.041  18.085  0.00  0.00    +0.000 A 
ATOM      5  C   UNL     1      51.530   2.799  17.739  0.00  0.00    +0.000 A 
ATOM      6  C   UNL     1      50.696   1.837  17.161  0.00  0.00    +0.000 A 
ATOM      7  C   UNL     1      49.342   2.110  16.916  0.00  0.00    +0.000 A 
BRANCH   5   8
ATOM      8  C   UNL     1      52.994   2.504  17.951  0.00  0.00    +0.000 C 
BRANCH   8   9
ATOM      9  O   UNL     1      53.141   1.208  18.517  0.00  0.00    +0.000 OA
BRANCH   9  10
ATOM     10  C   UNL     1      54.383   0.612  18.129  0.00  0.00    +0.000 C 
BRANCH  10  11
ATOM     11  C   UNL     1      54.322  -0.890  18.261  0.00  0.00    +0.000 A 
ATOM     12  C   UNL     1      54.990  -1.716  17.361  0.00  0.00    +0.000 A 
ATOM     13  C   UNL     1      54.909  -3.092  17.524  0.00  0.00    +0.000 A 
ATOM     14  C   UNL     1      54.179  -3.609  18.588  0.00  0.00    +0.000 A 
ATOM     15  C   UNL     1      53.556  -2.727  19.464  0.00  0.00    +0.000 A 
ATOM     16  C   UNL     1      52.766  -3.232  20.633  0.00  0.00    +0.000 C 
ATOM     17  N   UNL     1      53.625  -1.383  19.318  0.00  0.00    +0.000 NA
ENDBRANCH  10  11
ENDBRANCH   9  10
ENDBRANCH   8   9
ENDBRANCH   5   8
ENDBRANCH   1   2
BRANCH   1  20
ATOM     18  C   UNL     1      47.085   4.302  14.638  0.00  0.00    +0.000 C 
ATOM     19  O   UNL     1      47.274   3.158  14.239  0.00  0.00    +0.000 OA
ATOM     20  N   UNL     1      47.109   4.606  15.978  0.00  0.00    +0.000 N 
ATOM     21  H   UNL     1      46.934   5.556  16.272  0.00  0.00    +0.000 HD
BRANCH  18  29
ATOM     22  C   UNL     1      44.385   5.143  12.690  0.00  0.00    +0.000 A 
ATOM     23  N   UNL     1      43.462   5.711  11.892  0.00  0.00    +0.000 NA
ATOM     24  C   UNL     1      43.774   6.863  11.295  0.00  0.00    +0.000 A 
ATOM     25  N   UNL     1      44.923   7.528  11.388  0.00  0.00    +0.000 NA
ATOM     26  C   UNL     1      45.815   6.923  12.195  0.00  0.00    +0.000 A 
ATOM     27  S   UNL     1      47.349   7.618  12.421  0.00  0.00    +0.000 S 
ATOM     28  C   UNL     1      47.813   6.369  13.482  0.00  0.00    +0.000 A 
ATOM     29  C   UNL     1      46.827   5.416  13.700  0.00  0.00    +0.000 A 
ATOM     30  C   UNL     1      45.638   5.739  12.902  0.00  0.00    +0.000 A 
BRANCH  22  32
ATOM     31  C   UNL     1      43.643   2.931  12.381  0.00  0.00    +0.000 C 
ATOM     32  O   UNL     1      44.078   3.938  13.285  0.00  0.00    +0.000 OA
ENDBRANCH  22  32
ENDBRANCH  18  29
ENDBRANCH   1  20
TORSDOF 8
ENDMDL
MODEL 7
REMARK VINA RESULT:    -6.790      1.937      2.850
REMARK INTER + INTRA:         -11.384
REMARK INTER:                 -10.205
REMARK INTRA:                  -1.180
REMARK UNBOUND:                -1.418
REMARK  Name = 
REMARK  10 active torsions:
REMARK  status: ('A' for Active; 'I' for Inactive)
REMARK    1  A    between atoms: C_1  and  O_2
REMARK    2  A    between atoms: O_2  and  C_3
REMARK    3  A    between atoms: C_10  and  C_11
REMARK    4  A    between atoms: N_13  and  C_14
REMARK    5  A    between atoms: C_14  and  C_15
REMARK    6  A    between atoms: C_18  and  C_19
REMARK    7  A    between atoms: C_19  and  O_20
REMARK    8  A    between atoms: O_20  and  C_21
REMARK    9  A    between atoms: C_21  and  C_22
REMARK   10  A    between atoms: C_26  and  C_27
REMARK                            x       y       z     vdW  Elec       q    Type
REMARK                         _______ _______ _______ _____ _____    ______ ____
ROOT
ATOM      1  C   UNL     1      47.408   4.024  15.600  0.00  0.00    +0.000 C 
ENDROOT
BRANCH   1   2
ATOM      2  C   UNL     1      46.802   4.493  14.292  0.00  0.00    +0.000 A 
ATOM      3  C   UNL     1      47.036   5.793  13.816  0.00  0.00    +0.000 A 
ATOM      4  C   UNL     1      46.504   6.217  12.588  0.00  0.00    +0.000 A 
ATOM      5  C   UNL     1      45.706   5.357  11.820  0.00  0.00    +0.000 A 
ATOM      6  C   UNL     1      45.471   4.062  12.296  0.00  0.00    +0.000 A 
ATOM      7  C   UNL     1      46.006   3.637  13.520  0.00  0.00    +0.000 A 
BRANCH   5   8
ATOM      8  C   UNL     1      45.083   5.812  10.524  0.00  0.00    +0.000 C 
BRANCH   8   9
ATOM      9  O   UNL     1      45.760   5.205   9.432  0.00  0.00    +0.000 OA
BRANCH   9  10
ATOM     10  C   UNL     1      44.878   4.364   8.681  0.00  0.00    +0.000 C 
BRANCH  10  11
ATOM     11  C   UNL     1      45.623   3.188   8.097  0.00  0.00    +0.000 A 
ATOM     12  C   UNL     1      45.585   1.940   8.712  0.00  0.00    +0.000 A 
ATOM     13  C   UNL     1      46.283   0.887   8.136  0.00  0.00    +0.000 A 
ATOM     14  C   UNL     1      46.987   1.101   6.957  0.00  0.00    +0.000 A 
ATOM     15  C   UNL     1      46.963   2.367   6.383  0.00  0.00    +0.000 A 
ATOM     16  C   UNL     1      47.696   2.648   5.107  0.00  0.00    +0.000 C 
ATOM     17  N   UNL     1      46.288   3.404   6.932  0.00  0.00    +0.000 NA
ENDBRANCH  10  11
ENDBRANCH   9  10
ENDBRANCH   8   9
ENDBRANCH   5   8
ENDBRANCH   1   2
BRANCH   1  20
ATOM     18  C   UNL     1      47.646   5.401  17.658  0.00  0.00    +0.000 C 
ATOM     19  O   UNL     1      46.794   4.756  18.259  0.00  0.00    +0.000 OA
ATOM     20  N   UNL     1      47.980   5.109  16.357  0.00  0.00    +0.000 N 
ATOM     21  H   UNL     1      48.698   5.651  15.898  0.00  0.00    +0.000 HD
BRANCH  18  29
ATOM     22  C   UNL     1      50.925   6.421  17.633  0.00  0.00    +0.000 A 
ATOM     23  N   UNL     1      52.110   7.049  17.741  0.00  0.00    +0.000 NA
ATOM     24  C   UNL     1      52.157   8.180  18.449  0.00  0.00    +0.000 A 
ATOM     25  N   UNL     1      51.148   8.768  19.088  0.00  0.00    +0.000 NA
ATOM     26  C   UNL     1      49.984   8.105  18.952  0.00  0.00    +0.000 A 
ATOM     27  S   UNL     1      48.586   8.698  19.715  0.00  0.00    +0.000 S 
ATOM     28  C   UNL     1      47.646   7.419  19.097  0.00  0.00    +0.000 A 
ATOM     29  C   UNL     1      48.354   6.532  18.296  0.00  0.00    +0.000 A 
ATOM     30  C   UNL     1      49.765   6.933  18.236  0.00  0.00    +0.000 A 
BRANCH  22  32
ATOM     31  C   UNL     1      51.475   4.133  17.594  0.00  0.00    +0.000 C 
ATOM     32  O   UNL     1      50.878   5.238  16.928  0.00  0.00    +0.000 OA
ENDBRANCH  22  32
ENDBRANCH  18  29
ENDBRANCH   1  20
TORSDOF 8
ENDMDL
MODEL 8
REMARK VINA RESULT:    -6.464      3.677      9.145
REMARK INTER + INTRA:         -10.906
REMARK INTER:                  -9.637
REMARK INTRA:                  -1.269
REMARK UNBOUND:                -1.418
REMARK  Name = 
REMARK  10 active torsions:
REMARK  status: ('A' for Active; 'I' for Inactive)
REMARK    1  A    between atoms: C_1  and  O_2
REMARK    2  A    between atoms: O_2  and  C_3
REMARK    3  A    between atoms: C_10  and  C_11
REMARK    4  A    between atoms: N_13  and  C_14
REMARK    5  A    between atoms: C_14  and  C_15
REMARK    6  A    between atoms: C_18  and  C_19
REMARK    7  A    between atoms: C_19  and  O_20
REMARK    8  A    between atoms: O_20  and  C_21
REMARK    9  A    between atoms: C_21  and  C_22
REMARK   10  A    between atoms: C_26  and  C_27
REMARK                            x       y       z     vdW  Elec       q    Type
REMARK                         _______ _______ _______ _____ _____    ______ ____
ROOT
ATOM      1  C   UNL     1      47.163   3.377  16.921  0.00  0.00    +0.000 C 
ENDROOT
BRANCH   1   2
ATOM      2  C   UNL     1      48.636   3.219  17.245  0.00  0.00    +0.000 A 
ATOM      3  C   UNL     1      49.360   2.109  16.783  0.00  0.00    +0.000 A 
ATOM      4  C   UNL     1      50.732   1.981  17.053  0.00  0.00    +0.000 A 
ATOM      5  C   UNL     1      51.405   2.948  17.812  0.00  0.00    +0.000 A 
ATOM      6  C   UNL     1      50.682   4.053  18.275  0.00  0.00    +0.000 A 
ATOM      7  C   UNL     1      49.313   4.185  18.001  0.00  0.00    +0.000 A 
BRANCH   5   8
ATOM      8  C   UNL     1      52.866   2.800  18.156  0.00  0.00    +0.000 C 
BRANCH   8   9
ATOM      9  O   UNL     1      53.394   4.062  18.539  0.00  0.00    +0.000 OA
BRANCH   9  10
ATOM     10  C   UNL     1      54.143   4.654  17.473  0.00  0.00    +0.000 C 
BRANCH  10  11
ATOM     11  C   UNL     1      53.667   6.059  17.195  0.00  0.00    +0.000 A 
ATOM     12  C   UNL     1      54.338   7.160  17.721  0.00  0.00    +0.000 A 
ATOM     13  C   UNL     1      53.865   8.433  17.435  0.00  0.00    +0.000 A 
ATOM     14  C   UNL     1      52.747   8.577  16.622  0.00  0.00    +0.000 A 
ATOM     15  C   UNL     1      52.138   7.436  16.111  0.00  0.00    +0.000 A 
ATOM     16  C   UNL     1      50.937   7.536  15.221  0.00  0.00    +0.000 C 
ATOM     17  N   UNL     1      52.587   6.187  16.381  0.00  0.00    +0.000 NA
ENDBRANCH  10  11
ENDBRANCH   9  10
ENDBRANCH   8   9
ENDBRANCH   5   8
ENDBRANCH   1   2
BRANCH   1  20
ATOM     18  C   UNL     1      46.975   4.191  14.578  0.00  0.00    +0.000 C 
ATOM     19  O   UNL     1      47.257   3.094  14.112  0.00  0.00    +0.000 OA
ATOM     20  N   UNL     1      46.928   4.403  15.935  0.00  0.00    +0.000 N 
ATOM     21  H   UNL     1      46.677   5.316  16.285  0.00  0.00    +0.000 HD
BRANCH  18  29
ATOM     22  C   UNL     1      44.261   5.026  12.646  0.00  0.00    +0.000 A 
ATOM     23  N   UNL     1      43.322   5.599  11.871  0.00  0.00    +0.000 NA
ATOM     24  C   UNL     1      43.586   6.799  11.351  0.00  0.00    +0.000 A 
ATOM     25  N   UNL     1      44.702   7.510  11.502  0.00  0.00    +0.000 NA
ATOM     26  C   UNL     1      45.611   6.898  12.283  0.00  0.00    +0.000 A 
ATOM     27  S   UNL     1      47.108   7.648  12.574  0.00  0.00    +0.000 S 
ATOM     28  C   UNL     1      47.619   6.358  13.562  0.00  0.00    +0.000 A 
ATOM     29  C   UNL     1      46.676   5.349  13.707  0.00  0.00    +0.000 A 
ATOM     30  C   UNL     1      45.483   5.666  12.913  0.00  0.00    +0.000 A 
BRANCH  22  32
ATOM     31  C   UNL     1      43.613   2.810  12.193  0.00  0.00    +0.000 C 
ATOM     32  O   UNL     1      44.004   3.774  13.161  0.00  0.00    +0.000 OA
ENDBRANCH  22  32
ENDBRANCH  18  29
ENDBRANCH   1  20
TORSDOF 8
ENDMDL
MODEL 9
REMARK VINA RESULT:    -6.314      5.172      9.404
REMARK INTER + INTRA:         -10.684
REMARK INTER:                  -9.458
REMARK INTRA:                  -1.227
REMARK UNBOUND:                -1.418
REMARK  Name = 
REMARK  10 active torsions:
REMARK  status: ('A' for Active; 'I' for Inactive)
REMARK    1  A    between atoms: C_1  and  O_2
REMARK    2  A    between atoms: O_2  and  C_3
REMARK    3  A    between atoms: C_10  and  C_11
REMARK    4  A    between atoms: N_13  and  C_14
REMARK    5  A    between atoms: C_14  and  C_15
REMARK    6  A    between atoms: C_18  and  C_19
REMARK    7  A    between atoms: C_19  and  O_20
REMARK    8  A    between atoms: O_20  and  C_21
REMARK    9  A    between atoms: C_21  and  C_22
REMARK   10  A    between atoms: C_26  and  C_27
REMARK                            x       y       z     vdW  Elec       q    Type
REMARK                         _______ _______ _______ _____ _____    ______ ____
ROOT
ATOM      1  C   UNL     1      47.350   3.699  17.001  0.00  0.00    +0.000 C 
ENDROOT
BRANCH   1   2
ATOM      2  C   UNL     1      48.809   3.365  17.245  0.00  0.00    +0.000 A 
ATOM      3  C   UNL     1      49.659   4.279  17.887  0.00  0.00    +0.000 A 
ATOM      4  C   UNL     1      51.001   3.956  18.145  0.00  0.00    +0.000 A 
ATOM      5  C   UNL     1      51.528   2.720  17.744  0.00  0.00    +0.000 A 
ATOM      6  C   UNL     1      50.681   1.811  17.101  0.00  0.00    +0.000 A 
ATOM      7  C   UNL     1      49.340   2.130  16.848  0.00  0.00    +0.000 A 
BRANCH   5   8
ATOM      8  C   UNL     1      52.981   2.377  17.965  0.00  0.00    +0.000 C 
BRANCH   8   9
ATOM      9  O   UNL     1      53.083   1.060  18.488  0.00  0.00    +0.000 OA
BRANCH   9  10
ATOM     10  C   UNL     1      54.449   0.636  18.555  0.00  0.00    +0.000 C 
BRANCH  10  11
ATOM     11  C   UNL     1      54.640  -0.677  17.835  0.00  0.00    +0.000 A 
ATOM     12  C   UNL     1      54.887  -0.714  16.465  0.00  0.00    +0.000 A 
ATOM     13  C   UNL     1      55.060  -1.945  15.847  0.00  0.00    +0.000 A 
ATOM     14  C   UNL     1      54.998  -3.104  16.611  0.00  0.00    +0.000 A 
ATOM     15  C   UNL     1      54.771  -2.994  17.979  0.00  0.00    +0.000 A 
ATOM     16  C   UNL     1      54.705  -4.213  18.849  0.00  0.00    +0.000 C 
ATOM     17  N   UNL     1      54.599  -1.802  18.596  0.00  0.00    +0.000 NA
ENDBRANCH  10  11
ENDBRANCH   9  10
ENDBRANCH   8   9
ENDBRANCH   5   8
ENDBRANCH   1   2
BRANCH   1  20
ATOM     18  C   UNL     1      47.116   4.322  14.604  0.00  0.00    +0.000 C 
ATOM     19  O   UNL     1      47.234   3.160  14.230  0.00  0.00    +0.000 OA
ATOM     20  N   UNL     1      47.181   4.656  15.935  0.00  0.00    +0.000 N 
ATOM     21  H   UNL     1      47.065   5.621  16.209  0.00  0.00    +0.000 HD
BRANCH  18  29
ATOM     22  C   UNL     1      48.915   7.153  13.866  0.00  0.00    +0.000 A 
ATOM     23  N   UNL     1      49.449   8.280  13.361  0.00  0.00    +0.000 NA
ATOM     24  C   UNL     1      48.808   8.880  12.356  0.00  0.00    +0.000 A 
ATOM     25  N   UNL     1      47.667   8.494  11.788  0.00  0.00    +0.000 NA
ATOM     26  C   UNL     1      47.171   7.365  12.325  0.00  0.00    +0.000 A 
ATOM     27  S   UNL     1      45.708   6.729  11.740  0.00  0.00    +0.000 S 
ATOM     28  C   UNL     1      45.781   5.423  12.830  0.00  0.00    +0.000 A 
ATOM     29  C   UNL     1      46.906   5.427  13.644  0.00  0.00    +0.000 A 
ATOM     30  C   UNL     1      47.724   6.612  13.355  0.00  0.00    +0.000 A 
BRANCH  22  32
ATOM     31  C   UNL     1      49.727   7.377  16.064  0.00  0.00    +0.000 C 
ATOM     32  O   UNL     1      49.557   6.545  14.923  0.00  0.00    +0.000 OA
ENDBRANCH  22  32
ENDBRANCH  18  29
ENDBRANCH   1  20
TORSDOF 8
ENDMDL
