MODEL 1
REMARK VINA RESULT:    -7.749      0.000      0.000
REMARK INTER + INTRA:         -12.978
REMARK INTER:                 -11.599
REMARK INTRA:                  -1.378
REMARK UNBOUND:                -1.378
REMARK  Name = 
REMARK  10 active torsions:
REMARK  status: ('A' for Active; 'I' for Inactive)
REMARK    1  A    between atoms: C_1  and  C_2
REMARK    2  A    between atoms: C_2  and  N_3
REMARK    3  A    between atoms: C_2  and  C_19
REMARK    4  A    between atoms: N_3  and  C_4
REMARK    5  A    between atoms: C_4  and  C_5
REMARK    6  A    between atoms: C_8  and  C_9
REMARK    7  A    between atoms: C_9  and  O_10
REMARK    8  A    between atoms: C_9  and  C_11
REMARK    9  A    between atoms: C_11  and  N_12
REMARK   10  A    between atoms: C_19  and  C_21
REMARK                            x       y       z     vdW  Elec       q    Type
REMARK                         _______ _______ _______ _____ _____    ______ ____
ROOT
ATOM      1  N   UNL     1      46.888   6.556  11.827  0.00  0.00    +0.000 NA
ATOM      2  H   UNL     1      47.319   6.436  10.911  0.00  0.00    +0.000 HD
ENDROOT
BRANCH   1   4
ATOM      3  C   UNL     1      45.644   8.445  12.892  0.00  0.00    +0.000 C 
ATOM      4  C   UNL     1      45.759   7.507  11.687  0.00  0.00    +0.000 C 
BRANCH   4   5
ATOM      5  C   UNL     1      44.410   6.816  11.358  0.00  0.00    +0.000 C 
ATOM      6  O   UNL     1      43.429   7.489  11.039  0.00  0.00    +0.000 OA
BRANCH   5   7
ATOM      7  C   UNL     1      44.293   5.352  11.444  0.00  0.00    +0.000 A 
ATOM      8  C   UNL     1      43.793   4.666  12.541  0.00  0.00    +0.000 A 
ATOM      9  S   UNL     1      43.546   3.002  12.242  0.00  0.00    +0.000 S 
ATOM     10  C   UNL     1      44.147   3.142  10.657  0.00  0.00    +0.000 A 
ATOM     11  N   UNL     1      44.157   2.079   9.806  0.00  0.00    +0.000 NA
ATOM     12  C   UNL     1      44.616   2.354   8.628  0.00  0.00    +0.000 A 
ATOM     13  N   UNL     1      45.108   3.574   8.240  0.00  0.00    +0.000 N 
ATOM     14  C   UNL     1      45.293   4.616   9.132  0.00  0.00    +0.000 A 
ATOM     15  O   UNL     1      46.061   5.538   8.889  0.00  0.00    +0.000 OA
ATOM     16  C   UNL     1      44.609   4.414  10.394  0.00  0.00    +0.000 A 
ATOM     17  H   UNL     1      45.565   3.677   7.347  0.00  0.00    +0.000 HD
ENDBRANCH   5   7
ENDBRANCH   4   5
ENDBRANCH   1   4
BRANCH   1  18
ATOM     18  C   UNL     1      47.922   6.942  12.788  0.00  0.00    +0.000 C 
BRANCH  18  19
ATOM     19  C   UNL     1      47.855   6.078  14.027  0.00  0.00    +0.000 A 
ATOM     20  C   UNL     1      47.160   4.866  14.051  0.00  0.00    +0.000 A 
ATOM     21  C   UNL     1      47.107   4.107  15.223  0.00  0.00    +0.000 A 
ATOM     22  C   UNL     1      47.762   4.571  16.363  0.00  0.00    +0.000 A 
ATOM     23  N   UNL     1      48.479   5.725  16.347  0.00  0.00    +0.000 NA
ATOM     24  C   UNL     1      48.498   6.449  15.201  0.00  0.00    +0.000 A 
BRANCH  22  25
ATOM     25  C   UNL     1      47.639   3.855  17.704  0.00  0.00    +0.000 C 
BRANCH  25  26
ATOM     26  O   UNL     1      46.519   2.955  17.666  0.00  0.00    +0.000 OA
ATOM     27  H   UNL     1      46.815   2.099  18.012  0.00  0.00    +0.000 HD
ENDBRANCH  25  26
BRANCH  25  28
ATOM     28  C   UNL     1      48.944   3.114  18.133  0.00  0.00    +0.000 C 
BRANCH  28  29
ATOM     29  N   UNL     1      50.025   3.076  17.119  0.00  0.00    +0.000 NA
ATOM     30  C   UNL     1      50.437   1.718  16.735  0.00  0.00    +0.000 C 
ATOM     31  C   UNL     1      51.544   1.342  17.700  0.00  0.00    +0.000 C 
ATOM     32  C   UNL     1      52.268   2.651  17.933  0.00  0.00    +0.000 C 
ATOM     33  C   UNL     1      51.250   3.738  17.601  0.00  0.00    +0.000 C 
ENDBRANCH  28  29
ENDBRANCH  25  28
ENDBRANCH  22  25
ENDBRANCH  18  19
ENDBRANCH   1  18
TORSDOF 9
ENDMDL
MODEL 2
REMARK VINA RESULT:    -7.559      2.654      8.734
REMARK INTER + INTRA:         -12.694
REMARK INTER:                 -11.617
REMARK INTRA:                  -1.077
REMARK UNBOUND:                -1.378
REMARK  Name = 
REMARK  10 active torsions:
REMARK  status: ('A' for Active; 'I' for Inactive)
REMARK    1  A    between atoms: C_1  and  C_2
REMARK    2  A    between atoms: C_2  and  N_3
REMARK    3  A    between atoms: C_2  and  C_19
REMARK    4  A    between atoms: N_3  and  C_4
REMARK    5  A    between atoms: C_4  and  C_5
REMARK    6  A    between atoms: C_8  and  C_9
REMARK    7  A    between atoms: C_9  and  O_10
REMARK    8  A    between atoms: C_9  and  C_11
REMARK    9  A    between atoms: C_11  and  N_12
REMARK   10  A    between atoms: C_19  and  C_21
REMARK                            x       y       z     vdW  Elec       q    Type
REMARK                         _______ _______ _______ _____ _____    ______ ____
ROOT
ATOM      1  N   UNL     1      48.479   5.160  15.869  0.00  0.00    +0.000 NA
ATOM      2  H   UNL     1      47.774   4.451  15.667  0.00  0.00    +0.000 HD
ENDROOT
BRANCH   1   4
ATOM      3  C   UNL     1      48.725   7.060  17.476  0.00  0.00    +0.000 C 
ATOM      4  C   UNL     1      48.303   5.601  17.273  0.00  0.00    +0.000 C 
BRANCH   4   5
ATOM      5  C   UNL     1      48.972   4.654  18.303  0.00  0.00    +0.000 C 
ATOM      6  O   UNL     1      48.302   4.137  19.198  0.00  0.00    +0.000 OA
BRANCH   5   7
ATOM      7  C   UNL     1      50.417   4.386  18.227  0.00  0.00    +0.000 A 
ATOM      8  C   UNL     1      51.403   5.260  18.664  0.00  0.00    +0.000 A 
ATOM      9  S   UNL     1      52.964   4.563  18.677  0.00  0.00    +0.000 S 
ATOM     10  C   UNL     1      52.373   3.094  18.054  0.00  0.00    +0.000 A 
ATOM     11  N   UNL     1      53.190   2.019  17.877  0.00  0.00    +0.000 NA
ATOM     12  C   UNL     1      52.585   0.969  17.425  0.00  0.00    +0.000 A 
ATOM     13  N   UNL     1      51.256   0.909  17.089  0.00  0.00    +0.000 N 
ATOM     14  C   UNL     1      50.445   2.031  17.070  0.00  0.00    +0.000 A 
ATOM     15  O   UNL     1      49.405   2.058  16.425  0.00  0.00    +0.000 OA
ATOM     16  C   UNL     1      51.028   3.167  17.758  0.00  0.00    +0.000 A 
ATOM     17  H   UNL     1      50.886   0.095  16.623  0.00  0.00    +0.000 HD
ENDBRANCH   5   7
ENDBRANCH   4   5
ENDBRANCH   1   4
BRANCH   1  18
ATOM     18  C   UNL     1      48.386   6.217  14.860  0.00  0.00    +0.000 C 
BRANCH  18  19
ATOM     19  C   UNL     1      47.419   5.830  13.763  0.00  0.00    +0.000 A 
ATOM     20  C   UNL     1      46.650   4.665  13.828  0.00  0.00    +0.000 A 
ATOM     21  C   UNL     1      45.782   4.336  12.784  0.00  0.00    +0.000 A 
ATOM     22  C   UNL     1      45.689   5.186  11.683  0.00  0.00    +0.000 A 
ATOM     23  N   UNL     1      46.397   6.344  11.622  0.00  0.00    +0.000 NA
ATOM     24  C   UNL     1      47.243   6.630  12.641  0.00  0.00    +0.000 A 
BRANCH  22  25
ATOM     25  C   UNL     1      44.857   4.821  10.458  0.00  0.00    +0.000 C 
BRANCH  25  26
ATOM     26  O   UNL     1      43.650   5.601  10.447  0.00  0.00    +0.000 OA
ATOM     27  H   UNL     1      42.913   5.008  10.655  0.00  0.00    +0.000 HD
ENDBRANCH  25  26
BRANCH  25  28
ATOM     28  C   UNL     1      45.636   4.969   9.114  0.00  0.00    +0.000 C 
BRANCH  28  29
ATOM     29  N   UNL     1      45.216   4.058   8.022  0.00  0.00    +0.000 NA
ATOM     30  C   UNL     1      44.587   2.814   8.491  0.00  0.00    +0.000 C 
ATOM     31  C   UNL     1      45.724   1.826   8.663  0.00  0.00    +0.000 C 
ATOM     32  C   UNL     1      46.677   2.184   7.542  0.00  0.00    +0.000 C 
ATOM     33  C   UNL     1      46.358   3.635   7.192  0.00  0.00    +0.000 C 
ENDBRANCH  28  29
ENDBRANCH  25  28
ENDBRANCH  22  25
ENDBRANCH  18  19
ENDBRANCH   1  18
TORSDOF 9
ENDMDL
MODEL 3
REMARK VINA RESULT:    -6.992      2.314      7.911
REMARK INTER + INTRA:         -11.844
REMARK INTER:                 -10.483
REMARK INTRA:                  -1.361
REMARK UNBOUND:                -1.378
REMARK  Name = 
REMARK  10 active torsions:
REMARK  status: ('A' for Active; 'I' for Inactive)
REMARK    1  A    between atoms: C_1  and  C_2
REMARK    2  A    between atoms: C_2  and  N_3
REMARK    3  A    between atoms: C_2  and  C_19
REMARK    4  A    between atoms: N_3  and  C_4
REMARK    5  A    between atoms: C_4  and  C_5
REMARK    6  A    between atoms: C_8  and  C_9
REMARK    7  A    between atoms: C_9  and  O_10
REMARK    8  A    between atoms: C_9  and  C_11
REMARK    9  A    between atoms: C_11  and  N_12
REMARK   10  A    between atoms: C_19  and  C_21
REMARK                            x       y       z     vdW  Elec       q    Type
REMARK                         _______ _______ _______ _____ _____    ______ ____
ROOT
ATOM      1  N   UNL     1      49.348   6.450  15.013  0.00  0.00    +0.000 NA
ATOM      2  H   UNL     1      48.805   5.630  15.281  0.00  0.00    +0.000 HD
ENDROOT
BRANCH   1   4
ATOM      3  C   UNL     1      50.903   7.897  16.333  0.00  0.00    +0.000 C 
ATOM      4  C   UNL     1      49.489   7.321  16.204  0.00  0.00    +0.000 C 
BRANCH   4   5
ATOM      5  C   UNL     1      49.014   6.648  17.518  0.00  0.00    +0.000 C 
ATOM      6  O   UNL     1      48.873   7.316  18.543  0.00  0.00    +0.000 OA
BRANCH   5   7
ATOM      7  C   UNL     1      48.750   5.200  17.549  0.00  0.00    +0.000 A 
ATOM      8  C   UNL     1      47.489   4.629  17.453  0.00  0.00    +0.000 A 
ATOM      9  S   UNL     1      47.531   2.931  17.263  0.00  0.00    +0.000 S 
ATOM     10  C   UNL     1      49.230   2.907  17.352  0.00  0.00    +0.000 A 
ATOM     11  N   UNL     1      49.932   1.752  17.195  0.00  0.00    +0.000 NA
ATOM     12  C   UNL     1      51.215   1.905  17.260  0.00  0.00    +0.000 A 
ATOM     13  N   UNL     1      51.855   3.091  17.515  0.00  0.00    +0.000 N 
ATOM     14  C   UNL     1      51.170   4.240  17.873  0.00  0.00    +0.000 A 
ATOM     15  O   UNL     1      51.727   5.160  18.458  0.00  0.00    +0.000 OA
ATOM     16  C   UNL     1      49.746   4.159  17.613  0.00  0.00    +0.000 A 
ATOM     17  H   UNL     1      52.850   3.107  17.677  0.00  0.00    +0.000 HD
ENDBRANCH   5   7
ENDBRANCH   4   5
ENDBRANCH   1   4
BRANCH   1  18
ATOM     18  C   UNL     1      48.716   7.073  13.848  0.00  0.00    +0.000 C 
BRANCH  18  19
ATOM     19  C   UNL     1      47.362   6.456  13.577  0.00  0.00    +0.000 A 
ATOM     20  C   UNL     1      47.062   5.138  13.931  0.00  0.00    +0.000 A 
ATOM     21  C   UNL     1      45.804   4.601  13.644  0.00  0.00    +0.000 A 
ATOM     22  C   UNL     1      44.853   5.398  13.009  0.00  0.00    +0.000 A 
ATOM     23  N   UNL     1      45.111   6.694  12.696  0.00  0.00    +0.000 NA
ATOM     24  C   UNL     1      46.346   7.183  12.970  0.00  0.00    +0.000 A 
BRANCH  22  25
ATOM     25  C   UNL     1      43.509   4.835  12.558  0.00  0.00    +0.000 C 
BRANCH  25  26
ATOM     26  O   UNL     1      42.474   5.798  12.813  0.00  0.00    +0.000 OA
ATOM     27  H   UNL     1      42.779   6.656  12.481  0.00  0.00    +0.000 HD
ENDBRANCH  25  26
BRANCH  25  28
ATOM     28  C   UNL     1      43.499   4.378  11.066  0.00  0.00    +0.000 C 
BRANCH  28  29
ATOM     29  N   UNL     1      44.803   3.927  10.522  0.00  0.00    +0.000 NA
ATOM     30  C   UNL     1      45.177   4.574   9.255  0.00  0.00    +0.000 C 
ATOM     31  C   UNL     1      44.598   3.695   8.165  0.00  0.00    +0.000 C 
ATOM     32  C   UNL     1      44.732   2.297   8.730  0.00  0.00    +0.000 C 
ATOM     33  C   UNL     1      44.809   2.480  10.243  0.00  0.00    +0.000 C 
ENDBRANCH  28  29
ENDBRANCH  25  28
ENDBRANCH  22  25
ENDBRANCH  18  19
ENDBRANCH   1  18
TORSDOF 9
ENDMDL
MODEL 4
REMARK VINA RESULT:    -6.564      2.219      3.144
REMARK INTER + INTRA:         -11.204
REMARK INTER:                  -9.947
REMARK INTRA:                  -1.258
REMARK UNBOUND:                -1.378
REMARK  Name = 
REMARK  10 active torsions:
REMARK  status: ('A' for Active; 'I' for Inactive)
REMARK    1  A    between atoms: C_1  and  C_2
REMARK    2  A    between atoms: C_2  and  N_3
REMARK    3  A    between atoms: C_2  and  C_19
REMARK    4  A    between atoms: N_3  and  C_4
REMARK    5  A    between atoms: C_4  and  C_5
REMARK    6  A    between atoms: C_8  and  C_9
REMARK    7  A    between atoms: C_9  and  O_10
REMARK    8  A    between atoms: C_9  and  C_11
REMARK    9  A    between atoms: C_11  and  N_12
REMARK   10  A    between atoms: C_19  and  C_21
REMARK                            x       y       z     vdW  Elec       q    Type
REMARK                         _______ _______ _______ _____ _____    ______ ____
ROOT
ATOM      1  N   UNL     1      46.873   5.961  14.018  0.00  0.00    +0.000 NA
ATOM      2  H   UNL     1      45.865   6.118  14.020  0.00  0.00    +0.000 HD
ENDROOT
BRANCH   1   4
ATOM      3  C   UNL     1      48.540   7.285  12.706  0.00  0.00    +0.000 C 
ATOM      4  C   UNL     1      47.388   6.276  12.664  0.00  0.00    +0.000 C 
BRANCH   4   5
ATOM      5  C   UNL     1      46.279   6.701  11.668  0.00  0.00    +0.000 C 
ATOM      6  O   UNL     1      45.946   7.884  11.575  0.00  0.00    +0.000 OA
BRANCH   5   7
ATOM      7  C   UNL     1      45.603   5.688  10.841  0.00  0.00    +0.000 A 
ATOM      8  C   UNL     1      45.822   5.508   9.483  0.00  0.00    +0.000 A 
ATOM      9  S   UNL     1      45.086   4.096   8.862  0.00  0.00    +0.000 S 
ATOM     10  C   UNL     1      44.416   3.712  10.378  0.00  0.00    +0.000 A 
ATOM     11  N   UNL     1      43.704   2.568  10.571  0.00  0.00    +0.000 NA
ATOM     12  C   UNL     1      43.288   2.406  11.784  0.00  0.00    +0.000 A 
ATOM     13  N   UNL     1      43.474   3.302  12.807  0.00  0.00    +0.000 N 
ATOM     14  C   UNL     1      44.019   4.558  12.601  0.00  0.00    +0.000 A 
ATOM     15  O   UNL     1      43.839   5.471  13.396  0.00  0.00    +0.000 OA
ATOM     16  C   UNL     1      44.675   4.691  11.315  0.00  0.00    +0.000 A 
ATOM     17  H   UNL     1      43.011   3.166  13.692  0.00  0.00    +0.000 HD
ENDBRANCH   5   7
ENDBRANCH   4   5
ENDBRANCH   1   4
BRANCH   1  18
ATOM     18  C   UNL     1      47.139   4.602  14.493  0.00  0.00    +0.000 C 
BRANCH  18  19
ATOM     19  C   UNL     1      47.605   4.617  15.932  0.00  0.00    +0.000 A 
ATOM     20  C   UNL     1      47.468   3.505  16.768  0.00  0.00    +0.000 A 
ATOM     21  C   UNL     1      47.894   3.568  18.097  0.00  0.00    +0.000 A 
ATOM     22  C   UNL     1      48.463   4.748  18.574  0.00  0.00    +0.000 A 
ATOM     23  N   UNL     1      48.643   5.824  17.765  0.00  0.00    +0.000 NA
ATOM     24  C   UNL     1      48.204   5.741  16.485  0.00  0.00    +0.000 A 
BRANCH  22  25
ATOM     25  C   UNL     1      48.832   4.921  20.044  0.00  0.00    +0.000 C 
BRANCH  25  26
ATOM     26  O   UNL     1      48.626   3.681  20.740  0.00  0.00    +0.000 OA
ATOM     27  H   UNL     1      49.133   3.717  21.565  0.00  0.00    +0.000 HD
ENDBRANCH  25  26
BRANCH  25  28
ATOM     28  C   UNL     1      50.282   5.455  20.259  0.00  0.00    +0.000 C 
BRANCH  28  29
ATOM     29  N   UNL     1      51.365   4.450  20.124  0.00  0.00    +0.000 NA
ATOM     30  C   UNL     1      52.544   4.727  20.957  0.00  0.00    +0.000 C 
ATOM     31  C   UNL     1      53.452   5.588  20.101  0.00  0.00    +0.000 C 
ATOM     32  C   UNL     1      53.236   5.047  18.703  0.00  0.00    +0.000 C 
ATOM     33  C   UNL     1      51.869   4.371  18.741  0.00  0.00    +0.000 C 
ENDBRANCH  28  29
ENDBRANCH  25  28
ENDBRANCH  22  25
ENDBRANCH  18  19
ENDBRANCH   1  18
TORSDOF 9
ENDMDL
MODEL 5
REMARK VINA RESULT:    -6.533      3.293      7.956
REMARK INTER + INTRA:         -11.158
REMARK INTER:                  -9.948
REMARK INTRA:                  -1.211
REMARK UNBOUND:                -1.378
REMARK  Name = 
REMARK  10 active torsions:
REMARK  status: ('A' for Active; 'I' for Inactive)
REMARK    1  A    between atoms: C_1  and  C_2
REMARK    2  A    between atoms: C_2  and  N_3
REMARK    3  A    between atoms: C_2  and  C_19
REMARK    4  A    between atoms: N_3  and  C_4
REMARK    5  A    between atoms: C_4  and  C_5
REMARK    6  A    between atoms: C_8  and  C_9
REMARK    7  A    between atoms: C_9  and  O_10
REMARK    8  A    between atoms: C_9  and  C_11
REMARK    9  A    between atoms: C_11  and  N_12
REMARK   10  A    between atoms: C_19  and  C_21
REMARK                            x       y       z     vdW  Elec       q    Type
REMARK                         _______ _______ _______ _____ _____    ______ ____
ROOT
ATOM      1  N   UNL     1      47.276   8.960  14.320  0.00  0.00    +0.000 NA
ATOM      2  H   UNL     1      46.760   9.682  14.822  0.00  0.00    +0.000 HD
ENDROOT
BRANCH   1   4
ATOM      3  C   UNL     1      49.336   9.563  13.037  0.00  0.00    +0.000 C 
ATOM      4  C   UNL     1      48.722   9.274  14.410  0.00  0.00    +0.000 C 
BRANCH   4   5
ATOM      5  C   UNL     1      49.533   8.213  15.198  0.00  0.00    +0.000 C 
ATOM      6  O   UNL     1      50.303   7.455  14.607  0.00  0.00    +0.000 OA
BRANCH   5   7
ATOM      7  C   UNL     1      49.369   8.096  16.656  0.00  0.00    +0.000 A 
ATOM      8  C   UNL     1      49.839   9.021  17.577  0.00  0.00    +0.000 A 
ATOM      9  S   UNL     1      49.275   8.738  19.166  0.00  0.00    +0.000 S 
ATOM     10  C   UNL     1      48.428   7.345  18.676  0.00  0.00    +0.000 A 
ATOM     11  N   UNL     1      47.659   6.639  19.549  0.00  0.00    +0.000 NA
ATOM     12  C   UNL     1      47.057   5.625  19.016  0.00  0.00    +0.000 A 
ATOM     13  N   UNL     1      47.191   5.226  17.711  0.00  0.00    +0.000 N 
ATOM     14  C   UNL     1      48.112   5.801  16.852  0.00  0.00    +0.000 A 
ATOM     15  O   UNL     1      48.498   5.219  15.846  0.00  0.00    +0.000 OA
ATOM     16  C   UNL     1      48.648   7.054  17.345  0.00  0.00    +0.000 A 
ATOM     17  H   UNL     1      46.791   4.353  17.402  0.00  0.00    +0.000 HD
ENDBRANCH   5   7
ENDBRANCH   4   5
ENDBRANCH   1   4
BRANCH   1  18
ATOM     18  C   UNL     1      46.737   8.856  12.962  0.00  0.00    +0.000 C 
BRANCH  18  19
ATOM     19  C   UNL     1      46.047   7.526  12.757  0.00  0.00    +0.000 A 
ATOM     20  C   UNL     1      46.597   6.326  13.217  0.00  0.00    +0.000 A 
ATOM     21  C   UNL     1      45.935   5.116  12.989  0.00  0.00    +0.000 A 
ATOM     22  C   UNL     1      44.720   5.123  12.306  0.00  0.00    +0.000 A 
ATOM     23  N   UNL     1      44.150   6.283  11.890  0.00  0.00    +0.000 NA
ATOM     24  C   UNL     1      44.822   7.440  12.109  0.00  0.00    +0.000 A 
BRANCH  22  25
ATOM     25  C   UNL     1      44.013   3.829  11.918  0.00  0.00    +0.000 C 
BRANCH  25  26
ATOM     26  O   UNL     1      42.718   4.134  11.375  0.00  0.00    +0.000 OA
ATOM     27  H   UNL     1      42.076   3.534  11.784  0.00  0.00    +0.000 HD
ENDBRANCH  25  26
BRANCH  25  28
ATOM     28  C   UNL     1      44.841   2.941  10.938  0.00  0.00    +0.000 C 
BRANCH  28  29
ATOM     29  N   UNL     1      44.362   2.912   9.534  0.00  0.00    +0.000 NA
ATOM     30  C   UNL     1      44.800   1.730   8.779  0.00  0.00    +0.000 C 
ATOM     31  C   UNL     1      46.125   2.117   8.153  0.00  0.00    +0.000 C 
ATOM     32  C   UNL     1      45.947   3.585   7.828  0.00  0.00    +0.000 C 
ATOM     33  C   UNL     1      44.847   4.073   8.767  0.00  0.00    +0.000 C 
ENDBRANCH  28  29
ENDBRANCH  25  28
ENDBRANCH  22  25
ENDBRANCH  18  19
ENDBRANCH   1  18
TORSDOF 9
ENDMDL
MODEL 6
REMARK VINA RESULT:    -6.277      3.568      9.347
REMARK INTER + INTRA:         -10.775
REMARK INTER:                  -9.285
REMARK INTRA:                  -1.490
REMARK UNBOUND:                -1.378
REMARK  Name = 
REMARK  10 active torsions:
REMARK  status: ('A' for Active; 'I' for Inactive)
REMARK    1  A    between atoms: C_1  and  C_2
REMARK    2  A    between atoms: C_2  and  N_3
REMARK    3  A    between atoms: C_2  and  C_19
REMARK    4  A    between atoms: N_3  and  C_4
REMARK    5  A    between atoms: C_4  and  C_5
REMARK    6  A    between atoms: C_8  and  C_9
REMARK    7  A    between atoms: C_9  and  O_10
REMARK    8  A    between atoms: C_9  and  C_11
REMARK    9  A    between atoms: C_11  and  N_12
REMARK   10  A    between atoms: C_19  and  C_21
REMARK                            x       y       z     vdW  Elec       q    Type
REMARK                         _______ _______ _______ _____ _____    ______ ____
ROOT
ATOM      1  N   UNL     1      49.839   3.736  18.821  0.00  0.00    +0.000 NA
ATOM      2  H   UNL     1      49.760   3.024  19.548  0.00  0.00    +0.000 HD
ENDROOT
BRANCH   1   4
ATOM      3  C   UNL     1      50.826   5.918  19.540  0.00  0.00    +0.000 C 
ATOM      4  C   UNL     1      51.093   4.493  19.047  0.00  0.00    +0.000 C 
BRANCH   4   5
ATOM      5  C   UNL     1      52.053   4.470  17.829  0.00  0.00    +0.000 C 
ATOM      6  O   UNL     1      51.815   5.161  16.838  0.00  0.00    +0.000 OA
BRANCH   5   7
ATOM      7  C   UNL     1      53.243   3.603  17.846  0.00  0.00    +0.000 A 
ATOM      8  C   UNL     1      54.550   4.065  17.901  0.00  0.00    +0.000 A 
ATOM      9  S   UNL     1      55.694   2.822  18.165  0.00  0.00    +0.000 S 
ATOM     10  C   UNL     1      54.479   1.630  18.163  0.00  0.00    +0.000 A 
ATOM     11  N   UNL     1      54.769   0.321  18.405  0.00  0.00    +0.000 NA
ATOM     12  C   UNL     1      53.735  -0.455  18.398  0.00  0.00    +0.000 A 
ATOM     13  N   UNL     1      52.451  -0.055  18.127  0.00  0.00    +0.000 N 
ATOM     14  C   UNL     1      52.151   1.223  17.686  0.00  0.00    +0.000 A 
ATOM     15  O   UNL     1      51.109   1.466  17.092  0.00  0.00    +0.000 OA
ATOM     16  C   UNL     1      53.240   2.162  17.877  0.00  0.00    +0.000 A 
ATOM     17  H   UNL     1      51.719  -0.739  18.015  0.00  0.00    +0.000 HD
ENDBRANCH   5   7
ENDBRANCH   4   5
ENDBRANCH   1   4
BRANCH   1  18
ATOM     18  C   UNL     1      48.613   4.536  18.812  0.00  0.00    +0.000 C 
BRANCH  18  19
ATOM     19  C   UNL     1      48.082   4.691  17.405  0.00  0.00    +0.000 A 
ATOM     20  C   UNL     1      48.502   5.725  16.563  0.00  0.00    +0.000 A 
ATOM     21  C   UNL     1      47.971   5.844  15.275  0.00  0.00    +0.000 A 
ATOM     22  C   UNL     1      47.027   4.915  14.841  0.00  0.00    +0.000 A 
ATOM     23  N   UNL     1      46.639   3.879  15.629  0.00  0.00    +0.000 NA
ATOM     24  C   UNL     1      47.157   3.799  16.879  0.00  0.00    +0.000 A 
BRANCH  22  25
ATOM     25  C   UNL     1      46.320   5.061  13.497  0.00  0.00    +0.000 C 
BRANCH  25  26
ATOM     26  O   UNL     1      47.207   5.683  12.553  0.00  0.00    +0.000 OA
ATOM     27  H   UNL     1      46.685   6.300  12.018  0.00  0.00    +0.000 HD
ENDBRANCH  25  26
BRANCH  25  28
ATOM     28  C   UNL     1      45.759   3.715  12.943  0.00  0.00    +0.000 C 
BRANCH  28  29
ATOM     29  N   UNL     1      44.283   3.573  12.970  0.00  0.00    +0.000 NA
ATOM     30  C   UNL     1      43.722   2.940  11.767  0.00  0.00    +0.000 C 
ATOM     31  C   UNL     1      43.437   4.078  10.807  0.00  0.00    +0.000 C 
ATOM     32  C   UNL     1      43.007   5.209  11.717  0.00  0.00    +0.000 C 
ATOM     33  C   UNL     1      43.609   4.879  13.080  0.00  0.00    +0.000 C 
ENDBRANCH  28  29
ENDBRANCH  25  28
ENDBRANCH  22  25
ENDBRANCH  18  19
ENDBRANCH   1  18
TORSDOF 9
ENDMDL
MODEL 7
REMARK VINA RESULT:    -6.201      3.229      8.683
REMARK INTER + INTRA:         -10.661
REMARK INTER:                  -9.674
REMARK INTRA:                  -0.988
REMARK UNBOUND:                -1.378
REMARK  Name = 
REMARK  10 active torsions:
REMARK  status: ('A' for Active; 'I' for Inactive)
REMARK    1  A    between atoms: C_1  and  C_2
REMARK    2  A    between atoms: C_2  and  N_3
REMARK    3  A    between atoms: C_2  and  C_19
REMARK    4  A    between atoms: N_3  and  C_4
REMARK    5  A    between atoms: C_4  and  C_5
REMARK    6  A    between atoms: C_8  and  C_9
REMARK    7  A    between atoms: C_9  and  O_10
REMARK    8  A    between atoms: C_9  and  C_11
REMARK    9  A    between atoms: C_11  and  N_12
REMARK   10  A    between atoms: C_19  and  C_21
REMARK                            x       y       z     vdW  Elec       q    Type
REMARK                         _______ _______ _______ _____ _____    ______ ____
ROOT
ATOM      1  N   UNL     1      49.051   6.577  14.511  0.00  0.00    +0.000 NA
ATOM      2  H   UNL     1      48.535   5.701  14.587  0.00  0.00    +0.000 HD
ENDROOT
BRANCH   1   4
ATOM      3  C   UNL     1      48.838   8.659  15.879  0.00  0.00    +0.000 C 
ATOM      4  C   UNL     1      49.169   7.164  15.867  0.00  0.00    +0.000 C 
BRANCH   4   5
ATOM      5  C   UNL     1      50.529   6.865  16.550  0.00  0.00    +0.000 C 
ATOM      6  O   UNL     1      51.559   6.788  15.878  0.00  0.00    +0.000 OA
BRANCH   5   7
ATOM      7  C   UNL     1      50.591   6.650  18.005  0.00  0.00    +0.000 A 
ATOM      8  C   UNL     1      51.194   7.519  18.903  0.00  0.00    +0.000 A 
ATOM      9  S   UNL     1      50.880   7.127  20.536  0.00  0.00    +0.000 S 
ATOM     10  C   UNL     1      49.971   5.759  20.090  0.00  0.00    +0.000 A 
ATOM     11  N   UNL     1      49.345   4.988  21.022  0.00  0.00    +0.000 NA
ATOM     12  C   UNL     1      48.671   4.004  20.522  0.00  0.00    +0.000 A 
ATOM     13  N   UNL     1      48.605   3.693  19.187  0.00  0.00    +0.000 N 
ATOM     14  C   UNL     1      49.383   4.333  18.238  0.00  0.00    +0.000 A 
ATOM     15  O   UNL     1      49.611   3.822  17.149  0.00  0.00    +0.000 OA
ATOM     16  C   UNL     1      49.985   5.558  18.726  0.00  0.00    +0.000 A 
ATOM     17  H   UNL     1      48.164   2.837  18.887  0.00  0.00    +0.000 HD
ENDBRANCH   5   7
ENDBRANCH   4   5
ENDBRANCH   1   4
BRANCH   1  18
ATOM     18  C   UNL     1      48.397   7.424  13.512  0.00  0.00    +0.000 C 
BRANCH  18  19
ATOM     19  C   UNL     1      47.041   6.866  13.139  0.00  0.00    +0.000 A 
ATOM     20  C   UNL     1      46.565   5.660  13.661  0.00  0.00    +0.000 A 
ATOM     21  C   UNL     1      45.314   5.172  13.274  0.00  0.00    +0.000 A 
ATOM     22  C   UNL     1      44.547   5.905  12.370  0.00  0.00    +0.000 A 
ATOM     23  N   UNL     1      44.974   7.099  11.886  0.00  0.00    +0.000 NA
ATOM     24  C   UNL     1      46.199   7.541  12.264  0.00  0.00    +0.000 A 
BRANCH  22  25
ATOM     25  C   UNL     1      43.232   5.366  11.815  0.00  0.00    +0.000 C 
BRANCH  25  26
ATOM     26  O   UNL     1      42.310   6.452  11.626  0.00  0.00    +0.000 OA
ATOM     27  H   UNL     1      41.582   6.130  11.075  0.00  0.00    +0.000 HD
ENDBRANCH  25  26
BRANCH  25  28
ATOM     28  C   UNL     1      43.407   4.540  10.503  0.00  0.00    +0.000 C 
BRANCH  28  29
ATOM     29  N   UNL     1      44.787   4.081  10.210  0.00  0.00    +0.000 NA
ATOM     30  C   UNL     1      45.298   4.521   8.904  0.00  0.00    +0.000 C 
ATOM     31  C   UNL     1      44.898   3.435   7.925  0.00  0.00    +0.000 C 
ATOM     32  C   UNL     1      45.010   2.165   8.742  0.00  0.00    +0.000 C 
ATOM     33  C   UNL     1      44.883   2.611  10.196  0.00  0.00    +0.000 C 
ENDBRANCH  28  29
ENDBRANCH  25  28
ENDBRANCH  22  25
ENDBRANCH  18  19
ENDBRANCH   1  18
TORSDOF 9
ENDMDL
MODEL 8
REMARK VINA RESULT:    -5.854      2.993      8.332
REMARK INTER + INTRA:         -10.142
REMARK INTER:                  -9.269
REMARK INTRA:                  -0.873
REMARK UNBOUND:                -1.378
REMARK  Name = 
REMARK  10 active torsions:
REMARK  status: ('A' for Active; 'I' for Inactive)
REMARK    1  A    between atoms: C_1  and  C_2
REMARK    2  A    between atoms: C_2  and  N_3
REMARK    3  A    between atoms: C_2  and  C_19
REMARK    4  A    between atoms: N_3  and  C_4
REMARK    5  A    between atoms: C_4  and  C_5
REMARK    6  A    between atoms: C_8  and  C_9
REMARK    7  A    between atoms: C_9  and  O_10
REMARK    8  A    between atoms: C_9  and  C_11
REMARK    9  A    between atoms: C_11  and  N_12
REMARK   10  A    between atoms: C_19  and  C_21
REMARK                            x       y       z     vdW  Elec       q    Type
REMARK                         _______ _______ _______ _____ _____    ______ ____
ROOT
ATOM      1  N   UNL     1      49.877   7.014  14.092  0.00  0.00    +0.000 NA
ATOM      2  H   UNL     1      49.489   6.079  14.214  0.00  0.00    +0.000 HD
ENDROOT
BRANCH   1   4
ATOM      3  C   UNL     1      51.453   6.942  16.033  0.00  0.00    +0.000 C 
ATOM      4  C   UNL     1      50.188   7.564  15.433  0.00  0.00    +0.000 C 
BRANCH   4   5
ATOM      5  C   UNL     1      48.989   7.505  16.415  0.00  0.00    +0.000 C 
ATOM      6  O   UNL     1      48.232   8.469  16.531  0.00  0.00    +0.000 OA
BRANCH   5   7
ATOM      7  C   UNL     1      48.763   6.299  17.228  0.00  0.00    +0.000 A 
ATOM      8  C   UNL     1      48.334   5.079  16.724  0.00  0.00    +0.000 A 
ATOM      9  S   UNL     1      48.411   3.811  17.867  0.00  0.00    +0.000 S 
ATOM     10  C   UNL     1      48.973   4.865  19.079  0.00  0.00    +0.000 A 
ATOM     11  N   UNL     1      49.307   4.408  20.317  0.00  0.00    +0.000 NA
ATOM     12  C   UNL     1      49.745   5.327  21.115  0.00  0.00    +0.000 A 
ATOM     13  N   UNL     1      49.833   6.661  20.808  0.00  0.00    +0.000 N 
ATOM     14  C   UNL     1      49.319   7.185  19.634  0.00  0.00    +0.000 A 
ATOM     15  O   UNL     1      49.053   8.376  19.528  0.00  0.00    +0.000 OA
ATOM     16  C   UNL     1      49.013   6.173  18.643  0.00  0.00    +0.000 A 
ATOM     17  H   UNL     1      50.062   7.333  21.523  0.00  0.00    +0.000 HD
ENDBRANCH   5   7
ENDBRANCH   4   5
ENDBRANCH   1   4
BRANCH   1  18
ATOM     18  C   UNL     1      48.950   7.807  13.284  0.00  0.00    +0.000 C 
BRANCH  18  19
ATOM     19  C   UNL     1      47.634   7.083  13.109  0.00  0.00    +0.000 A 
ATOM     20  C   UNL     1      46.467   7.746  12.717  0.00  0.00    +0.000 A 
ATOM     21  C   UNL     1      45.268   7.042  12.585  0.00  0.00    +0.000 A 
ATOM     22  C   UNL     1      45.252   5.671  12.841  0.00  0.00    +0.000 A 
ATOM     23  N   UNL     1      46.384   5.003  13.181  0.00  0.00    +0.000 NA
ATOM     24  C   UNL     1      47.530   5.714  13.319  0.00  0.00    +0.000 A 
BRANCH  22  25
ATOM     25  C   UNL     1      43.953   4.871  12.836  0.00  0.00    +0.000 C 
BRANCH  25  26
ATOM     26  O   UNL     1      42.854   5.739  13.159  0.00  0.00    +0.000 OA
ATOM     27  H   UNL     1      42.541   5.502  14.045  0.00  0.00    +0.000 HD
ENDBRANCH  25  26
BRANCH  25  28
ATOM     28  C   UNL     1      43.699   4.112  11.498  0.00  0.00    +0.000 C 
BRANCH  28  29
ATOM     29  N   UNL     1      44.912   3.686  10.758  0.00  0.00    +0.000 NA
ATOM     30  C   UNL     1      45.269   4.568   9.637  0.00  0.00    +0.000 C 
ATOM     31  C   UNL     1      44.533   4.012   8.434  0.00  0.00    +0.000 C 
ATOM     32  C   UNL     1      44.559   2.515   8.666  0.00  0.00    +0.000 C 
ATOM     33  C   UNL     1      44.751   2.345  10.169  0.00  0.00    +0.000 C 
ENDBRANCH  28  29
ENDBRANCH  25  28
ENDBRANCH  22  25
ENDBRANCH  18  19
ENDBRANCH   1  18
TORSDOF 9
ENDMDL
MODEL 9
REMARK VINA RESULT:    -5.493      3.862      6.660
REMARK INTER + INTRA:          -9.601
REMARK INTER:                  -7.626
REMARK INTRA:                  -1.974
REMARK UNBOUND:                -1.378
REMARK  Name = 
REMARK  10 active torsions:
REMARK  status: ('A' for Active; 'I' for Inactive)
REMARK    1  A    between atoms: C_1  and  C_2
REMARK    2  A    between atoms: C_2  and  N_3
REMARK    3  A    between atoms: C_2  and  C_19
REMARK    4  A    between atoms: N_3  and  C_4
REMARK    5  A    between atoms: C_4  and  C_5
REMARK    6  A    between atoms: C_8  and  C_9
REMARK    7  A    between atoms: C_9  and  O_10
REMARK    8  A    between atoms: C_9  and  C_11
REMARK    9  A    between atoms: C_11  and  N_12
REMARK   10  A    between atoms: C_19  and  C_21
REMARK                            x       y       z     vdW  Elec       q    Type
REMARK                         _______ _______ _______ _____ _____    ______ ____
ROOT
ATOM      1  N   UNL     1      48.724   5.175  16.119  0.00  0.00    +0.000 NA
ATOM      2  H   UNL     1      49.007   5.461  15.182  0.00  0.00    +0.000 HD
ENDROOT
BRANCH   1   4
ATOM      3  C   UNL     1      47.159   3.482  17.088  0.00  0.00    +0.000 C 
ATOM      4  C   UNL     1      47.373   4.570  16.031  0.00  0.00    +0.000 C 
BRANCH   4   5
ATOM      5  C   UNL     1      47.013   4.074  14.606  0.00  0.00    +0.000 C 
ATOM      6  O   UNL     1      47.445   2.996  14.196  0.00  0.00    +0.000 OA
BRANCH   5   7
ATOM      7  C   UNL     1      46.169   4.902  13.730  0.00  0.00    +0.000 A 
ATOM      8  C   UNL     1      44.844   4.626  13.425  0.00  0.00    +0.000 A 
ATOM      9  S   UNL     1      44.063   5.901  12.596  0.00  0.00    +0.000 S 
ATOM     10  C   UNL     1      45.486   6.834  12.578  0.00  0.00    +0.000 A 
ATOM     11  N   UNL     1      45.501   8.094  12.063  0.00  0.00    +0.000 NA
ATOM     12  C   UNL     1      46.649   8.683  12.151  0.00  0.00    +0.000 A 
ATOM     13  N   UNL     1      47.789   8.114  12.658  0.00  0.00    +0.000 N 
ATOM     14  C   UNL     1      47.858   6.776  13.006  0.00  0.00    +0.000 A 
ATOM     15  O   UNL     1      48.929   6.190  13.087  0.00  0.00    +0.000 OA
ATOM     16  C   UNL     1      46.555   6.148  13.114  0.00  0.00    +0.000 A 
ATOM     17  H   UNL     1      48.675   8.590  12.576  0.00  0.00    +0.000 HD
ENDBRANCH   5   7
ENDBRANCH   4   5
ENDBRANCH   1   4
BRANCH   1  18
ATOM     18  C   UNL     1      48.842   6.325  17.018  0.00  0.00    +0.000 C 
BRANCH  18  19
ATOM     19  C   UNL     1      49.372   7.533  16.278  0.00  0.00    +0.000 A 
ATOM     20  C   UNL     1      48.626   8.708  16.145  0.00  0.00    +0.000 A 
ATOM     21  C   UNL     1      49.146   9.795  15.438  0.00  0.00    +0.000 A 
ATOM     22  C   UNL     1      50.418   9.694  14.874  0.00  0.00    +0.000 A 
ATOM     23  N   UNL     1      51.173   8.577  15.029  0.00  0.00    +0.000 NA
ATOM     24  C   UNL     1      50.637   7.531  15.706  0.00  0.00    +0.000 A 
BRANCH  22  25
ATOM     25  C   UNL     1      50.989  10.795  13.986  0.00  0.00    +0.000 C 
BRANCH  25  26
ATOM     26  O   UNL     1      52.287  11.176  14.470  0.00  0.00    +0.000 OA
ATOM     27  H   UNL     1      52.349  10.905  15.398  0.00  0.00    +0.000 HD
ENDBRANCH  25  26
BRANCH  25  28
ATOM     28  C   UNL     1      51.040  10.408  12.476  0.00  0.00    +0.000 C 
BRANCH  28  29
ATOM     29  N   UNL     1      52.322   9.833  12.001  0.00  0.00    +0.000 NA
ATOM     30  C   UNL     1      52.910  10.548  10.859  0.00  0.00    +0.000 C 
ATOM     31  C   UNL     1      52.336   9.880   9.624  0.00  0.00    +0.000 C 
ATOM     32  C   UNL     1      52.222   8.426  10.030  0.00  0.00    +0.000 C 
ATOM     33  C   UNL     1      52.164   8.438  11.555  0.00  0.00    +0.000 C 
ENDBRANCH  28  29
ENDBRANCH  25  28
ENDBRANCH  22  25
ENDBRANCH  18  19
ENDBRANCH   1  18
TORSDOF 9
ENDMDL
