MODEL 1
REMARK VINA RESULT:    -7.259      0.000      0.000
REMARK INTER + INTRA:         -10.043
REMARK INTER:                  -9.594
REMARK INTRA:                  -0.449
REMARK UNBOUND:                -0.449
REMARK  Name = 
REMARK  7 active torsions:
REMARK  status: ('A' for Active; 'I' for Inactive)
REMARK    1  A    between atoms: C_1  and  S_2
REMARK    2  A    between atoms: S_2  and  C_3
REMARK    3  A    between atoms: C_6  and  C_7
REMARK    4  A    between atoms: C_7  and  O_8
REMARK    5  A    between atoms: O_8  and  C_9
REMARK    6  A    between atoms: C_12  and  C_13
REMARK    7  A    between atoms: C_13  and  N_14
REMARK                            x       y       z     vdW  Elec       q    Type
REMARK                         _______ _______ _______ _____ _____    ______ ____
ROOT
ATOM      1  O   UNL     1      43.568   3.642  10.227  0.00  0.00    +0.000 OA
ENDROOT
BRANCH   1   2
ATOM      2  C   UNL     1      44.539   3.314   9.324  0.00  0.00    +0.000 A 
ATOM      3  C   UNL     1      45.227   4.190   8.485  0.00  0.00    +0.000 A 
ATOM      4  C   UNL     1      46.206   3.703   7.604  0.00  0.00    +0.000 A 
ATOM      5  C   UNL     1      46.505   2.333   7.548  0.00  0.00    +0.000 A 
ATOM      6  C   UNL     1      45.807   1.463   8.394  0.00  0.00    +0.000 A 
ATOM      7  C   UNL     1      44.836   1.951   9.272  0.00  0.00    +0.000 A 
BRANCH   5   8
ATOM      8  C   UNL     1      47.525   1.792   6.576  0.00  0.00    +0.000 C 
BRANCH   8   9
ATOM      9  N   UNL     1      48.654   2.699   6.405  0.00  0.00    +0.000 NA
ATOM     10  H   UNL     1      49.194   2.404   5.592  0.00  0.00    +0.000 HD
ATOM     11  H   UNL     1      49.273   2.617   7.209  0.00  0.00    +0.000 HD
ENDBRANCH   8   9
ENDBRANCH   5   8
ENDBRANCH   1   2
BRANCH   1  12
ATOM     12  C   UNL     1      43.717   3.156  11.563  0.00  0.00    +0.000 C 
BRANCH  12  16
ATOM     13  C   UNL     1      46.767   5.367  13.528  0.00  0.00    +0.000 A 
ATOM     14  C   UNL     1      46.726   3.989  13.528  0.00  0.00    +0.000 A 
ATOM     15  N   UNL     1      45.772   3.256  12.905  0.00  0.00    +0.000 NA
ATOM     16  C   UNL     1      44.802   3.946  12.266  0.00  0.00    +0.000 A 
ATOM     17  N   UNL     1      44.741   5.293  12.215  0.00  0.00    +0.000 NA
ATOM     18  C   UNL     1      45.720   5.966  12.859  0.00  0.00    +0.000 A 
BRANCH  13  20
ATOM     19  C   UNL     1      48.882   6.970  12.877  0.00  0.00    +0.000 C 
ATOM     20  S   UNL     1      48.059   6.270  14.333  0.00  0.00    +0.000 S 
ENDBRANCH  13  20
ENDBRANCH  12  16
ENDBRANCH   1  12
TORSDOF 6
ENDMDL
MODEL 2
REMARK VINA RESULT:    -6.213      2.920      5.945
REMARK INTER + INTRA:          -8.659
REMARK INTER:                  -8.189
REMARK INTRA:                  -0.470
REMARK UNBOUND:                -0.449
REMARK  Name = 
REMARK  7 active torsions:
REMARK  status: ('A' for Active; 'I' for Inactive)
REMARK    1  A    between atoms: C_1  and  S_2
REMARK    2  A    between atoms: S_2  and  C_3
REMARK    3  A    between atoms: C_6  and  C_7
REMARK    4  A    between atoms: C_7  and  O_8
REMARK    5  A    between atoms: O_8  and  C_9
REMARK    6  A    between atoms: C_12  and  C_13
REMARK    7  A    between atoms: C_13  and  N_14
REMARK                            x       y       z     vdW  Elec       q    Type
REMARK                         _______ _______ _______ _____ _____    ______ ____
ROOT
ATOM      1  O   UNL     1      43.949   4.439  11.557  0.00  0.00    +0.000 OA
ENDROOT
BRANCH   1   2
ATOM      2  C   UNL     1      45.005   5.132  12.076  0.00  0.00    +0.000 A 
ATOM      3  C   UNL     1      45.325   6.468  11.833  0.00  0.00    +0.000 A 
ATOM      4  C   UNL     1      46.448   7.049  12.443  0.00  0.00    +0.000 A 
ATOM      5  C   UNL     1      47.268   6.300  13.300  0.00  0.00    +0.000 A 
ATOM      6  C   UNL     1      46.938   4.959  13.536  0.00  0.00    +0.000 A 
ATOM      7  C   UNL     1      45.818   4.385  12.930  0.00  0.00    +0.000 A 
BRANCH   5   8
ATOM      8  C   UNL     1      48.502   6.899  13.929  0.00  0.00    +0.000 C 
BRANCH   8   9
ATOM      9  N   UNL     1      49.658   6.828  13.042  0.00  0.00    +0.000 NA
ATOM     10  H   UNL     1      49.536   6.043  12.404  0.00  0.00    +0.000 HD
ATOM     11  H   UNL     1      50.489   6.626  13.593  0.00  0.00    +0.000 HD
ENDBRANCH   8   9
ENDBRANCH   5   8
ENDBRANCH   1   2
BRANCH   1  12
ATOM     12  C   UNL     1      43.642   4.640  10.176  0.00  0.00    +0.000 C 
BRANCH  12  16
ATOM     13  C   UNL     1      46.329   2.366   7.796  0.00  0.00    +0.000 A 
ATOM     14  C   UNL     1      46.166   3.726   7.646  0.00  0.00    +0.000 A 
ATOM     15  N   UNL     1      45.324   4.480   8.393  0.00  0.00    +0.000 NA
ATOM     16  C   UNL     1      44.597   3.828   9.326  0.00  0.00    +0.000 A 
ATOM     17  N   UNL     1      44.670   2.498   9.547  0.00  0.00    +0.000 NA
ATOM     18  C   UNL     1      45.526   1.802   8.766  0.00  0.00    +0.000 A 
BRANCH  13  20
ATOM     19  C   UNL     1      47.594   2.549   5.381  0.00  0.00    +0.000 C 
ATOM     20  S   UNL     1      47.470   1.439   6.811  0.00  0.00    +0.000 S 
ENDBRANCH  13  20
ENDBRANCH  12  16
ENDBRANCH   1  12
TORSDOF 6
ENDMDL
MODEL 3
REMARK VINA RESULT:    -6.073      1.467      2.002
REMARK INTER + INTRA:          -8.475
REMARK INTER:                  -8.085
REMARK INTRA:                  -0.390
REMARK UNBOUND:                -0.449
REMARK  Name = 
REMARK  7 active torsions:
REMARK  status: ('A' for Active; 'I' for Inactive)
REMARK    1  A    between atoms: C_1  and  S_2
REMARK    2  A    between atoms: S_2  and  C_3
REMARK    3  A    between atoms: C_6  and  C_7
REMARK    4  A    between atoms: C_7  and  O_8
REMARK    5  A    between atoms: O_8  and  C_9
REMARK    6  A    between atoms: C_12  and  C_13
REMARK    7  A    between atoms: C_13  and  N_14
REMARK                            x       y       z     vdW  Elec       q    Type
REMARK                         _______ _______ _______ _____ _____    ______ ____
ROOT
ATOM      1  O   UNL     1      44.192   4.234  10.942  0.00  0.00    +0.000 OA
ENDROOT
BRANCH   1   2
ATOM      2  C   UNL     1      44.834   3.649   9.888  0.00  0.00    +0.000 A 
ATOM      3  C   UNL     1      45.028   2.282   9.686  0.00  0.00    +0.000 A 
ATOM      4  C   UNL     1      45.711   1.826   8.548  0.00  0.00    +0.000 A 
ATOM      5  C   UNL     1      46.212   2.730   7.599  0.00  0.00    +0.000 A 
ATOM      6  C   UNL     1      46.013   4.099   7.813  0.00  0.00    +0.000 A 
ATOM      7  C   UNL     1      45.330   4.550   8.946  0.00  0.00    +0.000 A 
BRANCH   5   8
ATOM      8  C   UNL     1      46.985   2.255   6.393  0.00  0.00    +0.000 C 
BRANCH   8   9
ATOM      9  N   UNL     1      48.190   1.524   6.768  0.00  0.00    +0.000 NA
ATOM     10  H   UNL     1      48.393   1.704   7.750  0.00  0.00    +0.000 HD
ATOM     11  H   UNL     1      48.979   1.887   6.238  0.00  0.00    +0.000 HD
ENDBRANCH   8   9
ENDBRANCH   5   8
ENDBRANCH   1   2
BRANCH   1  12
ATOM     12  C   UNL     1      44.781   4.094  12.236  0.00  0.00    +0.000 C 
BRANCH  12  16
ATOM     13  C   UNL     1      46.937   7.632  13.185  0.00  0.00    +0.000 A 
ATOM     14  C   UNL     1      47.451   6.368  13.382  0.00  0.00    +0.000 A 
ATOM     15  N   UNL     1      46.793   5.222  13.083  0.00  0.00    +0.000 NA
ATOM     16  C   UNL     1      45.548   5.356  12.577  0.00  0.00    +0.000 A 
ATOM     17  N   UNL     1      44.946   6.543  12.355  0.00  0.00    +0.000 NA
ATOM     18  C   UNL     1      45.653   7.649  12.678  0.00  0.00    +0.000 A 
BRANCH  13  20
ATOM     19  C   UNL     1      48.140   9.711  11.883  0.00  0.00    +0.000 C 
ATOM     20  S   UNL     1      47.858   9.094  13.565  0.00  0.00    +0.000 S 
ENDBRANCH  13  20
ENDBRANCH  12  16
ENDBRANCH   1  12
TORSDOF 6
ENDMDL
MODEL 4
REMARK VINA RESULT:    -5.591      4.461      6.204
REMARK INTER + INTRA:          -7.838
REMARK INTER:                  -7.582
REMARK INTRA:                  -0.256
REMARK UNBOUND:                -0.449
REMARK  Name = 
REMARK  7 active torsions:
REMARK  status: ('A' for Active; 'I' for Inactive)
REMARK    1  A    between atoms: C_1  and  S_2
REMARK    2  A    between atoms: S_2  and  C_3
REMARK    3  A    between atoms: C_6  and  C_7
REMARK    4  A    between atoms: C_7  and  O_8
REMARK    5  A    between atoms: O_8  and  C_9
REMARK    6  A    between atoms: C_12  and  C_13
REMARK    7  A    between atoms: C_13  and  N_14
REMARK                            x       y       z     vdW  Elec       q    Type
REMARK                         _______ _______ _______ _____ _____    ______ ____
ROOT
ATOM      1  O   UNL     1      47.535   3.236  14.504  0.00  0.00    +0.000 OA
ENDROOT
BRANCH   1   2
ATOM      2  C   UNL     1      46.681   3.980  13.739  0.00  0.00    +0.000 A 
ATOM      3  C   UNL     1      46.546   5.368  13.752  0.00  0.00    +0.000 A 
ATOM      4  C   UNL     1      45.621   5.996  12.903  0.00  0.00    +0.000 A 
ATOM      5  C   UNL     1      44.817   5.244  12.034  0.00  0.00    +0.000 A 
ATOM      6  C   UNL     1      44.960   3.851  12.031  0.00  0.00    +0.000 A 
ATOM      7  C   UNL     1      45.884   3.229  12.875  0.00  0.00    +0.000 A 
BRANCH   5   8
ATOM      8  C   UNL     1      43.789   5.903  11.148  0.00  0.00    +0.000 C 
BRANCH   8   9
ATOM      9  N   UNL     1      43.515   5.117   9.950  0.00  0.00    +0.000 NA
ATOM     10  H   UNL     1      43.864   4.170  10.089  0.00  0.00    +0.000 HD
ATOM     11  H   UNL     1      44.039   5.506   9.168  0.00  0.00    +0.000 HD
ENDBRANCH   8   9
ENDBRANCH   5   8
ENDBRANCH   1   2
BRANCH   1  12
ATOM     12  C   UNL     1      47.490   3.426  15.919  0.00  0.00    +0.000 C 
BRANCH  12  16
ATOM     13  C   UNL     1      51.339   2.674  17.555  0.00  0.00    +0.000 A 
ATOM     14  C   UNL     1      50.602   1.707  16.905  0.00  0.00    +0.000 A 
ATOM     15  N   UNL     1      49.377   1.917  16.366  0.00  0.00    +0.000 NA
ATOM     16  C   UNL     1      48.861   3.158  16.506  0.00  0.00    +0.000 A 
ATOM     17  N   UNL     1      49.491   4.172  17.134  0.00  0.00    +0.000 NA
ATOM     18  C   UNL     1      50.709   3.897  17.653  0.00  0.00    +0.000 A 
BRANCH  13  20
ATOM     19  C   UNL     1      53.186   0.661  17.588  0.00  0.00    +0.000 C 
ATOM     20  S   UNL     1      52.950   2.348  18.210  0.00  0.00    +0.000 S 
ENDBRANCH  13  20
ENDBRANCH  12  16
ENDBRANCH   1  12
TORSDOF 6
ENDMDL
MODEL 5
REMARK VINA RESULT:    -5.497      3.263      6.346
REMARK INTER + INTRA:          -7.714
REMARK INTER:                  -7.345
REMARK INTRA:                  -0.369
REMARK UNBOUND:                -0.449
REMARK  Name = 
REMARK  7 active torsions:
REMARK  status: ('A' for Active; 'I' for Inactive)
REMARK    1  A    between atoms: C_1  and  S_2
REMARK    2  A    between atoms: S_2  and  C_3
REMARK    3  A    between atoms: C_6  and  C_7
REMARK    4  A    between atoms: C_7  and  O_8
REMARK    5  A    between atoms: O_8  and  C_9
REMARK    6  A    between atoms: C_12  and  C_13
REMARK    7  A    between atoms: C_13  and  N_14
REMARK                            x       y       z     vdW  Elec       q    Type
REMARK                         _______ _______ _______ _____ _____    ______ ____
ROOT
ATOM      1  O   UNL     1      44.615   5.278  11.685  0.00  0.00    +0.000 OA
ENDROOT
BRANCH   1   2
ATOM      2  C   UNL     1      45.347   6.424  11.820  0.00  0.00    +0.000 A 
ATOM      3  C   UNL     1      44.849   7.724  11.914  0.00  0.00    +0.000 A 
ATOM      4  C   UNL     1      45.729   8.809  12.052  0.00  0.00    +0.000 A 
ATOM      5  C   UNL     1      47.117   8.608  12.094  0.00  0.00    +0.000 A 
ATOM      6  C   UNL     1      47.605   7.300  11.998  0.00  0.00    +0.000 A 
ATOM      7  C   UNL     1      46.726   6.221  11.864  0.00  0.00    +0.000 A 
BRANCH   5   8
ATOM      8  C   UNL     1      48.075   9.769  12.200  0.00  0.00    +0.000 C 
BRANCH   8   9
ATOM      9  N   UNL     1      47.906  10.507  13.447  0.00  0.00    +0.000 NA
ATOM     10  H   UNL     1      46.912  10.571  13.661  0.00  0.00    +0.000 HD
ATOM     11  H   UNL     1      48.237  11.461  13.318  0.00  0.00    +0.000 HD
ENDBRANCH   8   9
ENDBRANCH   5   8
ENDBRANCH   1   2
BRANCH   1  12
ATOM     12  C   UNL     1      43.930   5.074  10.447  0.00  0.00    +0.000 C 
BRANCH  12  16
ATOM     13  C   UNL     1      46.226   2.495   7.969  0.00  0.00    +0.000 A 
ATOM     14  C   UNL     1      45.415   2.031   8.983  0.00  0.00    +0.000 A 
ATOM     15  N   UNL     1      44.665   2.825   9.784  0.00  0.00    +0.000 NA
ATOM     16  C   UNL     1      44.752   4.155   9.565  0.00  0.00    +0.000 A 
ATOM     17  N   UNL     1      45.523   4.716   8.610  0.00  0.00    +0.000 NA
ATOM     18  C   UNL     1      46.249   3.869   7.846  0.00  0.00    +0.000 A 
BRANCH  13  20
ATOM     19  C   UNL     1      47.590   2.559   5.603  0.00  0.00    +0.000 C 
ATOM     20  S   UNL     1      47.157   1.404   6.933  0.00  0.00    +0.000 S 
ENDBRANCH  13  20
ENDBRANCH  12  16
ENDBRANCH   1  12
TORSDOF 6
ENDMDL
MODEL 6
REMARK VINA RESULT:    -5.371      2.952      3.979
REMARK INTER + INTRA:          -7.547
REMARK INTER:                  -7.217
REMARK INTRA:                  -0.330
REMARK UNBOUND:                -0.449
REMARK  Name = 
REMARK  7 active torsions:
REMARK  status: ('A' for Active; 'I' for Inactive)
REMARK    1  A    between atoms: C_1  and  S_2
REMARK    2  A    between atoms: S_2  and  C_3
REMARK    3  A    between atoms: C_6  and  C_7
REMARK    4  A    between atoms: C_7  and  O_8
REMARK    5  A    between atoms: O_8  and  C_9
REMARK    6  A    between atoms: C_12  and  C_13
REMARK    7  A    between atoms: C_13  and  N_14
REMARK                            x       y       z     vdW  Elec       q    Type
REMARK                         _______ _______ _______ _____ _____    ______ ____
ROOT
ATOM      1  O   UNL     1      45.457   4.939  13.292  0.00  0.00    +0.000 OA
ENDROOT
BRANCH   1   2
ATOM      2  C   UNL     1      45.298   4.506  12.007  0.00  0.00    +0.000 A 
ATOM      3  C   UNL     1      44.883   3.237  11.600  0.00  0.00    +0.000 A 
ATOM      4  C   UNL     1      44.763   2.937  10.234  0.00  0.00    +0.000 A 
ATOM      5  C   UNL     1      45.060   3.899   9.258  0.00  0.00    +0.000 A 
ATOM      6  C   UNL     1      45.477   5.168   9.677  0.00  0.00    +0.000 A 
ATOM      7  C   UNL     1      45.592   5.466  11.038  0.00  0.00    +0.000 A 
BRANCH   5   8
ATOM      8  C   UNL     1      44.976   3.576   7.786  0.00  0.00    +0.000 C 
BRANCH   8   9
ATOM      9  N   UNL     1      46.225   3.864   7.090  0.00  0.00    +0.000 NA
ATOM     10  H   UNL     1      46.060   3.823   6.085  0.00  0.00    +0.000 HD
ATOM     11  H   UNL     1      46.902   3.134   7.303  0.00  0.00    +0.000 HD
ENDBRANCH   8   9
ENDBRANCH   5   8
ENDBRANCH   1   2
BRANCH   1  12
ATOM     12  C   UNL     1      46.579   5.779  13.572  0.00  0.00    +0.000 C 
BRANCH  12  16
ATOM     13  C   UNL     1      48.689   4.240  16.924  0.00  0.00    +0.000 A 
ATOM     14  C   UNL     1      47.688   3.539  16.285  0.00  0.00    +0.000 A 
ATOM     15  N   UNL     1      47.003   3.998  15.210  0.00  0.00    +0.000 NA
ATOM     16  C   UNL     1      47.330   5.232  14.769  0.00  0.00    +0.000 A 
ATOM     17  N   UNL     1      48.283   6.007  15.328  0.00  0.00    +0.000 NA
ATOM     18  C   UNL     1      48.927   5.493  16.399  0.00  0.00    +0.000 A 
BRANCH  13  20
ATOM     19  C   UNL     1      50.493   2.258  17.459  0.00  0.00    +0.000 C 
ATOM     20  S   UNL     1      49.572   3.573  18.305  0.00  0.00    +0.000 S 
ENDBRANCH  13  20
ENDBRANCH  12  16
ENDBRANCH   1  12
TORSDOF 6
ENDMDL
MODEL 7
REMARK VINA RESULT:    -5.224      4.273      5.641
REMARK INTER + INTRA:          -7.353
REMARK INTER:                  -6.985
REMARK INTRA:                  -0.369
REMARK UNBOUND:                -0.449
REMARK  Name = 
REMARK  7 active torsions:
REMARK  status: ('A' for Active; 'I' for Inactive)
REMARK    1  A    between atoms: C_1  and  S_2
REMARK    2  A    between atoms: S_2  and  C_3
REMARK    3  A    between atoms: C_6  and  C_7
REMARK    4  A    between atoms: C_7  and  O_8
REMARK    5  A    between atoms: O_8  and  C_9
REMARK    6  A    between atoms: C_12  and  C_13
REMARK    7  A    between atoms: C_13  and  N_14
REMARK                            x       y       z     vdW  Elec       q    Type
REMARK                         _______ _______ _______ _____ _____    ______ ____
ROOT
ATOM      1  O   UNL     1      47.610   3.795  13.993  0.00  0.00    +0.000 OA
ENDROOT
BRANCH   1   2
ATOM      2  C   UNL     1      46.444   4.257  13.452  0.00  0.00    +0.000 A 
ATOM      3  C   UNL     1      45.973   5.570  13.483  0.00  0.00    +0.000 A 
ATOM      4  C   UNL     1      44.749   5.896  12.878  0.00  0.00    +0.000 A 
ATOM      5  C   UNL     1      43.978   4.914  12.239  0.00  0.00    +0.000 A 
ATOM      6  C   UNL     1      44.459   3.600  12.216  0.00  0.00    +0.000 A 
ATOM      7  C   UNL     1      45.680   3.278  12.815  0.00  0.00    +0.000 A 
BRANCH   5   8
ATOM      8  C   UNL     1      42.641   5.243  11.623  0.00  0.00    +0.000 C 
BRANCH   8   9
ATOM      9  N   UNL     1      42.597   6.607  11.106  0.00  0.00    +0.000 NA
ATOM     10  H   UNL     1      41.623   6.892  11.008  0.00  0.00    +0.000 HD
ATOM     11  H   UNL     1      42.999   6.623  10.171  0.00  0.00    +0.000 HD
ENDBRANCH   8   9
ENDBRANCH   5   8
ENDBRANCH   1   2
BRANCH   1  12
ATOM     12  C   UNL     1      47.545   3.196  15.289  0.00  0.00    +0.000 C 
BRANCH  12  16
ATOM     13  C   UNL     1      48.103   6.185  18.258  0.00  0.00    +0.000 A 
ATOM     14  C   UNL     1      47.189   5.161  18.390  0.00  0.00    +0.000 A 
ATOM     15  N   UNL     1      46.994   4.190  17.467  0.00  0.00    +0.000 NA
ATOM     16  C   UNL     1      47.742   4.264  16.345  0.00  0.00    +0.000 A 
ATOM     17  N   UNL     1      48.656   5.230  16.109  0.00  0.00    +0.000 NA
ATOM     18  C   UNL     1      48.801   6.171  17.067  0.00  0.00    +0.000 A 
BRANCH  13  20
ATOM     19  C   UNL     1      47.565   8.828  18.692  0.00  0.00    +0.000 C 
ATOM     20  S   UNL     1      48.337   7.408  19.515  0.00  0.00    +0.000 S 
ENDBRANCH  13  20
ENDBRANCH  12  16
ENDBRANCH   1  12
TORSDOF 6
ENDMDL
MODEL 8
REMARK VINA RESULT:    -5.224      4.526      7.902
REMARK INTER + INTRA:          -7.353
REMARK INTER:                  -7.037
REMARK INTRA:                  -0.317
REMARK UNBOUND:                -0.449
REMARK  Name = 
REMARK  7 active torsions:
REMARK  status: ('A' for Active; 'I' for Inactive)
REMARK    1  A    between atoms: C_1  and  S_2
REMARK    2  A    between atoms: S_2  and  C_3
REMARK    3  A    between atoms: C_6  and  C_7
REMARK    4  A    between atoms: C_7  and  O_8
REMARK    5  A    between atoms: O_8  and  C_9
REMARK    6  A    between atoms: C_12  and  C_13
REMARK    7  A    between atoms: C_13  and  N_14
REMARK                            x       y       z     vdW  Elec       q    Type
REMARK                         _______ _______ _______ _____ _____    ______ ____
ROOT
ATOM      1  O   UNL     1      47.161   3.566  15.697  0.00  0.00    +0.000 OA
ENDROOT
BRANCH   1   2
ATOM      2  C   UNL     1      48.362   3.375  16.320  0.00  0.00    +0.000 A 
ATOM      3  C   UNL     1      49.041   2.166  16.466  0.00  0.00    +0.000 A 
ATOM      4  C   UNL     1      50.276   2.125  17.134  0.00  0.00    +0.000 A 
ATOM      5  C   UNL     1      50.844   3.291  17.667  0.00  0.00    +0.000 A 
ATOM      6  C   UNL     1      50.153   4.499  17.515  0.00  0.00    +0.000 A 
ATOM      7  C   UNL     1      48.926   4.538  16.847  0.00  0.00    +0.000 A 
BRANCH   5   8
ATOM      8  C   UNL     1      52.150   3.254  18.423  0.00  0.00    +0.000 C 
BRANCH   8   9
ATOM      9  N   UNL     1      52.056   3.933  19.710  0.00  0.00    +0.000 NA
ATOM     10  H   UNL     1      52.517   4.839  19.640  0.00  0.00    +0.000 HD
ATOM     11  H   UNL     1      52.571   3.400  20.407  0.00  0.00    +0.000 HD
ENDBRANCH   8   9
ENDBRANCH   5   8
ENDBRANCH   1   2
BRANCH   1  12
ATOM     12  C   UNL     1      46.919   4.845  15.108  0.00  0.00    +0.000 C 
BRANCH  12  16
ATOM     13  C   UNL     1      44.935   4.329  11.385  0.00  0.00    +0.000 A 
ATOM     14  C   UNL     1      45.196   5.570  11.927  0.00  0.00    +0.000 A 
ATOM     15  N   UNL     1      45.833   5.768  13.106  0.00  0.00    +0.000 NA
ATOM     16  C   UNL     1      46.209   4.660  13.782  0.00  0.00    +0.000 A 
ATOM     17  N   UNL     1      45.992   3.400  13.349  0.00  0.00    +0.000 NA
ATOM     18  C   UNL     1      45.349   3.270  12.167  0.00  0.00    +0.000 A 
BRANCH  13  20
ATOM     19  C   UNL     1      44.792   2.514   9.348  0.00  0.00    +0.000 C 
ATOM     20  S   UNL     1      44.128   4.134   9.823  0.00  0.00    +0.000 S 
ENDBRANCH  13  20
ENDBRANCH  12  16
ENDBRANCH   1  12
TORSDOF 6
ENDMDL
MODEL 9
REMARK VINA RESULT:    -5.124      5.481      8.327
REMARK INTER + INTRA:          -7.220
REMARK INTER:                  -6.873
REMARK INTRA:                  -0.347
REMARK UNBOUND:                -0.449
REMARK  Name = 
REMARK  7 active torsions:
REMARK  status: ('A' for Active; 'I' for Inactive)
REMARK    1  A    between atoms: C_1  and  S_2
REMARK    2  A    between atoms: S_2  and  C_3
REMARK    3  A    between atoms: C_6  and  C_7
REMARK    4  A    between atoms: C_7  and  O_8
REMARK    5  A    between atoms: O_8  and  C_9
REMARK    6  A    between atoms: C_12  and  C_13
REMARK    7  A    between atoms: C_13  and  N_14
REMARK                            x       y       z     vdW  Elec       q    Type
REMARK                         _______ _______ _______ _____ _____    ______ ____
ROOT
ATOM      1  O   UNL     1      48.936   4.372  17.261  0.00  0.00    +0.000 OA
ENDROOT
BRANCH   1   2
ATOM      2  C   UNL     1      50.099   3.687  17.470  0.00  0.00    +0.000 A 
ATOM      3  C   UNL     1      51.312   4.220  17.909  0.00  0.00    +0.000 A 
ATOM      4  C   UNL     1      52.429   3.387  18.080  0.00  0.00    +0.000 A 
ATOM      5  C   UNL     1      52.349   2.013  17.811  0.00  0.00    +0.000 A 
ATOM      6  C   UNL     1      51.127   1.490  17.370  0.00  0.00    +0.000 A 
ATOM      7  C   UNL     1      50.016   2.321  17.204  0.00  0.00    +0.000 A 
BRANCH   5   8
ATOM      8  C   UNL     1      53.553   1.114  17.950  0.00  0.00    +0.000 C 
BRANCH   8   9
ATOM      9  N   UNL     1      53.179  -0.254  18.291  0.00  0.00    +0.000 NA
ATOM     10  H   UNL     1      53.111  -0.335  19.305  0.00  0.00    +0.000 HD
ATOM     11  H   UNL     1      53.922  -0.886  18.000  0.00  0.00    +0.000 HD
ENDBRANCH   8   9
ENDBRANCH   5   8
ENDBRANCH   1   2
BRANCH   1  12
ATOM     12  C   UNL     1      47.872   3.681  16.604  0.00  0.00    +0.000 C 
BRANCH  12  16
ATOM     13  C   UNL     1      46.729   5.835  13.124  0.00  0.00    +0.000 A 
ATOM     14  C   UNL     1      46.112   4.666  13.515  0.00  0.00    +0.000 A 
ATOM     15  N   UNL     1      46.447   3.960  14.622  0.00  0.00    +0.000 NA
ATOM     16  C   UNL     1      47.467   4.448  15.362  0.00  0.00    +0.000 A 
ATOM     17  N   UNL     1      48.146   5.575  15.063  0.00  0.00    +0.000 NA
ATOM     18  C   UNL     1      47.765   6.231  13.944  0.00  0.00    +0.000 A 
BRANCH  13  20
ATOM     19  C   UNL     1      44.525   6.114  11.534  0.00  0.00    +0.000 C 
ATOM     20  S   UNL     1      46.224   6.731  11.684  0.00  0.00    +0.000 S 
ENDBRANCH  13  20
ENDBRANCH  12  16
ENDBRANCH   1  12
TORSDOF 6
ENDMDL
