MODEL 1
REMARK VINA RESULT:    -7.883      0.000      0.000
REMARK INTER + INTRA:          -9.633
REMARK INTER:                  -9.266
REMARK INTRA:                  -0.367
REMARK UNBOUND:                -0.367
REMARK  Name = 
REMARK  3 active torsions:
REMARK  status: ('A' for Active; 'I' for Inactive)
REMARK    1  A    between atoms: C_3  and  C_4
REMARK    2  A    between atoms: C_4  and  N_5
REMARK    3  A    between atoms: N_5  and  C_6
REMARK                            x       y       z     vdW  Elec       q    Type
REMARK                         _______ _______ _______ _____ _____    ______ ____
ROOT
ATOM      1  C   UNL     1      43.350   4.056  13.030  0.00  0.00    +0.000 A 
ATOM      2  C   UNL     1      43.382   3.307  11.862  0.00  0.00    +0.000 A 
ATOM      3  C   UNL     1      44.202   3.734  10.825  0.00  0.00    +0.000 A 
ATOM      4  N   UNL     1      44.989   4.838  10.926  0.00  0.00    +0.000 NA
ATOM      5  C   UNL     1      44.977   5.555  12.067  0.00  0.00    +0.000 A 
ATOM      6  N   UNL     1      45.880   6.606  12.241  0.00  0.00    +0.000 N 
ATOM      7  C   UNL     1      47.028   6.584  11.332  0.00  0.00    +0.000 C 
ATOM      8  C   UNL     1      48.139   7.411  11.981  0.00  0.00    +0.000 C 
ATOM      9  C   UNL     1      47.667   8.831  12.301  0.00  0.00    +0.000 C 
ATOM     10  C   UNL     1      46.338   8.837  13.063  0.00  0.00    +0.000 C 
ATOM     11  C   UNL     1      45.292   7.937  12.400  0.00  0.00    +0.000 C 
ATOM     12  C   UNL     1      44.147   5.193  13.129  0.00  0.00    +0.000 A 
ENDROOT
BRANCH   3  13
ATOM     13  C   UNL     1      44.257   2.976   9.514  0.00  0.00    +0.000 C 
BRANCH  13  14
ATOM     14  N   UNL     1      45.115   3.653   8.537  0.00  0.00    +0.000 N 
ATOM     15  H   UNL     1      45.522   4.513   8.891  0.00  0.00    +0.000 HD
BRANCH  14  16
ATOM     16  C   UNL     1      45.979   2.899   7.739  0.00  0.00    +0.000 A 
ATOM     17  C   UNL     1      46.669   3.422   6.645  0.00  0.00    +0.000 A 
ATOM     18  C   UNL     1      47.566   2.618   5.955  0.00  0.00    +0.000 A 
ATOM     19  N   UNL     1      47.837   1.340   6.282  0.00  0.00    +0.000 NA
ATOM     20  C   UNL     1      47.200   0.860   7.368  0.00  0.00    +0.000 A 
ATOM     21  C   UNL     1      46.291   1.592   8.121  0.00  0.00    +0.000 A 
ENDBRANCH  14  16
ENDBRANCH  13  14
ENDBRANCH   3  13
TORSDOF 3
ENDMDL
MODEL 2
REMARK VINA RESULT:    -7.235      2.191      2.725
REMARK INTER + INTRA:          -8.870
REMARK INTER:                  -8.557
REMARK INTRA:                  -0.313
REMARK UNBOUND:                -0.367
REMARK  Name = 
REMARK  3 active torsions:
REMARK  status: ('A' for Active; 'I' for Inactive)
REMARK    1  A    between atoms: C_3  and  C_4
REMARK    2  A    between atoms: C_4  and  N_5
REMARK    3  A    between atoms: N_5  and  C_6
REMARK                            x       y       z     vdW  Elec       q    Type
REMARK                         _______ _______ _______ _____ _____    ______ ____
ROOT
ATOM      1  C   UNL     1      44.805   6.948  11.428  0.00  0.00    +0.000 A 
ATOM      2  C   UNL     1      44.515   5.789  10.722  0.00  0.00    +0.000 A 
ATOM      3  C   UNL     1      45.103   4.599  11.135  0.00  0.00    +0.000 A 
ATOM      4  N   UNL     1      45.924   4.529  12.216  0.00  0.00    +0.000 NA
ATOM      5  C   UNL     1      46.190   5.649  12.916  0.00  0.00    +0.000 A 
ATOM      6  N   UNL     1      46.915   5.573  14.108  0.00  0.00    +0.000 N 
ATOM      7  C   UNL     1      46.981   4.234  14.699  0.00  0.00    +0.000 C 
ATOM      8  C   UNL     1      47.295   4.408  16.185  0.00  0.00    +0.000 C 
ATOM      9  C   UNL     1      48.580   5.211  16.397  0.00  0.00    +0.000 C 
ATOM     10  C   UNL     1      48.586   6.510  15.587  0.00  0.00    +0.000 C 
ATOM     11  C   UNL     1      48.197   6.278  14.125  0.00  0.00    +0.000 C 
ATOM     12  C   UNL     1      45.656   6.878  12.528  0.00  0.00    +0.000 A 
ENDROOT
BRANCH   3  13
ATOM     13  C   UNL     1      44.849   3.306  10.386  0.00  0.00    +0.000 C 
BRANCH  13  14
ATOM     14  N   UNL     1      44.880   3.510   8.935  0.00  0.00    +0.000 N 
ATOM     15  H   UNL     1      44.751   4.481   8.665  0.00  0.00    +0.000 HD
BRANCH  14  16
ATOM     16  C   UNL     1      45.821   2.825   8.162  0.00  0.00    +0.000 A 
ATOM     17  C   UNL     1      46.726   3.458   7.310  0.00  0.00    +0.000 A 
ATOM     18  C   UNL     1      47.677   2.702   6.638  0.00  0.00    +0.000 A 
ATOM     19  N   UNL     1      47.801   1.367   6.763  0.00  0.00    +0.000 NA
ATOM     20  C   UNL     1      46.952   0.771   7.623  0.00  0.00    +0.000 A 
ATOM     21  C   UNL     1      45.975   1.448   8.341  0.00  0.00    +0.000 A 
ENDBRANCH  14  16
ENDBRANCH  13  14
ENDBRANCH   3  13
TORSDOF 3
ENDMDL
MODEL 3
REMARK VINA RESULT:    -6.563      1.785      6.540
REMARK INTER + INTRA:          -8.080
REMARK INTER:                  -7.806
REMARK INTRA:                  -0.275
REMARK UNBOUND:                -0.367
REMARK  Name = 
REMARK  3 active torsions:
REMARK  status: ('A' for Active; 'I' for Inactive)
REMARK    1  A    between atoms: C_3  and  C_4
REMARK    2  A    between atoms: C_4  and  N_5
REMARK    3  A    between atoms: N_5  and  C_6
REMARK                            x       y       z     vdW  Elec       q    Type
REMARK                         _______ _______ _______ _____ _____    ______ ____
ROOT
ATOM      1  C   UNL     1      43.431   3.082  10.993  0.00  0.00    +0.000 A 
ATOM      2  C   UNL     1      43.742   4.338  11.495  0.00  0.00    +0.000 A 
ATOM      3  C   UNL     1      44.789   5.041  10.913  0.00  0.00    +0.000 A 
ATOM      4  N   UNL     1      45.495   4.556   9.857  0.00  0.00    +0.000 NA
ATOM      5  C   UNL     1      45.181   3.346   9.354  0.00  0.00    +0.000 A 
ATOM      6  N   UNL     1      45.799   2.894   8.186  0.00  0.00    +0.000 N 
ATOM      7  C   UNL     1      46.443   3.941   7.389  0.00  0.00    +0.000 C 
ATOM      8  C   UNL     1      46.567   3.414   5.959  0.00  0.00    +0.000 C 
ATOM      9  C   UNL     1      47.327   2.086   5.914  0.00  0.00    +0.000 C 
ATOM     10  C   UNL     1      46.776   1.074   6.923  0.00  0.00    +0.000 C 
ATOM     11  C   UNL     1      46.611   1.683   8.318  0.00  0.00    +0.000 C 
ATOM     12  C   UNL     1      44.162   2.579   9.920  0.00  0.00    +0.000 A 
ENDROOT
BRANCH   3  13
ATOM     13  C   UNL     1      45.196   6.404  11.437  0.00  0.00    +0.000 C 
BRANCH  13  14
ATOM     14  N   UNL     1      46.627   6.453  11.750  0.00  0.00    +0.000 N 
ATOM     15  H   UNL     1      47.094   7.269  11.365  0.00  0.00    +0.000 HD
BRANCH  14  16
ATOM     16  C   UNL     1      47.065   6.099  13.029  0.00  0.00    +0.000 A 
ATOM     17  C   UNL     1      46.667   4.932  13.683  0.00  0.00    +0.000 A 
ATOM     18  C   UNL     1      47.212   4.623  14.922  0.00  0.00    +0.000 A 
ATOM     19  N   UNL     1      48.133   5.380  15.549  0.00  0.00    +0.000 NA
ATOM     20  C   UNL     1      48.544   6.479  14.887  0.00  0.00    +0.000 A 
ATOM     21  C   UNL     1      48.059   6.864  13.645  0.00  0.00    +0.000 A 
ENDBRANCH  14  16
ENDBRANCH  13  14
ENDBRANCH   3  13
TORSDOF 3
ENDMDL
MODEL 4
REMARK VINA RESULT:    -6.561      1.875      2.636
REMARK INTER + INTRA:          -8.078
REMARK INTER:                  -7.789
REMARK INTRA:                  -0.289
REMARK UNBOUND:                -0.367
REMARK  Name = 
REMARK  3 active torsions:
REMARK  status: ('A' for Active; 'I' for Inactive)
REMARK    1  A    between atoms: C_3  and  C_4
REMARK    2  A    between atoms: C_4  and  N_5
REMARK    3  A    between atoms: N_5  and  C_6
REMARK                            x       y       z     vdW  Elec       q    Type
REMARK                         _______ _______ _______ _____ _____    ______ ____
ROOT
ATOM      1  C   UNL     1      46.215   3.369  13.390  0.00  0.00    +0.000 A 
ATOM      2  C   UNL     1      45.202   3.626  12.477  0.00  0.00    +0.000 A 
ATOM      3  C   UNL     1      45.194   4.855  11.828  0.00  0.00    +0.000 A 
ATOM      4  N   UNL     1      46.156   5.795  12.035  0.00  0.00    +0.000 NA
ATOM      5  C   UNL     1      47.153   5.538  12.904  0.00  0.00    +0.000 A 
ATOM      6  N   UNL     1      48.221   6.429  13.024  0.00  0.00    +0.000 N 
ATOM      7  C   UNL     1      48.365   7.366  11.907  0.00  0.00    +0.000 C 
ATOM      8  C   UNL     1      49.813   7.857  11.908  0.00  0.00    +0.000 C 
ATOM      9  C   UNL     1      50.194   8.479  13.254  0.00  0.00    +0.000 C 
ATOM     10  C   UNL     1      49.826   7.572  14.431  0.00  0.00    +0.000 C 
ATOM     11  C   UNL     1      48.387   7.059  14.335  0.00  0.00    +0.000 C 
ATOM     12  C   UNL     1      47.192   4.336  13.611  0.00  0.00    +0.000 A 
ENDROOT
BRANCH   3  13
ATOM     13  C   UNL     1      44.098   5.207  10.843  0.00  0.00    +0.000 C 
BRANCH  13  14
ATOM     14  N   UNL     1      43.769   4.071   9.976  0.00  0.00    +0.000 N 
ATOM     15  H   UNL     1      42.875   4.173   9.506  0.00  0.00    +0.000 HD
BRANCH  14  16
ATOM     16  C   UNL     1      44.767   3.497   9.185  0.00  0.00    +0.000 A 
ATOM     17  C   UNL     1      45.054   2.131   9.178  0.00  0.00    +0.000 A 
ATOM     18  C   UNL     1      46.012   1.639   8.303  0.00  0.00    +0.000 A 
ATOM     19  N   UNL     1      46.694   2.401   7.426  0.00  0.00    +0.000 NA
ATOM     20  C   UNL     1      46.376   3.710   7.409  0.00  0.00    +0.000 A 
ATOM     21  C   UNL     1      45.429   4.289   8.243  0.00  0.00    +0.000 A 
ENDBRANCH  14  16
ENDBRANCH  13  14
ENDBRANCH   3  13
TORSDOF 3
ENDMDL
MODEL 5
REMARK VINA RESULT:    -6.016      3.920      7.400
REMARK INTER + INTRA:          -7.437
REMARK INTER:                  -7.012
REMARK INTRA:                  -0.425
REMARK UNBOUND:                -0.367
REMARK  Name = 
REMARK  3 active torsions:
REMARK  status: ('A' for Active; 'I' for Inactive)
REMARK    1  A    between atoms: C_3  and  C_4
REMARK    2  A    between atoms: C_4  and  N_5
REMARK    3  A    between atoms: N_5  and  C_6
REMARK                            x       y       z     vdW  Elec       q    Type
REMARK                         _______ _______ _______ _____ _____    ______ ____
ROOT
ATOM      1  C   UNL     1      48.518   7.761  11.853  0.00  0.00    +0.000 A 
ATOM      2  C   UNL     1      49.003   7.722  13.152  0.00  0.00    +0.000 A 
ATOM      3  C   UNL     1      48.307   6.976  14.096  0.00  0.00    +0.000 A 
ATOM      4  N   UNL     1      47.192   6.264  13.783  0.00  0.00    +0.000 NA
ATOM      5  C   UNL     1      46.731   6.282  12.517  0.00  0.00    +0.000 A 
ATOM      6  N   UNL     1      45.673   5.449  12.147  0.00  0.00    +0.000 N 
ATOM      7  C   UNL     1      45.418   4.338  13.068  0.00  0.00    +0.000 C 
ATOM      8  C   UNL     1      44.662   3.263  12.286  0.00  0.00    +0.000 C 
ATOM      9  C   UNL     1      43.380   3.820  11.663  0.00  0.00    +0.000 C 
ATOM     10  C   UNL     1      43.634   5.115  10.885  0.00  0.00    +0.000 C 
ATOM     11  C   UNL     1      44.454   6.122  11.697  0.00  0.00    +0.000 C 
ATOM     12  C   UNL     1      47.369   7.042  11.536  0.00  0.00    +0.000 A 
ENDROOT
BRANCH   3  13
ATOM     13  C   UNL     1      48.770   6.920  15.538  0.00  0.00    +0.000 C 
BRANCH  13  14
ATOM     14  N   UNL     1      47.962   5.983  16.325  0.00  0.00    +0.000 N 
ATOM     15  H   UNL     1      47.000   5.920  16.006  0.00  0.00    +0.000 HD
BRANCH  14  16
ATOM     16  C   UNL     1      48.514   4.762  16.720  0.00  0.00    +0.000 A 
ATOM     17  C   UNL     1      47.968   3.524  16.376  0.00  0.00    +0.000 A 
ATOM     18  C   UNL     1      48.626   2.360  16.750  0.00  0.00    +0.000 A 
ATOM     19  N   UNL     1      49.791   2.337  17.426  0.00  0.00    +0.000 NA
ATOM     20  C   UNL     1      50.331   3.538  17.712  0.00  0.00    +0.000 A 
ATOM     21  C   UNL     1      49.748   4.752  17.374  0.00  0.00    +0.000 A 
ENDBRANCH  14  16
ENDBRANCH  13  14
ENDBRANCH   3  13
TORSDOF 3
ENDMDL
MODEL 6
REMARK VINA RESULT:    -5.711      4.371      6.773
REMARK INTER + INTRA:          -7.080
REMARK INTER:                  -6.800
REMARK INTRA:                  -0.279
REMARK UNBOUND:                -0.367
REMARK  Name = 
REMARK  3 active torsions:
REMARK  status: ('A' for Active; 'I' for Inactive)
REMARK    1  A    between atoms: C_3  and  C_4
REMARK    2  A    between atoms: C_4  and  N_5
REMARK    3  A    between atoms: N_5  and  C_6
REMARK                            x       y       z     vdW  Elec       q    Type
REMARK                         _______ _______ _______ _____ _____    ______ ____
ROOT
ATOM      1  C   UNL     1      50.163   7.834  14.362  0.00  0.00    +0.000 A 
ATOM      2  C   UNL     1      49.158   7.499  13.465  0.00  0.00    +0.000 A 
ATOM      3  C   UNL     1      48.229   6.537  13.843  0.00  0.00    +0.000 A 
ATOM      4  N   UNL     1      48.255   5.939  15.064  0.00  0.00    +0.000 NA
ATOM      5  C   UNL     1      49.217   6.279  15.945  0.00  0.00    +0.000 A 
ATOM      6  N   UNL     1      49.177   5.782  17.249  0.00  0.00    +0.000 N 
ATOM      7  C   UNL     1      47.875   5.252  17.663  0.00  0.00    +0.000 C 
ATOM      8  C   UNL     1      47.839   5.273  19.191  0.00  0.00    +0.000 C 
ATOM      9  C   UNL     1      49.012   4.493  19.791  0.00  0.00    +0.000 C 
ATOM     10  C   UNL     1      50.352   4.908  19.177  0.00  0.00    +0.000 C 
ATOM     11  C   UNL     1      50.301   4.934  17.647  0.00  0.00    +0.000 C 
ATOM     12  C   UNL     1      50.197   7.213  15.607  0.00  0.00    +0.000 A 
ENDROOT
BRANCH   3  13
ATOM     13  C   UNL     1      47.127   6.106  12.896  0.00  0.00    +0.000 C 
BRANCH  13  14
ATOM     14  N   UNL     1      45.943   5.643  13.626  0.00  0.00    +0.000 N 
ATOM     15  H   UNL     1      45.611   6.311  14.315  0.00  0.00    +0.000 HD
BRANCH  14  16
ATOM     16  C   UNL     1      44.924   4.981  12.937  0.00  0.00    +0.000 A 
ATOM     17  C   UNL     1      43.708   5.578  12.602  0.00  0.00    +0.000 A 
ATOM     18  C   UNL     1      42.782   4.867  11.850  0.00  0.00    +0.000 A 
ATOM     19  N   UNL     1      42.983   3.615  11.396  0.00  0.00    +0.000 NA
ATOM     20  C   UNL     1      44.179   3.066  11.686  0.00  0.00    +0.000 A 
ATOM     21  C   UNL     1      45.166   3.703  12.426  0.00  0.00    +0.000 A 
ENDBRANCH  14  16
ENDBRANCH  13  14
ENDBRANCH   3  13
TORSDOF 3
ENDMDL
MODEL 7
REMARK VINA RESULT:    -5.351      5.047      6.621
REMARK INTER + INTRA:          -6.657
REMARK INTER:                  -6.409
REMARK INTRA:                  -0.247
REMARK UNBOUND:                -0.367
REMARK  Name = 
REMARK  3 active torsions:
REMARK  status: ('A' for Active; 'I' for Inactive)
REMARK    1  A    between atoms: C_3  and  C_4
REMARK    2  A    between atoms: C_4  and  N_5
REMARK    3  A    between atoms: N_5  and  C_6
REMARK                            x       y       z     vdW  Elec       q    Type
REMARK                         _______ _______ _______ _____ _____    ______ ____
ROOT
ATOM      1  C   UNL     1      47.719   3.382  17.651  0.00  0.00    +0.000 A 
ATOM      2  C   UNL     1      47.123   3.624  16.422  0.00  0.00    +0.000 A 
ATOM      3  C   UNL     1      47.631   4.647  15.631  0.00  0.00    +0.000 A 
ATOM      4  N   UNL     1      48.703   5.395  16.006  0.00  0.00    +0.000 NA
ATOM      5  C   UNL     1      49.297   5.147  17.190  0.00  0.00    +0.000 A 
ATOM      6  N   UNL     1      50.481   5.807  17.529  0.00  0.00    +0.000 N 
ATOM      7  C   UNL     1      51.188   6.415  16.399  0.00  0.00    +0.000 C 
ATOM      8  C   UNL     1      52.648   6.589  16.816  0.00  0.00    +0.000 C 
ATOM      9  C   UNL     1      52.770   7.412  18.101  0.00  0.00    +0.000 C 
ATOM     10  C   UNL     1      51.848   6.892  19.207  0.00  0.00    +0.000 C 
ATOM     11  C   UNL     1      50.417   6.673  18.707  0.00  0.00    +0.000 C 
ATOM     12  C   UNL     1      48.808   4.156  18.041  0.00  0.00    +0.000 A 
ENDROOT
BRANCH   3  13
ATOM     13  C   UNL     1      47.004   4.980  14.291  0.00  0.00    +0.000 C 
BRANCH  13  14
ATOM     14  N   UNL     1      46.050   3.947  13.874  0.00  0.00    +0.000 N 
ATOM     15  H   UNL     1      45.666   3.420  14.652  0.00  0.00    +0.000 HD
BRANCH  14  16
ATOM     16  C   UNL     1      45.125   4.230  12.866  0.00  0.00    +0.000 A 
ATOM     17  C   UNL     1      44.475   5.459  12.740  0.00  0.00    +0.000 A 
ATOM     18  C   UNL     1      43.628   5.677  11.662  0.00  0.00    +0.000 A 
ATOM     19  N   UNL     1      43.393   4.770  10.695  0.00  0.00    +0.000 NA
ATOM     20  C   UNL     1      44.062   3.605  10.801  0.00  0.00    +0.000 A 
ATOM     21  C   UNL     1      44.931   3.302  11.840  0.00  0.00    +0.000 A 
ENDBRANCH  14  16
ENDBRANCH  13  14
ENDBRANCH   3  13
TORSDOF 3
ENDMDL
MODEL 8
REMARK VINA RESULT:    -5.254      4.375      7.306
REMARK INTER + INTRA:          -6.542
REMARK INTER:                  -6.164
REMARK INTRA:                  -0.378
REMARK UNBOUND:                -0.367
REMARK  Name = 
REMARK  3 active torsions:
REMARK  status: ('A' for Active; 'I' for Inactive)
REMARK    1  A    between atoms: C_3  and  C_4
REMARK    2  A    between atoms: C_4  and  N_5
REMARK    3  A    between atoms: N_5  and  C_6
REMARK                            x       y       z     vdW  Elec       q    Type
REMARK                         _______ _______ _______ _____ _____    ______ ____
ROOT
ATOM      1  C   UNL     1      45.925   5.937  11.785  0.00  0.00    +0.000 A 
ATOM      2  C   UNL     1      45.910   4.929  12.738  0.00  0.00    +0.000 A 
ATOM      3  C   UNL     1      47.001   4.807  13.589  0.00  0.00    +0.000 A 
ATOM      4  N   UNL     1      48.063   5.656  13.538  0.00  0.00    +0.000 NA
ATOM      5  C   UNL     1      48.070   6.649  12.628  0.00  0.00    +0.000 A 
ATOM      6  N   UNL     1      49.081   7.612  12.653  0.00  0.00    +0.000 N 
ATOM      7  C   UNL     1      49.824   7.687  13.914  0.00  0.00    +0.000 C 
ATOM      8  C   UNL     1      50.465   9.073  13.983  0.00  0.00    +0.000 C 
ATOM      9  C   UNL     1      51.346   9.346  12.761  0.00  0.00    +0.000 C 
ATOM     10  C   UNL     1      50.617   9.045  11.448  0.00  0.00    +0.000 C 
ATOM     11  C   UNL     1      49.939   7.672  11.469  0.00  0.00    +0.000 C 
ATOM     12  C   UNL     1      47.017   6.797  11.724  0.00  0.00    +0.000 A 
ENDROOT
BRANCH   3  13
ATOM     13  C   UNL     1      47.057   3.708  14.631  0.00  0.00    +0.000 C 
BRANCH  13  14
ATOM     14  N   UNL     1      46.630   4.192  15.947  0.00  0.00    +0.000 N 
ATOM     15  H   UNL     1      45.698   3.882  16.204  0.00  0.00    +0.000 HD
BRANCH  14  16
ATOM     16  C   UNL     1      47.540   4.200  17.007  0.00  0.00    +0.000 A 
ATOM     17  C   UNL     1      48.702   3.428  17.030  0.00  0.00    +0.000 A 
ATOM     18  C   UNL     1      49.587   3.556  18.092  0.00  0.00    +0.000 A 
ATOM     19  N   UNL     1      49.409   4.406  19.122  0.00  0.00    +0.000 NA
ATOM     20  C   UNL     1      48.307   5.180  19.065  0.00  0.00    +0.000 A 
ATOM     21  C   UNL     1      47.371   5.123  18.042  0.00  0.00    +0.000 A 
ENDBRANCH  14  16
ENDBRANCH  13  14
ENDBRANCH   3  13
TORSDOF 3
ENDMDL
MODEL 9
REMARK VINA RESULT:    -5.128      1.944      3.754
REMARK INTER + INTRA:          -6.394
REMARK INTER:                  -6.307
REMARK INTRA:                  -0.088
REMARK UNBOUND:                -0.367
REMARK  Name = 
REMARK  3 active torsions:
REMARK  status: ('A' for Active; 'I' for Inactive)
REMARK    1  A    between atoms: C_3  and  C_4
REMARK    2  A    between atoms: C_4  and  N_5
REMARK    3  A    between atoms: N_5  and  C_6
REMARK                            x       y       z     vdW  Elec       q    Type
REMARK                         _______ _______ _______ _____ _____    ______ ____
ROOT
ATOM      1  C   UNL     1      45.078   8.544  11.707  0.00  0.00    +0.000 A 
ATOM      2  C   UNL     1      44.305   7.394  11.777  0.00  0.00    +0.000 A 
ATOM      3  C   UNL     1      44.832   6.281  12.421  0.00  0.00    +0.000 A 
ATOM      4  N   UNL     1      46.060   6.291  13.005  0.00  0.00    +0.000 NA
ATOM      5  C   UNL     1      46.803   7.413  12.958  0.00  0.00    +0.000 A 
ATOM      6  N   UNL     1      48.002   7.487  13.671  0.00  0.00    +0.000 N 
ATOM      7  C   UNL     1      48.149   6.483  14.728  0.00  0.00    +0.000 C 
ATOM      8  C   UNL     1      49.180   7.016  15.722  0.00  0.00    +0.000 C 
ATOM      9  C   UNL     1      50.506   7.346  15.033  0.00  0.00    +0.000 C 
ATOM     10  C   UNL     1      50.307   8.219  13.791  0.00  0.00    +0.000 C 
ATOM     11  C   UNL     1      49.214   7.669  12.871  0.00  0.00    +0.000 C 
ATOM     12  C   UNL     1      46.340   8.550  12.295  0.00  0.00    +0.000 A 
ENDROOT
BRANCH   3  13
ATOM     13  C   UNL     1      44.048   4.986  12.503  0.00  0.00    +0.000 C 
BRANCH  13  14
ATOM     14  N   UNL     1      44.843   3.847  12.035  0.00  0.00    +0.000 N 
ATOM     15  H   UNL     1      44.712   3.011  12.596  0.00  0.00    +0.000 HD
BRANCH  14  16
ATOM     16  C   UNL     1      44.953   3.601  10.664  0.00  0.00    +0.000 A 
ATOM     17  C   UNL     1      44.530   2.418  10.057  0.00  0.00    +0.000 A 
ATOM     18  C   UNL     1      44.609   2.291   8.677  0.00  0.00    +0.000 A 
ATOM     19  N   UNL     1      45.064   3.258   7.857  0.00  0.00    +0.000 NA
ATOM     20  C   UNL     1      45.427   4.413   8.449  0.00  0.00    +0.000 A 
ATOM     21  C   UNL     1      45.377   4.631   9.820  0.00  0.00    +0.000 A 
ENDBRANCH  14  16
ENDBRANCH  13  14
ENDBRANCH   3  13
TORSDOF 3
ENDMDL
