MODEL 1
REMARK VINA RESULT:    -8.460      0.000      0.000
REMARK INTER + INTRA:         -12.401
REMARK INTER:                 -11.427
REMARK INTRA:                  -0.974
REMARK UNBOUND:                -0.974
REMARK  Name = 
REMARK  7 active torsions:
REMARK  status: ('A' for Active; 'I' for Inactive)
REMARK    1  A    between atoms: C_1  and  C_2
REMARK    2  A    between atoms: C_2  and  C_3
REMARK    3  A    between atoms: C_2  and  C_15
REMARK    4  A    between atoms: C_3  and  O_4
REMARK    5  A    between atoms: O_4  and  C_5
REMARK    6  A    between atoms: C_8  and  C_9
REMARK    7  A    between atoms: C_19  and  C_20
REMARK                            x       y       z     vdW  Elec       q    Type
REMARK                         _______ _______ _______ _____ _____    ______ ____
ROOT
ATOM      1  O   UNL     1      43.443   3.152  10.277  0.00  0.00    +0.000 OA
ENDROOT
BRANCH   1   2
ATOM      2  C   UNL     1      44.430   3.044   9.339  0.00  0.00    +0.000 A 
ATOM      3  C   UNL     1      44.986   4.102   8.618  0.00  0.00    +0.000 A 
ATOM      4  C   UNL     1      46.004   3.865   7.692  0.00  0.00    +0.000 A 
ATOM      5  C   UNL     1      46.481   2.565   7.475  0.00  0.00    +0.000 A 
ATOM      6  C   UNL     1      45.912   1.514   8.194  0.00  0.00    +0.000 A 
ATOM      7  F   UNL     1      46.328   0.249   8.023  0.00  0.00    +0.000 F 
ATOM      8  C   UNL     1      44.894   1.746   9.118  0.00  0.00    +0.000 A 
BRANCH   5   9
ATOM      9  C   UNL     1      47.576   2.380   6.490  0.00  0.00    +0.000 C 
ATOM     10  N   UNL     1      47.453   2.973   5.268  0.00  0.00    +0.000 N 
ATOM     11  O   UNL     1      48.567   1.708   6.757  0.00  0.00    +0.000 OA
ATOM     12  H   UNL     1      46.648   3.526   5.001  0.00  0.00    +0.000 HD
ATOM     13  H   UNL     1      48.194   2.834   4.598  0.00  0.00    +0.000 HD
ENDBRANCH   5   9
ENDBRANCH   1   2
BRANCH   1  14
ATOM     14  C   UNL     1      43.864   3.190  11.639  0.00  0.00    +0.000 C 
BRANCH  14  16
ATOM     15  C   UNL     1      42.705   5.473  11.845  0.00  0.00    +0.000 C 
ATOM     16  C   UNL     1      43.907   4.619  12.083  0.00  0.00    +0.000 C 
BRANCH  16  17
ATOM     17  C   UNL     1      45.197   5.227  12.434  0.00  0.00    +0.000 A 
ATOM     18  C   UNL     1      45.824   6.117  11.551  0.00  0.00    +0.000 A 
ATOM     19  C   UNL     1      47.072   6.663  11.846  0.00  0.00    +0.000 A 
ATOM     20  C   UNL     1      47.716   6.318  13.031  0.00  0.00    +0.000 A 
ATOM     21  C   UNL     1      47.102   5.439  13.929  0.00  0.00    +0.000 A 
ATOM     22  C   UNL     1      45.842   4.899  13.632  0.00  0.00    +0.000 A 
BRANCH  21  23
ATOM     23  C   UNL     1      47.767   5.075  15.143  0.00  0.00    +0.000 C 
ATOM     24  N   UNL     1      48.306   4.781  16.129  0.00  0.00    +0.000 NA
ENDBRANCH  21  23
ENDBRANCH  16  17
ENDBRANCH  14  16
ENDBRANCH   1  14
TORSDOF 6
ENDMDL
MODEL 2
REMARK VINA RESULT:    -7.967      2.237      2.772
REMARK INTER + INTRA:         -11.736
REMARK INTER:                 -11.043
REMARK INTRA:                  -0.693
REMARK UNBOUND:                -0.974
REMARK  Name = 
REMARK  7 active torsions:
REMARK  status: ('A' for Active; 'I' for Inactive)
REMARK    1  A    between atoms: C_1  and  C_2
REMARK    2  A    between atoms: C_2  and  C_3
REMARK    3  A    between atoms: C_2  and  C_15
REMARK    4  A    between atoms: C_3  and  O_4
REMARK    5  A    between atoms: O_4  and  C_5
REMARK    6  A    between atoms: C_8  and  C_9
REMARK    7  A    between atoms: C_19  and  C_20
REMARK                            x       y       z     vdW  Elec       q    Type
REMARK                         _______ _______ _______ _____ _____    ______ ____
ROOT
ATOM      1  O   UNL     1      43.515   3.641  10.279  0.00  0.00    +0.000 OA
ENDROOT
BRANCH   1   2
ATOM      2  C   UNL     1      44.479   3.395   9.340  0.00  0.00    +0.000 A 
ATOM      3  C   UNL     1      45.103   4.358   8.546  0.00  0.00    +0.000 A 
ATOM      4  C   UNL     1      46.088   3.983   7.629  0.00  0.00    +0.000 A 
ATOM      5  C   UNL     1      46.460   2.639   7.495  0.00  0.00    +0.000 A 
ATOM      6  C   UNL     1      45.823   1.684   8.287  0.00  0.00    +0.000 A 
ATOM      7  F   UNL     1      46.139   0.382   8.197  0.00  0.00    +0.000 F 
ATOM      8  C   UNL     1      44.839   2.054   9.202  0.00  0.00    +0.000 A 
BRANCH   5   9
ATOM      9  C   UNL     1      47.524   2.305   6.514  0.00  0.00    +0.000 C 
ATOM     10  N   UNL     1      47.517   2.947   5.311  0.00  0.00    +0.000 N 
ATOM     11  O   UNL     1      48.388   1.473   6.770  0.00  0.00    +0.000 OA
ATOM     12  H   UNL     1      46.818   3.632   5.053  0.00  0.00    +0.000 HD
ATOM     13  H   UNL     1      48.235   2.707   4.643  0.00  0.00    +0.000 HD
ENDBRANCH   5   9
ENDBRANCH   1   2
BRANCH   1  14
ATOM     14  C   UNL     1      43.505   4.947  10.850  0.00  0.00    +0.000 C 
BRANCH  14  16
ATOM     15  C   UNL     1      44.814   4.035  12.863  0.00  0.00    +0.000 C 
ATOM     16  C   UNL     1      44.663   5.064  11.790  0.00  0.00    +0.000 C 
BRANCH  16  17
ATOM     17  C   UNL     1      45.419   6.322  11.850  0.00  0.00    +0.000 A 
ATOM     18  C   UNL     1      46.816   6.303  11.968  0.00  0.00    +0.000 A 
ATOM     19  C   UNL     1      47.543   7.487  12.077  0.00  0.00    +0.000 A 
ATOM     20  C   UNL     1      46.879   8.711  12.077  0.00  0.00    +0.000 A 
ATOM     21  C   UNL     1      45.487   8.749  11.951  0.00  0.00    +0.000 A 
ATOM     22  C   UNL     1      44.760   7.556  11.832  0.00  0.00    +0.000 A 
BRANCH  21  23
ATOM     23  C   UNL     1      44.802  10.006  11.961  0.00  0.00    +0.000 C 
ATOM     24  N   UNL     1      44.245  11.025  11.967  0.00  0.00    +0.000 NA
ENDBRANCH  21  23
ENDBRANCH  16  17
ENDBRANCH  14  16
ENDBRANCH   1  14
TORSDOF 6
ENDMDL
MODEL 3
REMARK VINA RESULT:    -7.757      1.171      1.425
REMARK INTER + INTRA:         -11.451
REMARK INTER:                 -10.785
REMARK INTRA:                  -0.666
REMARK UNBOUND:                -0.974
REMARK  Name = 
REMARK  7 active torsions:
REMARK  status: ('A' for Active; 'I' for Inactive)
REMARK    1  A    between atoms: C_1  and  C_2
REMARK    2  A    between atoms: C_2  and  C_3
REMARK    3  A    between atoms: C_2  and  C_15
REMARK    4  A    between atoms: C_3  and  O_4
REMARK    5  A    between atoms: O_4  and  C_5
REMARK    6  A    between atoms: C_8  and  C_9
REMARK    7  A    between atoms: C_19  and  C_20
REMARK                            x       y       z     vdW  Elec       q    Type
REMARK                         _______ _______ _______ _____ _____    ______ ____
ROOT
ATOM      1  O   UNL     1      43.546   3.704  10.195  0.00  0.00    +0.000 OA
ENDROOT
BRANCH   1   2
ATOM      2  C   UNL     1      44.545   3.433   9.303  0.00  0.00    +0.000 A 
ATOM      3  C   UNL     1      45.261   4.382   8.572  0.00  0.00    +0.000 A 
ATOM      4  C   UNL     1      46.273   3.978   7.697  0.00  0.00    +0.000 A 
ATOM      5  C   UNL     1      46.582   2.620   7.543  0.00  0.00    +0.000 A 
ATOM      6  C   UNL     1      45.853   1.680   8.271  0.00  0.00    +0.000 A 
ATOM      7  F   UNL     1      46.105   0.366   8.158  0.00  0.00    +0.000 F 
ATOM      8  C   UNL     1      44.841   2.078   9.143  0.00  0.00    +0.000 A 
BRANCH   5   9
ATOM      9  C   UNL     1      47.679   2.257   6.610  0.00  0.00    +0.000 C 
ATOM     10  N   UNL     1      47.802   2.964   5.451  0.00  0.00    +0.000 N 
ATOM     11  O   UNL     1      48.455   1.343   6.866  0.00  0.00    +0.000 OA
ATOM     12  H   UNL     1      47.177   3.718   5.194  0.00  0.00    +0.000 HD
ATOM     13  H   UNL     1      48.541   2.705   4.815  0.00  0.00    +0.000 HD
ENDBRANCH   5   9
ENDBRANCH   1   2
BRANCH   1  14
ATOM     14  C   UNL     1      43.620   4.960  10.867  0.00  0.00    +0.000 C 
BRANCH  14  16
ATOM     15  C   UNL     1      44.615   3.648  12.839  0.00  0.00    +0.000 C 
ATOM     16  C   UNL     1      44.639   4.854  11.959  0.00  0.00    +0.000 C 
BRANCH  16  17
ATOM     17  C   UNL     1      45.408   6.045  12.343  0.00  0.00    +0.000 A 
ATOM     18  C   UNL     1      44.980   7.321  11.953  0.00  0.00    +0.000 A 
ATOM     19  C   UNL     1      45.726   8.456  12.267  0.00  0.00    +0.000 A 
ATOM     20  C   UNL     1      46.919   8.328  12.973  0.00  0.00    +0.000 A 
ATOM     21  C   UNL     1      47.357   7.063  13.379  0.00  0.00    +0.000 A 
ATOM     22  C   UNL     1      46.599   5.925  13.069  0.00  0.00    +0.000 A 
BRANCH  21  23
ATOM     23  C   UNL     1      48.589   6.929  14.095  0.00  0.00    +0.000 C 
ATOM     24  N   UNL     1      49.589   6.821  14.675  0.00  0.00    +0.000 NA
ENDBRANCH  21  23
ENDBRANCH  16  17
ENDBRANCH  14  16
ENDBRANCH   1  14
TORSDOF 6
ENDMDL
MODEL 4
REMARK VINA RESULT:    -7.698      3.139      6.276
REMARK INTER + INTRA:         -11.372
REMARK INTER:                 -10.339
REMARK INTRA:                  -1.033
REMARK UNBOUND:                -0.974
REMARK  Name = 
REMARK  7 active torsions:
REMARK  status: ('A' for Active; 'I' for Inactive)
REMARK    1  A    between atoms: C_1  and  C_2
REMARK    2  A    between atoms: C_2  and  C_3
REMARK    3  A    between atoms: C_2  and  C_15
REMARK    4  A    between atoms: C_3  and  O_4
REMARK    5  A    between atoms: O_4  and  C_5
REMARK    6  A    between atoms: C_8  and  C_9
REMARK    7  A    between atoms: C_19  and  C_20
REMARK                            x       y       z     vdW  Elec       q    Type
REMARK                         _______ _______ _______ _____ _____    ______ ____
ROOT
ATOM      1  O   UNL     1      43.506   5.286  12.551  0.00  0.00    +0.000 OA
ENDROOT
BRANCH   1   2
ATOM      2  C   UNL     1      44.819   5.588  12.780  0.00  0.00    +0.000 A 
ATOM      3  C   UNL     1      45.727   4.789  13.476  0.00  0.00    +0.000 A 
ATOM      4  C   UNL     1      47.052   5.203  13.632  0.00  0.00    +0.000 A 
ATOM      5  C   UNL     1      47.486   6.421  13.093  0.00  0.00    +0.000 A 
ATOM      6  C   UNL     1      46.568   7.216  12.407  0.00  0.00    +0.000 A 
ATOM      7  F   UNL     1      46.929   8.394  11.873  0.00  0.00    +0.000 F 
ATOM      8  C   UNL     1      45.244   6.808  12.251  0.00  0.00    +0.000 A 
BRANCH   5   9
ATOM      9  C   UNL     1      48.911   6.797  13.278  0.00  0.00    +0.000 C 
ATOM     10  N   UNL     1      49.666   7.035  12.168  0.00  0.00    +0.000 N 
ATOM     11  O   UNL     1      49.404   6.889  14.397  0.00  0.00    +0.000 OA
ATOM     12  H   UNL     1      49.303   6.960  11.226  0.00  0.00    +0.000 HD
ATOM     13  H   UNL     1      50.637   7.278  12.300  0.00  0.00    +0.000 HD
ENDBRANCH   5   9
ENDBRANCH   1   2
BRANCH   1  14
ATOM     14  C   UNL     1      43.146   5.006  11.199  0.00  0.00    +0.000 C 
BRANCH  14  16
ATOM     15  C   UNL     1      43.380   2.520  11.800  0.00  0.00    +0.000 C 
ATOM     16  C   UNL     1      43.645   3.640  10.848  0.00  0.00    +0.000 C 
BRANCH  16  17
ATOM     17  C   UNL     1      44.636   3.488   9.774  0.00  0.00    +0.000 A 
ATOM     18  C   UNL     1      45.109   4.613   9.084  0.00  0.00    +0.000 A 
ATOM     19  C   UNL     1      46.011   4.481   8.030  0.00  0.00    +0.000 A 
ATOM     20  C   UNL     1      46.448   3.216   7.645  0.00  0.00    +0.000 A 
ATOM     21  C   UNL     1      45.994   2.084   8.329  0.00  0.00    +0.000 A 
ATOM     22  C   UNL     1      45.094   2.221   9.395  0.00  0.00    +0.000 A 
BRANCH  21  23
ATOM     23  C   UNL     1      46.434   0.782   7.928  0.00  0.00    +0.000 C 
ATOM     24  N   UNL     1      46.790  -0.274   7.601  0.00  0.00    +0.000 NA
ENDBRANCH  21  23
ENDBRANCH  16  17
ENDBRANCH  14  16
ENDBRANCH   1  14
TORSDOF 6
ENDMDL
MODEL 5
REMARK VINA RESULT:    -6.866      3.632      6.847
REMARK INTER + INTRA:         -10.248
REMARK INTER:                  -9.381
REMARK INTRA:                  -0.867
REMARK UNBOUND:                -0.974
REMARK  Name = 
REMARK  7 active torsions:
REMARK  status: ('A' for Active; 'I' for Inactive)
REMARK    1  A    between atoms: C_1  and  C_2
REMARK    2  A    between atoms: C_2  and  C_3
REMARK    3  A    between atoms: C_2  and  C_15
REMARK    4  A    between atoms: C_3  and  O_4
REMARK    5  A    between atoms: O_4  and  C_5
REMARK    6  A    between atoms: C_8  and  C_9
REMARK    7  A    between atoms: C_19  and  C_20
REMARK                            x       y       z     vdW  Elec       q    Type
REMARK                         _______ _______ _______ _____ _____    ______ ____
ROOT
ATOM      1  O   UNL     1      44.633   5.186  12.573  0.00  0.00    +0.000 OA
ENDROOT
BRANCH   1   2
ATOM      2  C   UNL     1      45.509   6.234  12.544  0.00  0.00    +0.000 A 
ATOM      3  C   UNL     1      46.900   6.130  12.486  0.00  0.00    +0.000 A 
ATOM      4  C   UNL     1      47.691   7.281  12.447  0.00  0.00    +0.000 A 
ATOM      5  C   UNL     1      47.101   8.551  12.465  0.00  0.00    +0.000 A 
ATOM      6  C   UNL     1      45.711   8.644  12.532  0.00  0.00    +0.000 A 
ATOM      7  F   UNL     1      45.094   9.836  12.555  0.00  0.00    +0.000 F 
ATOM      8  C   UNL     1      44.918   7.498  12.573  0.00  0.00    +0.000 A 
BRANCH   5   9
ATOM      9  C   UNL     1      47.995   9.735  12.404  0.00  0.00    +0.000 C 
ATOM     10  N   UNL     1      48.049  10.560  13.489  0.00  0.00    +0.000 N 
ATOM     11  O   UNL     1      48.667   9.975  11.407  0.00  0.00    +0.000 OA
ATOM     12  H   UNL     1      47.503  10.407  14.328  0.00  0.00    +0.000 HD
ATOM     13  H   UNL     1      48.648  11.370  13.437  0.00  0.00    +0.000 HD
ENDBRANCH   5   9
ENDBRANCH   1   2
BRANCH   1  14
ATOM     14  C   UNL     1      43.743   5.074  11.465  0.00  0.00    +0.000 C 
BRANCH  14  16
ATOM     15  C   UNL     1      43.371   2.538  11.641  0.00  0.00    +0.000 C 
ATOM     16  C   UNL     1      43.893   3.707  10.872  0.00  0.00    +0.000 C 
BRANCH  16  17
ATOM     17  C   UNL     1      44.809   3.509   9.741  0.00  0.00    +0.000 A 
ATOM     18  C   UNL     1      45.246   4.605   8.984  0.00  0.00    +0.000 A 
ATOM     19  C   UNL     1      46.075   4.428   7.878  0.00  0.00    +0.000 A 
ATOM     20  C   UNL     1      46.473   3.146   7.508  0.00  0.00    +0.000 A 
ATOM     21  C   UNL     1      46.054   2.042   8.257  0.00  0.00    +0.000 A 
ATOM     22  C   UNL     1      45.228   2.225   9.375  0.00  0.00    +0.000 A 
BRANCH  21  23
ATOM     23  C   UNL     1      46.455   0.723   7.872  0.00  0.00    +0.000 C 
ATOM     24  N   UNL     1      46.778  -0.348   7.558  0.00  0.00    +0.000 NA
ENDBRANCH  21  23
ENDBRANCH  16  17
ENDBRANCH  14  16
ENDBRANCH   1  14
TORSDOF 6
ENDMDL
MODEL 6
REMARK VINA RESULT:    -6.591      1.551      2.015
REMARK INTER + INTRA:          -9.876
REMARK INTER:                  -9.045
REMARK INTRA:                  -0.832
REMARK UNBOUND:                -0.974
REMARK  Name = 
REMARK  7 active torsions:
REMARK  status: ('A' for Active; 'I' for Inactive)
REMARK    1  A    between atoms: C_1  and  C_2
REMARK    2  A    between atoms: C_2  and  C_3
REMARK    3  A    between atoms: C_2  and  C_15
REMARK    4  A    between atoms: C_3  and  O_4
REMARK    5  A    between atoms: O_4  and  C_5
REMARK    6  A    between atoms: C_8  and  C_9
REMARK    7  A    between atoms: C_19  and  C_20
REMARK                            x       y       z     vdW  Elec       q    Type
REMARK                         _______ _______ _______ _____ _____    ______ ____
ROOT
ATOM      1  O   UNL     1      44.291   4.921  10.940  0.00  0.00    +0.000 OA
ENDROOT
BRANCH   1   2
ATOM      2  C   UNL     1      44.943   4.365   9.876  0.00  0.00    +0.000 A 
ATOM      3  C   UNL     1      45.699   5.062   8.932  0.00  0.00    +0.000 A 
ATOM      4  C   UNL     1      46.333   4.376   7.893  0.00  0.00    +0.000 A 
ATOM      5  C   UNL     1      46.218   2.984   7.785  0.00  0.00    +0.000 A 
ATOM      6  C   UNL     1      45.453   2.299   8.728  0.00  0.00    +0.000 A 
ATOM      7  F   UNL     1      45.307   0.965   8.670  0.00  0.00    +0.000 F 
ATOM      8  C   UNL     1      44.817   2.979   9.765  0.00  0.00    +0.000 A 
BRANCH   5   9
ATOM      9  C   UNL     1      46.929   2.312   6.667  0.00  0.00    +0.000 C 
ATOM     10  N   UNL     1      47.958   1.470   6.970  0.00  0.00    +0.000 N 
ATOM     11  O   UNL     1      46.608   2.506   5.500  0.00  0.00    +0.000 OA
ATOM     12  H   UNL     1      48.264   1.289   7.918  0.00  0.00    +0.000 HD
ATOM     13  H   UNL     1      48.445   1.025   6.206  0.00  0.00    +0.000 HD
ENDBRANCH   5   9
ENDBRANCH   1   2
BRANCH   1  14
ATOM     14  C   UNL     1      45.074   5.167  12.106  0.00  0.00    +0.000 C 
BRANCH  14  16
ATOM     15  C   UNL     1      44.591   7.614  11.492  0.00  0.00    +0.000 C 
ATOM     16  C   UNL     1      45.508   6.600  12.092  0.00  0.00    +0.000 C 
BRANCH  16  17
ATOM     17  C   UNL     1      46.915   6.930  12.358  0.00  0.00    +0.000 A 
ATOM     18  C   UNL     1      47.718   7.474  11.346  0.00  0.00    +0.000 A 
ATOM     19  C   UNL     1      49.067   7.745  11.569  0.00  0.00    +0.000 A 
ATOM     20  C   UNL     1      49.634   7.468  12.809  0.00  0.00    +0.000 A 
ATOM     21  C   UNL     1      48.846   6.934  13.833  0.00  0.00    +0.000 A 
ATOM     22  C   UNL     1      47.487   6.671  13.609  0.00  0.00    +0.000 A 
BRANCH  21  23
ATOM     23  C   UNL     1      49.430   6.640  15.106  0.00  0.00    +0.000 C 
ATOM     24  N   UNL     1      49.907   6.399  16.138  0.00  0.00    +0.000 NA
ENDBRANCH  21  23
ENDBRANCH  16  17
ENDBRANCH  14  16
ENDBRANCH   1  14
TORSDOF 6
ENDMDL
MODEL 7
REMARK VINA RESULT:    -6.223      3.352      7.339
REMARK INTER + INTRA:          -9.379
REMARK INTER:                  -8.730
REMARK INTRA:                  -0.649
REMARK UNBOUND:                -0.974
REMARK  Name = 
REMARK  7 active torsions:
REMARK  status: ('A' for Active; 'I' for Inactive)
REMARK    1  A    between atoms: C_1  and  C_2
REMARK    2  A    between atoms: C_2  and  C_3
REMARK    3  A    between atoms: C_2  and  C_15
REMARK    4  A    between atoms: C_3  and  O_4
REMARK    5  A    between atoms: O_4  and  C_5
REMARK    6  A    between atoms: C_8  and  C_9
REMARK    7  A    between atoms: C_19  and  C_20
REMARK                            x       y       z     vdW  Elec       q    Type
REMARK                         _______ _______ _______ _____ _____    ______ ____
ROOT
ATOM      1  O   UNL     1      45.816   3.853  13.208  0.00  0.00    +0.000 OA
ENDROOT
BRANCH   1   2
ATOM      2  C   UNL     1      46.665   4.564  14.008  0.00  0.00    +0.000 A 
ATOM      3  C   UNL     1      47.016   4.234  15.318  0.00  0.00    +0.000 A 
ATOM      4  C   UNL     1      47.909   5.038  16.031  0.00  0.00    +0.000 A 
ATOM      5  C   UNL     1      48.463   6.182  15.443  0.00  0.00    +0.000 A 
ATOM      6  C   UNL     1      48.098   6.508  14.136  0.00  0.00    +0.000 A 
ATOM      7  F   UNL     1      48.597   7.595  13.526  0.00  0.00    +0.000 F 
ATOM      8  C   UNL     1      47.206   5.710  13.422  0.00  0.00    +0.000 A 
BRANCH   5   9
ATOM      9  C   UNL     1      49.418   6.986  16.247  0.00  0.00    +0.000 C 
ATOM     10  N   UNL     1      50.657   6.469  16.483  0.00  0.00    +0.000 N 
ATOM     11  O   UNL     1      49.107   8.084  16.694  0.00  0.00    +0.000 OA
ATOM     12  H   UNL     1      50.953   5.562  16.143  0.00  0.00    +0.000 HD
ATOM     13  H   UNL     1      51.298   7.014  17.041  0.00  0.00    +0.000 HD
ENDBRANCH   5   9
ENDBRANCH   1   2
BRANCH   1  14
ATOM     14  C   UNL     1      44.980   4.612  12.337  0.00  0.00    +0.000 C 
BRANCH  14  16
ATOM     15  C   UNL     1      43.327   2.736  11.751  0.00  0.00    +0.000 C 
ATOM     16  C   UNL     1      44.393   3.687  11.317  0.00  0.00    +0.000 C 
BRANCH  16  17
ATOM     17  C   UNL     1      45.077   3.505  10.030  0.00  0.00    +0.000 A 
ATOM     18  C   UNL     1      45.296   4.601   9.184  0.00  0.00    +0.000 A 
ATOM     19  C   UNL     1      45.898   4.437   7.938  0.00  0.00    +0.000 A 
ATOM     20  C   UNL     1      46.284   3.168   7.516  0.00  0.00    +0.000 A 
ATOM     21  C   UNL     1      46.083   2.064   8.351  0.00  0.00    +0.000 A 
ATOM     22  C   UNL     1      45.485   2.235   9.608  0.00  0.00    +0.000 A 
BRANCH  21  23
ATOM     23  C   UNL     1      46.471   0.757   7.915  0.00  0.00    +0.000 C 
ATOM     24  N   UNL     1      46.784  -0.304   7.564  0.00  0.00    +0.000 NA
ENDBRANCH  21  23
ENDBRANCH  16  17
ENDBRANCH  14  16
ENDBRANCH   1  14
TORSDOF 6
ENDMDL
MODEL 8
REMARK VINA RESULT:    -6.137      3.893      8.027
REMARK INTER + INTRA:          -9.263
REMARK INTER:                  -8.299
REMARK INTRA:                  -0.964
REMARK UNBOUND:                -0.974
REMARK  Name = 
REMARK  7 active torsions:
REMARK  status: ('A' for Active; 'I' for Inactive)
REMARK    1  A    between atoms: C_1  and  C_2
REMARK    2  A    between atoms: C_2  and  C_3
REMARK    3  A    between atoms: C_2  and  C_15
REMARK    4  A    between atoms: C_3  and  O_4
REMARK    5  A    between atoms: O_4  and  C_5
REMARK    6  A    between atoms: C_8  and  C_9
REMARK    7  A    between atoms: C_19  and  C_20
REMARK                            x       y       z     vdW  Elec       q    Type
REMARK                         _______ _______ _______ _____ _____    ______ ____
ROOT
ATOM      1  O   UNL     1      47.611   5.191  13.500  0.00  0.00    +0.000 OA
ENDROOT
BRANCH   1   2
ATOM      2  C   UNL     1      47.788   5.202  14.855  0.00  0.00    +0.000 A 
ATOM      3  C   UNL     1      48.460   6.188  15.579  0.00  0.00    +0.000 A 
ATOM      4  C   UNL     1      48.563   6.094  16.969  0.00  0.00    +0.000 A 
ATOM      5  C   UNL     1      47.993   5.012  17.653  0.00  0.00    +0.000 A 
ATOM      6  C   UNL     1      47.331   4.027  16.919  0.00  0.00    +0.000 A 
ATOM      7  F   UNL     1      46.770   2.968  17.523  0.00  0.00    +0.000 F 
ATOM      8  C   UNL     1      47.228   4.117  15.531  0.00  0.00    +0.000 A 
BRANCH   5   9
ATOM      9  C   UNL     1      48.122   4.977  19.132  0.00  0.00    +0.000 C 
ATOM     10  N   UNL     1      47.170   5.606  19.878  0.00  0.00    +0.000 N 
ATOM     11  O   UNL     1      49.059   4.404  19.676  0.00  0.00    +0.000 OA
ATOM     12  H   UNL     1      46.385   6.101  19.471  0.00  0.00    +0.000 HD
ATOM     13  H   UNL     1      47.269   5.590  20.882  0.00  0.00    +0.000 HD
ENDBRANCH   5   9
ENDBRANCH   1   2
BRANCH   1  14
ATOM     14  C   UNL     1      47.754   6.443  12.832  0.00  0.00    +0.000 C 
BRANCH  14  16
ATOM     15  C   UNL     1      46.052   8.344  13.127  0.00  0.00    +0.000 C 
ATOM     16  C   UNL     1      46.390   7.000  12.570  0.00  0.00    +0.000 C 
BRANCH  16  17
ATOM     17  C   UNL     1      45.332   6.112  12.069  0.00  0.00    +0.000 A 
ATOM     18  C   UNL     1      44.239   5.785  12.884  0.00  0.00    +0.000 A 
ATOM     19  C   UNL     1      43.253   4.904  12.442  0.00  0.00    +0.000 A 
ATOM     20  C   UNL     1      43.352   4.330  11.177  0.00  0.00    +0.000 A 
ATOM     21  C   UNL     1      44.431   4.652  10.348  0.00  0.00    +0.000 A 
ATOM     22  C   UNL     1      45.416   5.546  10.792  0.00  0.00    +0.000 A 
BRANCH  21  23
ATOM     23  C   UNL     1      44.540   4.056   9.052  0.00  0.00    +0.000 C 
ATOM     24  N   UNL     1      44.630   3.571   8.000  0.00  0.00    +0.000 NA
ENDBRANCH  21  23
ENDBRANCH  16  17
ENDBRANCH  14  16
ENDBRANCH   1  14
TORSDOF 6
ENDMDL
MODEL 9
REMARK VINA RESULT:    -5.954      4.070      6.014
REMARK INTER + INTRA:          -9.016
REMARK INTER:                  -8.098
REMARK INTRA:                  -0.917
REMARK UNBOUND:                -0.974
REMARK  Name = 
REMARK  7 active torsions:
REMARK  status: ('A' for Active; 'I' for Inactive)
REMARK    1  A    between atoms: C_1  and  C_2
REMARK    2  A    between atoms: C_2  and  C_3
REMARK    3  A    between atoms: C_2  and  C_15
REMARK    4  A    between atoms: C_3  and  O_4
REMARK    5  A    between atoms: O_4  and  C_5
REMARK    6  A    between atoms: C_8  and  C_9
REMARK    7  A    between atoms: C_19  and  C_20
REMARK                            x       y       z     vdW  Elec       q    Type
REMARK                         _______ _______ _______ _____ _____    ______ ____
ROOT
ATOM      1  O   UNL     1      48.894   6.262  13.279  0.00  0.00    +0.000 OA
ENDROOT
BRANCH   1   2
ATOM      2  C   UNL     1      47.647   6.199  12.724  0.00  0.00    +0.000 A 
ATOM      3  C   UNL     1      47.156   7.049  11.732  0.00  0.00    +0.000 A 
ATOM      4  C   UNL     1      45.862   6.874  11.233  0.00  0.00    +0.000 A 
ATOM      5  C   UNL     1      45.043   5.847  11.722  0.00  0.00    +0.000 A 
ATOM      6  C   UNL     1      45.541   5.010  12.720  0.00  0.00    +0.000 A 
ATOM      7  F   UNL     1      44.798   4.013  13.226  0.00  0.00    +0.000 F 
ATOM      8  C   UNL     1      46.830   5.182  13.222  0.00  0.00    +0.000 A 
BRANCH   5   9
ATOM      9  C   UNL     1      43.685   5.703  11.140  0.00  0.00    +0.000 C 
ATOM     10  N   UNL     1      42.814   6.745  11.267  0.00  0.00    +0.000 N 
ATOM     11  O   UNL     1      43.345   4.676  10.562  0.00  0.00    +0.000 OA
ATOM     12  H   UNL     1      43.048   7.606  11.745  0.00  0.00    +0.000 HD
ATOM     13  H   UNL     1      41.888   6.637  10.881  0.00  0.00    +0.000 HD
ENDBRANCH   5   9
ENDBRANCH   1   2
BRANCH   1  14
ATOM     14  C   UNL     1      49.279   7.518  13.834  0.00  0.00    +0.000 C 
BRANCH  14  16
ATOM     15  C   UNL     1      48.447   8.850  15.866  0.00  0.00    +0.000 C 
ATOM     16  C   UNL     1      48.871   7.546  15.273  0.00  0.00    +0.000 C 
BRANCH  16  17
ATOM     17  C   UNL     1      49.195   6.403  16.137  0.00  0.00    +0.000 A 
ATOM     18  C   UNL     1      50.499   6.231  16.624  0.00  0.00    +0.000 A 
ATOM     19  C   UNL     1      50.834   5.125  17.403  0.00  0.00    +0.000 A 
ATOM     20  C   UNL     1      49.867   4.168  17.701  0.00  0.00    +0.000 A 
ATOM     21  C   UNL     1      48.560   4.329  17.232  0.00  0.00    +0.000 A 
ATOM     22  C   UNL     1      48.224   5.448  16.457  0.00  0.00    +0.000 A 
BRANCH  21  23
ATOM     23  C   UNL     1      47.567   3.341  17.529  0.00  0.00    +0.000 C 
ATOM     24  N   UNL     1      46.760   2.541  17.771  0.00  0.00    +0.000 NA
ENDBRANCH  21  23
ENDBRANCH  16  17
ENDBRANCH  14  16
ENDBRANCH   1  14
TORSDOF 6
ENDMDL
