MODEL 1
REMARK VINA RESULT:    -8.102      0.000      0.000
REMARK INTER + INTRA:         -12.360
REMARK INTER:                 -11.655
REMARK INTRA:                  -0.706
REMARK UNBOUND:                -0.706
REMARK  Name = 
REMARK  8 active torsions:
REMARK  status: ('A' for Active; 'I' for Inactive)
REMARK    1  A    between atoms: C_2  and  C_21
REMARK    2  A    between atoms: N_3  and  C_4
REMARK    3  A    between atoms: C_4  and  C_5
REMARK    4  A    between atoms: C_8  and  C_9
REMARK    5  A    between atoms: C_9  and  C_10
REMARK    6  A    between atoms: C_9  and  C_12
REMARK    7  A    between atoms: C_10  and  O_11
REMARK    8  A    between atoms: C_12  and  C_13
REMARK                            x       y       z     vdW  Elec       q    Type
REMARK                         _______ _______ _______ _____ _____    ______ ____
ROOT
ATOM      1  C   UNL     1      46.406   6.495  12.343  0.00  0.00    +0.000 A 
ATOM      2  C   UNL     1      45.551   5.565  12.922  0.00  0.00    +0.000 A 
ATOM      3  N   UNL     1      44.799   4.697  12.198  0.00  0.00    +0.000 NA
ATOM      4  C   UNL     1      44.894   4.808  10.847  0.00  0.00    +0.000 A 
ATOM      5  C   UNL     1      45.716   5.775  10.274  0.00  0.00    +0.000 A 
ATOM      6  N   UNL     1      46.485   6.621  10.995  0.00  0.00    +0.000 NA
ENDROOT
BRANCH   1   7
ATOM      7  C   UNL     1      47.228   7.427  13.188  0.00  0.00    +0.000 C 
BRANCH   7  10
ATOM      8  O   UNL     1      49.782   6.983  14.146  0.00  0.00    +0.000 OA
ATOM      9  C   UNL     1      48.840   6.740  14.895  0.00  0.00    +0.000 C 
ATOM     10  N   UNL     1      47.538   6.845  14.474  0.00  0.00    +0.000 N 
ATOM     11  H   UNL     1      46.802   6.894  15.173  0.00  0.00    +0.000 HD
BRANCH   9  12
ATOM     12  C   UNL     1      49.055   6.279  16.271  0.00  0.00    +0.000 A 
ATOM     13  C   UNL     1      49.725   7.094  17.173  0.00  0.00    +0.000 A 
ATOM     14  S   UNL     1      49.883   6.408  18.726  0.00  0.00    +0.000 S 
ATOM     15  C   UNL     1      49.019   5.018  18.261  0.00  0.00    +0.000 A 
ATOM     16  N   UNL     1      48.756   4.029  19.158  0.00  0.00    +0.000 NA
ATOM     17  C   UNL     1      48.064   3.047  18.679  0.00  0.00    +0.000 A 
ATOM     18  N   UNL     1      47.624   2.961  17.386  0.00  0.00    +0.000 N 
ATOM     19  C   UNL     1      47.915   3.908  16.433  0.00  0.00    +0.000 A 
ATOM     20  O   UNL     1      47.588   3.756  15.262  0.00  0.00    +0.000 OA
ATOM     21  C   UNL     1      48.653   5.056  16.929  0.00  0.00    +0.000 A 
ATOM     22  H   UNL     1      47.108   2.154  17.067  0.00  0.00    +0.000 HD
ENDBRANCH   9  12
ENDBRANCH   7  10
ENDBRANCH   1   7
BRANCH   4  23
ATOM     23  C   UNL     1      44.129   3.823   9.976  0.00  0.00    +0.000 C 
BRANCH  23  24
ATOM     24  C   UNL     1      44.175   2.404  10.588  0.00  0.00    +0.000 C 
BRANCH  24  25
ATOM     25  O   UNL     1      43.134   2.179  11.533  0.00  0.00    +0.000 OA
ATOM     26  H   UNL     1      43.327   2.784  12.283  0.00  0.00    +0.000 HD
ENDBRANCH  24  25
ENDBRANCH  23  24
BRANCH  23  27
ATOM     27  C   UNL     1      44.636   3.802   8.512  0.00  0.00    +0.000 C 
BRANCH  27  28
ATOM     28  C   UNL     1      45.897   2.954   8.243  0.00  0.00    +0.000 C 
ATOM     29  C   UNL     1      46.686   3.399   7.003  0.00  0.00    +0.000 C 
ATOM     30  C   UNL     1      47.891   2.486   6.796  0.00  0.00    +0.000 C 
ATOM     31  O   UNL     1      47.471   1.133   6.643  0.00  0.00    +0.000 OA
ATOM     32  C   UNL     1      46.789   0.644   7.797  0.00  0.00    +0.000 C 
ATOM     33  C   UNL     1      45.534   1.468   8.076  0.00  0.00    +0.000 C 
ENDBRANCH  27  28
ENDBRANCH  23  27
ENDBRANCH   4  23
TORSDOF 8
ENDMDL
MODEL 2
REMARK VINA RESULT:    -8.078      1.726      2.089
REMARK INTER + INTRA:         -12.325
REMARK INTER:                 -11.235
REMARK INTRA:                  -1.090
REMARK UNBOUND:                -0.706
REMARK  Name = 
REMARK  8 active torsions:
REMARK  status: ('A' for Active; 'I' for Inactive)
REMARK    1  A    between atoms: C_2  and  C_21
REMARK    2  A    between atoms: N_3  and  C_4
REMARK    3  A    between atoms: C_4  and  C_5
REMARK    4  A    between atoms: C_8  and  C_9
REMARK    5  A    between atoms: C_9  and  C_10
REMARK    6  A    between atoms: C_9  and  C_12
REMARK    7  A    between atoms: C_10  and  O_11
REMARK    8  A    between atoms: C_12  and  C_13
REMARK                            x       y       z     vdW  Elec       q    Type
REMARK                         _______ _______ _______ _____ _____    ______ ____
ROOT
ATOM      1  C   UNL     1      47.255   6.333  13.139  0.00  0.00    +0.000 A 
ATOM      2  C   UNL     1      46.545   5.214  13.555  0.00  0.00    +0.000 A 
ATOM      3  N   UNL     1      45.458   4.739  12.895  0.00  0.00    +0.000 NA
ATOM      4  C   UNL     1      45.064   5.448  11.805  0.00  0.00    +0.000 A 
ATOM      5  C   UNL     1      45.752   6.597  11.424  0.00  0.00    +0.000 A 
ATOM      6  N   UNL     1      46.851   7.055  12.065  0.00  0.00    +0.000 NA
ENDROOT
BRANCH   1   7
ATOM      7  C   UNL     1      48.461   6.814  13.898  0.00  0.00    +0.000 C 
BRANCH   7  10
ATOM      8  O   UNL     1      50.314   6.240  15.866  0.00  0.00    +0.000 OA
ATOM      9  C   UNL     1      49.214   6.656  16.220  0.00  0.00    +0.000 C 
ATOM     10  N   UNL     1      48.204   6.881  15.318  0.00  0.00    +0.000 N 
ATOM     11  H   UNL     1      47.418   7.460  15.600  0.00  0.00    +0.000 HD
BRANCH   9  12
ATOM     12  C   UNL     1      48.903   6.894  17.634  0.00  0.00    +0.000 A 
ATOM     13  C   UNL     1      48.639   8.183  18.073  0.00  0.00    +0.000 A 
ATOM     14  S   UNL     1      48.292   8.279  19.740  0.00  0.00    +0.000 S 
ATOM     15  C   UNL     1      48.437   6.594  19.924  0.00  0.00    +0.000 A 
ATOM     16  N   UNL     1      48.213   6.002  21.129  0.00  0.00    +0.000 NA
ATOM     17  C   UNL     1      48.326   4.714  21.119  0.00  0.00    +0.000 A 
ATOM     18  N   UNL     1      48.653   3.969  20.018  0.00  0.00    +0.000 N 
ATOM     19  C   UNL     1      48.942   4.529  18.796  0.00  0.00    +0.000 A 
ATOM     20  O   UNL     1      49.324   3.842  17.855  0.00  0.00    +0.000 OA
ATOM     21  C   UNL     1      48.787   5.970  18.741  0.00  0.00    +0.000 A 
ATOM     22  H   UNL     1      48.749   2.967  20.082  0.00  0.00    +0.000 HD
ENDBRANCH   9  12
ENDBRANCH   7  10
ENDBRANCH   1   7
BRANCH   4  23
ATOM     23  C   UNL     1      43.894   4.934  10.981  0.00  0.00    +0.000 C 
BRANCH  23  24
ATOM     24  C   UNL     1      42.568   5.085  11.763  0.00  0.00    +0.000 C 
BRANCH  24  25
ATOM     25  O   UNL     1      42.765   5.547  13.096  0.00  0.00    +0.000 OA
ATOM     26  H   UNL     1      43.049   6.484  13.007  0.00  0.00    +0.000 HD
ENDBRANCH  24  25
ENDBRANCH  23  24
BRANCH  23  27
ATOM     27  C   UNL     1      44.088   3.469  10.516  0.00  0.00    +0.000 C 
BRANCH  27  28
ATOM     28  C   UNL     1      45.256   3.217   9.540  0.00  0.00    +0.000 C 
ATOM     29  C   UNL     1      45.299   4.203   8.363  0.00  0.00    +0.000 C 
ATOM     30  C   UNL     1      46.461   3.858   7.435  0.00  0.00    +0.000 C 
ATOM     31  O   UNL     1      46.330   2.526   6.946  0.00  0.00    +0.000 OA
ATOM     32  C   UNL     1      46.352   1.559   7.996  0.00  0.00    +0.000 C 
ATOM     33  C   UNL     1      45.198   1.789   8.970  0.00  0.00    +0.000 C 
ENDBRANCH  27  28
ENDBRANCH  23  27
ENDBRANCH   4  23
TORSDOF 8
ENDMDL
MODEL 3
REMARK VINA RESULT:    -7.928      2.349      3.036
REMARK INTER + INTRA:         -12.110
REMARK INTER:                 -10.801
REMARK INTRA:                  -1.309
REMARK UNBOUND:                -0.706
REMARK  Name = 
REMARK  8 active torsions:
REMARK  status: ('A' for Active; 'I' for Inactive)
REMARK    1  A    between atoms: C_2  and  C_21
REMARK    2  A    between atoms: N_3  and  C_4
REMARK    3  A    between atoms: C_4  and  C_5
REMARK    4  A    between atoms: C_8  and  C_9
REMARK    5  A    between atoms: C_9  and  C_10
REMARK    6  A    between atoms: C_9  and  C_12
REMARK    7  A    between atoms: C_10  and  O_11
REMARK    8  A    between atoms: C_12  and  C_13
REMARK                            x       y       z     vdW  Elec       q    Type
REMARK                         _______ _______ _______ _____ _____    ______ ____
ROOT
ATOM      1  C   UNL     1      47.215   6.111  13.245  0.00  0.00    +0.000 A 
ATOM      2  C   UNL     1      46.377   5.079  13.649  0.00  0.00    +0.000 A 
ATOM      3  N   UNL     1      45.320   4.651  12.913  0.00  0.00    +0.000 NA
ATOM      4  C   UNL     1      45.091   5.320  11.752  0.00  0.00    +0.000 A 
ATOM      5  C   UNL     1      45.906   6.385  11.378  0.00  0.00    +0.000 A 
ATOM      6  N   UNL     1      46.975   6.794  12.098  0.00  0.00    +0.000 NA
ENDROOT
BRANCH   1   7
ATOM      7  C   UNL     1      48.381   6.542  14.090  0.00  0.00    +0.000 C 
BRANCH   7  10
ATOM      8  O   UNL     1      50.175   6.006  16.123  0.00  0.00    +0.000 OA
ATOM      9  C   UNL     1      49.032   6.328  16.438  0.00  0.00    +0.000 C 
ATOM     10  N   UNL     1      48.053   6.524  15.497  0.00  0.00    +0.000 N 
ATOM     11  H   UNL     1      47.215   7.034  15.764  0.00  0.00    +0.000 HD
BRANCH   9  12
ATOM     12  C   UNL     1      48.638   6.477  17.844  0.00  0.00    +0.000 A 
ATOM     13  C   UNL     1      48.776   5.406  18.715  0.00  0.00    +0.000 A 
ATOM     14  S   UNL     1      48.277   5.752  20.308  0.00  0.00    +0.000 S 
ATOM     15  C   UNL     1      47.902   7.361  19.900  0.00  0.00    +0.000 A 
ATOM     16  N   UNL     1      47.455   8.234  20.844  0.00  0.00    +0.000 NA
ATOM     17  C   UNL     1      47.239   9.430  20.404  0.00  0.00    +0.000 A 
ATOM     18  N   UNL     1      47.419   9.827  19.106  0.00  0.00    +0.000 N 
ATOM     19  C   UNL     1      47.814   8.967  18.109  0.00  0.00    +0.000 A 
ATOM     20  O   UNL     1      47.874   9.330  16.940  0.00  0.00    +0.000 OA
ATOM     21  C   UNL     1      48.113   7.619  18.559  0.00  0.00    +0.000 A 
ATOM     22  H   UNL     1      47.209  10.771  18.820  0.00  0.00    +0.000 HD
ENDBRANCH   9  12
ENDBRANCH   7  10
ENDBRANCH   1   7
BRANCH   4  23
ATOM     23  C   UNL     1      43.963   4.849  10.847  0.00  0.00    +0.000 C 
BRANCH  23  24
ATOM     24  C   UNL     1      42.593   5.040  11.537  0.00  0.00    +0.000 C 
BRANCH  24  25
ATOM     25  O   UNL     1      42.685   5.788  12.746  0.00  0.00    +0.000 OA
ATOM     26  H   UNL     1      41.759   6.016  12.983  0.00  0.00    +0.000 HD
ENDBRANCH  24  25
ENDBRANCH  23  24
BRANCH  23  27
ATOM     27  C   UNL     1      44.141   3.380  10.386  0.00  0.00    +0.000 C 
BRANCH  27  28
ATOM     28  C   UNL     1      45.324   3.107   9.434  0.00  0.00    +0.000 C 
ATOM     29  C   UNL     1      45.400   4.082   8.249  0.00  0.00    +0.000 C 
ATOM     30  C   UNL     1      46.575   3.717   7.347  0.00  0.00    +0.000 C 
ATOM     31  O   UNL     1      46.439   2.382   6.867  0.00  0.00    +0.000 OA
ATOM     32  C   UNL     1      46.430   1.424   7.925  0.00  0.00    +0.000 C 
ATOM     33  C   UNL     1      45.261   1.675   8.875  0.00  0.00    +0.000 C 
ENDBRANCH  27  28
ENDBRANCH  23  27
ENDBRANCH   4  23
TORSDOF 8
ENDMDL
MODEL 4
REMARK VINA RESULT:    -7.762      2.315      3.688
REMARK INTER + INTRA:         -11.871
REMARK INTER:                 -10.635
REMARK INTRA:                  -1.235
REMARK UNBOUND:                -0.706
REMARK  Name = 
REMARK  8 active torsions:
REMARK  status: ('A' for Active; 'I' for Inactive)
REMARK    1  A    between atoms: C_2  and  C_21
REMARK    2  A    between atoms: N_3  and  C_4
REMARK    3  A    between atoms: C_4  and  C_5
REMARK    4  A    between atoms: C_8  and  C_9
REMARK    5  A    between atoms: C_9  and  C_10
REMARK    6  A    between atoms: C_9  and  C_12
REMARK    7  A    between atoms: C_10  and  O_11
REMARK    8  A    between atoms: C_12  and  C_13
REMARK                            x       y       z     vdW  Elec       q    Type
REMARK                         _______ _______ _______ _____ _____    ______ ____
ROOT
ATOM      1  C   UNL     1      46.757   4.300  14.293  0.00  0.00    +0.000 A 
ATOM      2  C   UNL     1      46.442   5.598  13.911  0.00  0.00    +0.000 A 
ATOM      3  N   UNL     1      45.690   5.887  12.818  0.00  0.00    +0.000 NA
ATOM      4  C   UNL     1      45.282   4.824  12.076  0.00  0.00    +0.000 A 
ATOM      5  C   UNL     1      45.643   3.529  12.439  0.00  0.00    +0.000 A 
ATOM      6  N   UNL     1      46.369   3.240  13.542  0.00  0.00    +0.000 NA
ENDROOT
BRANCH   1   7
ATOM      7  C   UNL     1      47.583   4.030  15.520  0.00  0.00    +0.000 C 
BRANCH   7  10
ATOM      8  O   UNL     1      49.771   5.198  16.739  0.00  0.00    +0.000 OA
ATOM      9  C   UNL     1      48.667   5.694  16.947  0.00  0.00    +0.000 C 
ATOM     10  N   UNL     1      47.518   5.128  16.457  0.00  0.00    +0.000 N 
ATOM     11  H   UNL     1      46.673   5.691  16.422  0.00  0.00    +0.000 HD
BRANCH   9  12
ATOM     12  C   UNL     1      48.512   6.899  17.771  0.00  0.00    +0.000 A 
ATOM     13  C   UNL     1      48.475   6.787  19.153  0.00  0.00    +0.000 A 
ATOM     14  S   UNL     1      48.296   8.282  19.955  0.00  0.00    +0.000 S 
ATOM     15  C   UNL     1      48.309   9.136  18.483  0.00  0.00    +0.000 A 
ATOM     16  N   UNL     1      48.234  10.494  18.464  0.00  0.00    +0.000 NA
ATOM     17  C   UNL     1      48.287  11.015  17.281  0.00  0.00    +0.000 A 
ATOM     18  N   UNL     1      48.395  10.299  16.119  0.00  0.00    +0.000 N 
ATOM     19  C   UNL     1      48.417   8.925  16.088  0.00  0.00    +0.000 A 
ATOM     20  O   UNL     1      48.418   8.312  15.026  0.00  0.00    +0.000 OA
ATOM     21  C   UNL     1      48.405   8.291  17.393  0.00  0.00    +0.000 A 
ATOM     22  H   UNL     1      48.406  10.764  15.224  0.00  0.00    +0.000 HD
ENDBRANCH   9  12
ENDBRANCH   7  10
ENDBRANCH   1   7
BRANCH   4  23
ATOM     23  C   UNL     1      44.381   5.072  10.876  0.00  0.00    +0.000 C 
BRANCH  23  24
ATOM     24  C   UNL     1      43.167   5.943  11.275  0.00  0.00    +0.000 C 
BRANCH  24  25
ATOM     25  O   UNL     1      42.652   5.611  12.561  0.00  0.00    +0.000 OA
ATOM     26  H   UNL     1      41.806   6.106  12.638  0.00  0.00    +0.000 HD
ENDBRANCH  24  25
ENDBRANCH  23  24
BRANCH  23  27
ATOM     27  C   UNL     1      43.911   3.759  10.200  0.00  0.00    +0.000 C 
BRANCH  27  28
ATOM     28  C   UNL     1      44.690   3.331   8.939  0.00  0.00    +0.000 C 
ATOM     29  C   UNL     1      45.419   1.987   9.091  0.00  0.00    +0.000 C 
ATOM     30  C   UNL     1      46.187   1.662   7.814  0.00  0.00    +0.000 C 
ATOM     31  O   UNL     1      47.127   2.693   7.520  0.00  0.00    +0.000 OA
ATOM     32  C   UNL     1      46.496   3.954   7.302  0.00  0.00    +0.000 C 
ATOM     33  C   UNL     1      45.725   4.398   8.542  0.00  0.00    +0.000 C 
ENDBRANCH  27  28
ENDBRANCH  23  27
ENDBRANCH   4  23
TORSDOF 8
ENDMDL
MODEL 5
REMARK VINA RESULT:    -7.755      2.588      3.462
REMARK INTER + INTRA:         -11.860
REMARK INTER:                 -10.629
REMARK INTRA:                  -1.231
REMARK UNBOUND:                -0.706
REMARK  Name = 
REMARK  8 active torsions:
REMARK  status: ('A' for Active; 'I' for Inactive)
REMARK    1  A    between atoms: C_2  and  C_21
REMARK    2  A    between atoms: N_3  and  C_4
REMARK    3  A    between atoms: C_4  and  C_5
REMARK    4  A    between atoms: C_8  and  C_9
REMARK    5  A    between atoms: C_9  and  C_10
REMARK    6  A    between atoms: C_9  and  C_12
REMARK    7  A    between atoms: C_10  and  O_11
REMARK    8  A    between atoms: C_12  and  C_13
REMARK                            x       y       z     vdW  Elec       q    Type
REMARK                         _______ _______ _______ _____ _____    ______ ____
ROOT
ATOM      1  C   UNL     1      46.704   4.401  14.207  0.00  0.00    +0.000 A 
ATOM      2  C   UNL     1      46.380   5.647  13.683  0.00  0.00    +0.000 A 
ATOM      3  N   UNL     1      45.648   5.807  12.551  0.00  0.00    +0.000 NA
ATOM      4  C   UNL     1      45.268   4.665  11.919  0.00  0.00    +0.000 A 
ATOM      5  C   UNL     1      45.639   3.422  12.425  0.00  0.00    +0.000 A 
ATOM      6  N   UNL     1      46.345   3.262  13.566  0.00  0.00    +0.000 NA
ENDROOT
BRANCH   1   7
ATOM      7  C   UNL     1      47.509   4.276  15.471  0.00  0.00    +0.000 C 
BRANCH   7  10
ATOM      8  O   UNL     1      49.906   5.015  16.630  0.00  0.00    +0.000 OA
ATOM      9  C   UNL     1      49.027   5.868  16.539  0.00  0.00    +0.000 C 
ATOM     10  N   UNL     1      47.777   5.567  16.061  0.00  0.00    +0.000 N 
ATOM     11  H   UNL     1      47.175   6.328  15.756  0.00  0.00    +0.000 HD
BRANCH   9  12
ATOM     12  C   UNL     1      49.252   7.250  16.979  0.00  0.00    +0.000 A 
ATOM     13  C   UNL     1      50.157   8.051  16.297  0.00  0.00    +0.000 A 
ATOM     14  S   UNL     1      50.293   9.626  16.937  0.00  0.00    +0.000 S 
ATOM     15  C   UNL     1      49.112   9.307  18.120  0.00  0.00    +0.000 A 
ATOM     16  N   UNL     1      48.717  10.276  18.990  0.00  0.00    +0.000 NA
ATOM     17  C   UNL     1      47.791   9.907  19.813  0.00  0.00    +0.000 A 
ATOM     18  N   UNL     1      47.236   8.656  19.853  0.00  0.00    +0.000 N 
ATOM     19  C   UNL     1      47.644   7.632  19.032  0.00  0.00    +0.000 A 
ATOM     20  O   UNL     1      47.195   6.498  19.156  0.00  0.00    +0.000 OA
ATOM     21  C   UNL     1      48.652   8.005  18.056  0.00  0.00    +0.000 A 
ATOM     22  H   UNL     1      46.533   8.423  20.537  0.00  0.00    +0.000 HD
ENDBRANCH   9  12
ENDBRANCH   7  10
ENDBRANCH   1   7
BRANCH   4  23
ATOM     23  C   UNL     1      44.389   4.771  10.682  0.00  0.00    +0.000 C 
BRANCH  23  24
ATOM     24  C   UNL     1      43.057   5.480  11.018  0.00  0.00    +0.000 C 
BRANCH  24  25
ATOM     25  O   UNL     1      43.186   6.898  11.068  0.00  0.00    +0.000 OA
ATOM     26  H   UNL     1      42.462   7.245  10.502  0.00  0.00    +0.000 HD
ENDBRANCH  24  25
ENDBRANCH  23  24
BRANCH  23  27
ATOM     27  C   UNL     1      44.122   3.396  10.020  0.00  0.00    +0.000 C 
BRANCH  27  28
ATOM     28  C   UNL     1      44.922   3.096   8.735  0.00  0.00    +0.000 C 
ATOM     29  C   UNL     1      45.740   1.798   8.806  0.00  0.00    +0.000 C 
ATOM     30  C   UNL     1      46.522   1.602   7.511  0.00  0.00    +0.000 C 
ATOM     31  O   UNL     1      47.390   2.708   7.280  0.00  0.00    +0.000 OA
ATOM     32  C   UNL     1      46.676   3.936   7.138  0.00  0.00    +0.000 C 
ATOM     33  C   UNL     1      45.882   4.252   8.403  0.00  0.00    +0.000 C 
ENDBRANCH  27  28
ENDBRANCH  23  27
ENDBRANCH   4  23
TORSDOF 8
ENDMDL
MODEL 6
REMARK VINA RESULT:    -7.511      1.430      1.932
REMARK INTER + INTRA:         -11.510
REMARK INTER:                 -10.357
REMARK INTRA:                  -1.153
REMARK UNBOUND:                -0.706
REMARK  Name = 
REMARK  8 active torsions:
REMARK  status: ('A' for Active; 'I' for Inactive)
REMARK    1  A    between atoms: C_2  and  C_21
REMARK    2  A    between atoms: N_3  and  C_4
REMARK    3  A    between atoms: C_4  and  C_5
REMARK    4  A    between atoms: C_8  and  C_9
REMARK    5  A    between atoms: C_9  and  C_10
REMARK    6  A    between atoms: C_9  and  C_12
REMARK    7  A    between atoms: C_10  and  O_11
REMARK    8  A    between atoms: C_12  and  C_13
REMARK                            x       y       z     vdW  Elec       q    Type
REMARK                         _______ _______ _______ _____ _____    ______ ____
ROOT
ATOM      1  C   UNL     1      46.568   7.495  12.881  0.00  0.00    +0.000 A 
ATOM      2  C   UNL     1      45.502   8.067  12.198  0.00  0.00    +0.000 A 
ATOM      3  N   UNL     1      44.596   7.340  11.496  0.00  0.00    +0.000 NA
ATOM      4  C   UNL     1      44.807   5.998  11.459  0.00  0.00    +0.000 A 
ATOM      5  C   UNL     1      45.905   5.438  12.106  0.00  0.00    +0.000 A 
ATOM      6  N   UNL     1      46.792   6.159  12.828  0.00  0.00    +0.000 NA
ENDROOT
BRANCH   1   7
ATOM      7  C   UNL     1      47.539   8.343  13.656  0.00  0.00    +0.000 C 
BRANCH   7  10
ATOM      8  O   UNL     1      50.102   7.466  14.203  0.00  0.00    +0.000 OA
ATOM      9  C   UNL     1      49.262   7.372  15.095  0.00  0.00    +0.000 C 
ATOM     10  N   UNL     1      47.946   7.698  14.883  0.00  0.00    +0.000 N 
ATOM     11  H   UNL     1      47.347   7.859  15.689  0.00  0.00    +0.000 HD
BRANCH   9  12
ATOM     12  C   UNL     1      49.611   6.862  16.425  0.00  0.00    +0.000 A 
ATOM     13  C   UNL     1      50.477   7.584  17.234  0.00  0.00    +0.000 A 
ATOM     14  S   UNL     1      50.771   6.852  18.746  0.00  0.00    +0.000 S 
ATOM     15  C   UNL     1      49.713   5.567  18.391  0.00  0.00    +0.000 A 
ATOM     16  N   UNL     1      49.472   4.589  19.307  0.00  0.00    +0.000 NA
ATOM     17  C   UNL     1      48.624   3.693  18.919  0.00  0.00    +0.000 A 
ATOM     18  N   UNL     1      48.008   3.681  17.696  0.00  0.00    +0.000 N 
ATOM     19  C   UNL     1      48.265   4.615  16.721  0.00  0.00    +0.000 A 
ATOM     20  O   UNL     1      47.770   4.523  15.604  0.00  0.00    +0.000 OA
ATOM     21  C   UNL     1      49.177   5.671  17.122  0.00  0.00    +0.000 A 
ATOM     22  H   UNL     1      47.374   2.938  17.445  0.00  0.00    +0.000 HD
ENDBRANCH   9  12
ENDBRANCH   7  10
ENDBRANCH   1   7
BRANCH   4  23
ATOM     23  C   UNL     1      43.793   5.117  10.746  0.00  0.00    +0.000 C 
BRANCH  23  24
ATOM     24  C   UNL     1      42.439   5.128  11.492  0.00  0.00    +0.000 C 
BRANCH  24  25
ATOM     25  O   UNL     1      41.923   6.443  11.676  0.00  0.00    +0.000 OA
ATOM     26  H   UNL     1      41.201   6.534  11.015  0.00  0.00    +0.000 HD
ENDBRANCH  24  25
ENDBRANCH  23  24
BRANCH  23  27
ATOM     27  C   UNL     1      44.296   3.664  10.552  0.00  0.00    +0.000 C 
BRANCH  27  28
ATOM     28  C   UNL     1      44.845   3.318   9.152  0.00  0.00    +0.000 C 
ATOM     29  C   UNL     1      45.595   1.979   9.097  0.00  0.00    +0.000 C 
ATOM     30  C   UNL     1      46.131   1.738   7.689  0.00  0.00    +0.000 C 
ATOM     31  O   UNL     1      47.002   2.796   7.298  0.00  0.00    +0.000 OA
ATOM     32  C   UNL     1      46.338   4.059   7.266  0.00  0.00    +0.000 C 
ATOM     33  C   UNL     1      45.792   4.421   8.646  0.00  0.00    +0.000 C 
ENDBRANCH  27  28
ENDBRANCH  23  27
ENDBRANCH   4  23
TORSDOF 8
ENDMDL
MODEL 7
REMARK VINA RESULT:    -7.472      3.093      5.539
REMARK INTER + INTRA:         -11.454
REMARK INTER:                 -10.292
REMARK INTRA:                  -1.162
REMARK UNBOUND:                -0.706
REMARK  Name = 
REMARK  8 active torsions:
REMARK  status: ('A' for Active; 'I' for Inactive)
REMARK    1  A    between atoms: C_2  and  C_21
REMARK    2  A    between atoms: N_3  and  C_4
REMARK    3  A    between atoms: C_4  and  C_5
REMARK    4  A    between atoms: C_8  and  C_9
REMARK    5  A    between atoms: C_9  and  C_10
REMARK    6  A    between atoms: C_9  and  C_12
REMARK    7  A    between atoms: C_10  and  O_11
REMARK    8  A    between atoms: C_12  and  C_13
REMARK                            x       y       z     vdW  Elec       q    Type
REMARK                         _______ _______ _______ _____ _____    ______ ____
ROOT
ATOM      1  C   UNL     1      47.550   3.911  15.972  0.00  0.00    +0.000 A 
ATOM      2  C   UNL     1      47.995   5.227  15.947  0.00  0.00    +0.000 A 
ATOM      3  N   UNL     1      47.942   6.007  14.837  0.00  0.00    +0.000 NA
ATOM      4  C   UNL     1      47.457   5.414  13.714  0.00  0.00    +0.000 A 
ATOM      5  C   UNL     1      47.060   4.080  13.735  0.00  0.00    +0.000 A 
ATOM      6  N   UNL     1      47.087   3.312  14.847  0.00  0.00    +0.000 NA
ENDROOT
BRANCH   1   7
ATOM      7  C   UNL     1      47.619   3.091  17.230  0.00  0.00    +0.000 C 
BRANCH   7  10
ATOM      8  O   UNL     1      49.541   1.535  15.996  0.00  0.00    +0.000 OA
ATOM      9  C   UNL     1      49.885   2.208  16.965  0.00  0.00    +0.000 C 
ATOM     10  N   UNL     1      48.980   2.939  17.692  0.00  0.00    +0.000 N 
ATOM     11  H   UNL     1      49.325   3.674  18.304  0.00  0.00    +0.000 HD
BRANCH   9  12
ATOM     12  C   UNL     1      51.278   2.233  17.424  0.00  0.00    +0.000 A 
ATOM     13  C   UNL     1      51.975   1.043  17.574  0.00  0.00    +0.000 A 
ATOM     14  S   UNL     1      53.580   1.253  18.110  0.00  0.00    +0.000 S 
ATOM     15  C   UNL     1      53.414   2.947  18.117  0.00  0.00    +0.000 A 
ATOM     16  N   UNL     1      54.463   3.749  18.447  0.00  0.00    +0.000 NA
ATOM     17  C   UNL     1      54.207   5.015  18.380  0.00  0.00    +0.000 A 
ATOM     18  N   UNL     1      52.997   5.548  18.025  0.00  0.00    +0.000 N 
ATOM     19  C   UNL     1      51.896   4.776  17.740  0.00  0.00    +0.000 A 
ATOM     20  O   UNL     1      50.802   5.283  17.520  0.00  0.00    +0.000 OA
ATOM     21  C   UNL     1      52.140   3.346  17.757  0.00  0.00    +0.000 A 
ATOM     22  H   UNL     1      52.854   6.546  18.016  0.00  0.00    +0.000 HD
ENDBRANCH   9  12
ENDBRANCH   7  10
ENDBRANCH   1   7
BRANCH   4  23
ATOM     23  C   UNL     1      47.309   6.250  12.452  0.00  0.00    +0.000 C 
BRANCH  23  24
ATOM     24  C   UNL     1      48.530   7.180  12.266  0.00  0.00    +0.000 C 
BRANCH  24  25
ATOM     25  O   UNL     1      48.441   8.367  13.048  0.00  0.00    +0.000 OA
ATOM     26  H   UNL     1      48.366   9.101  12.400  0.00  0.00    +0.000 HD
ENDBRANCH  24  25
ENDBRANCH  23  24
BRANCH  23  27
ATOM     27  C   UNL     1      45.992   7.067  12.428  0.00  0.00    +0.000 C 
BRANCH  27  28
ATOM     28  C   UNL     1      44.786   6.389  11.745  0.00  0.00    +0.000 C 
ATOM     29  C   UNL     1      43.794   5.756  12.732  0.00  0.00    +0.000 C 
ATOM     30  C   UNL     1      42.657   5.082  11.970  0.00  0.00    +0.000 C 
ATOM     31  O   UNL     1      43.169   4.084  11.091  0.00  0.00    +0.000 OA
ATOM     32  C   UNL     1      44.048   4.628  10.107  0.00  0.00    +0.000 C 
ATOM     33  C   UNL     1      45.251   5.298  10.765  0.00  0.00    +0.000 C 
ENDBRANCH  27  28
ENDBRANCH  23  27
ENDBRANCH   4  23
TORSDOF 8
ENDMDL
MODEL 8
REMARK VINA RESULT:    -7.299      2.319      3.480
REMARK INTER + INTRA:         -11.204
REMARK INTER:                 -10.291
REMARK INTRA:                  -0.913
REMARK UNBOUND:                -0.706
REMARK  Name = 
REMARK  8 active torsions:
REMARK  status: ('A' for Active; 'I' for Inactive)
REMARK    1  A    between atoms: C_2  and  C_21
REMARK    2  A    between atoms: N_3  and  C_4
REMARK    3  A    between atoms: C_4  and  C_5
REMARK    4  A    between atoms: C_8  and  C_9
REMARK    5  A    between atoms: C_9  and  C_10
REMARK    6  A    between atoms: C_9  and  C_12
REMARK    7  A    between atoms: C_10  and  O_11
REMARK    8  A    between atoms: C_12  and  C_13
REMARK                            x       y       z     vdW  Elec       q    Type
REMARK                         _______ _______ _______ _____ _____    ______ ____
ROOT
ATOM      1  C   UNL     1      46.809   4.366  14.256  0.00  0.00    +0.000 A 
ATOM      2  C   UNL     1      47.071   5.619  13.714  0.00  0.00    +0.000 A 
ATOM      3  N   UNL     1      46.469   6.080  12.589  0.00  0.00    +0.000 NA
ATOM      4  C   UNL     1      45.606   5.225  11.980  0.00  0.00    +0.000 A 
ATOM      5  C   UNL     1      45.386   3.953  12.502  0.00  0.00    +0.000 A 
ATOM      6  N   UNL     1      45.965   3.504  13.638  0.00  0.00    +0.000 NA
ENDROOT
BRANCH   1   7
ATOM      7  C   UNL     1      47.493   3.905  15.513  0.00  0.00    +0.000 C 
BRANCH   7  10
ATOM      8  O   UNL     1      46.831   4.475  18.135  0.00  0.00    +0.000 OA
ATOM      9  C   UNL     1      47.689   5.170  17.597  0.00  0.00    +0.000 C 
ATOM     10  N   UNL     1      48.015   5.017  16.273  0.00  0.00    +0.000 N 
ATOM     11  H   UNL     1      48.889   5.413  15.937  0.00  0.00    +0.000 HD
BRANCH   9  12
ATOM     12  C   UNL     1      48.382   6.235  18.330  0.00  0.00    +0.000 A 
ATOM     13  C   UNL     1      47.656   7.106  19.130  0.00  0.00    +0.000 A 
ATOM     14  S   UNL     1      48.616   8.277  19.913  0.00  0.00    +0.000 S 
ATOM     15  C   UNL     1      50.043   7.632  19.247  0.00  0.00    +0.000 A 
ATOM     16  N   UNL     1      51.259   8.159  19.560  0.00  0.00    +0.000 NA
ATOM     17  C   UNL     1      52.259   7.553  19.009  0.00  0.00    +0.000 A 
ATOM     18  N   UNL     1      52.153   6.479  18.168  0.00  0.00    +0.000 N 
ATOM     19  C   UNL     1      50.944   5.950  17.781  0.00  0.00    +0.000 A 
ATOM     20  O   UNL     1      50.879   5.050  16.952  0.00  0.00    +0.000 OA
ATOM     21  C   UNL     1      49.788   6.566  18.405  0.00  0.00    +0.000 A 
ATOM     22  H   UNL     1      52.973   6.065  17.751  0.00  0.00    +0.000 HD
ENDBRANCH   9  12
ENDBRANCH   7  10
ENDBRANCH   1   7
BRANCH   4  23
ATOM     23  C   UNL     1      44.847   5.702  10.751  0.00  0.00    +0.000 C 
BRANCH  23  24
ATOM     24  C   UNL     1      44.034   6.978  11.073  0.00  0.00    +0.000 C 
BRANCH  24  25
ATOM     25  O   UNL     1      42.640   6.722  11.210  0.00  0.00    +0.000 OA
ATOM     26  H   UNL     1      42.576   5.928  11.785  0.00  0.00    +0.000 HD
ENDBRANCH  24  25
ENDBRANCH  23  24
BRANCH  23  27
ATOM     27  C   UNL     1      43.927   4.607  10.154  0.00  0.00    +0.000 C 
BRANCH  27  28
ATOM     28  C   UNL     1      44.543   3.743   9.034  0.00  0.00    +0.000 C 
ATOM     29  C   UNL     1      44.987   2.349   9.504  0.00  0.00    +0.000 C 
ATOM     30  C   UNL     1      45.613   1.582   8.343  0.00  0.00    +0.000 C 
ATOM     31  O   UNL     1      46.729   2.294   7.818  0.00  0.00    +0.000 OA
ATOM     32  C   UNL     1      46.362   3.574   7.304  0.00  0.00    +0.000 C 
ATOM     33  C   UNL     1      45.755   4.446   8.400  0.00  0.00    +0.000 C 
ENDBRANCH  27  28
ENDBRANCH  23  27
ENDBRANCH   4  23
TORSDOF 8
ENDMDL
MODEL 9
REMARK VINA RESULT:    -7.287      3.935      9.445
REMARK INTER + INTRA:         -11.188
REMARK INTER:                 -10.172
REMARK INTRA:                  -1.016
REMARK UNBOUND:                -0.706
REMARK  Name = 
REMARK  8 active torsions:
REMARK  status: ('A' for Active; 'I' for Inactive)
REMARK    1  A    between atoms: C_2  and  C_21
REMARK    2  A    between atoms: N_3  and  C_4
REMARK    3  A    between atoms: C_4  and  C_5
REMARK    4  A    between atoms: C_8  and  C_9
REMARK    5  A    between atoms: C_9  and  C_10
REMARK    6  A    between atoms: C_9  and  C_12
REMARK    7  A    between atoms: C_10  and  O_11
REMARK    8  A    between atoms: C_12  and  C_13
REMARK                            x       y       z     vdW  Elec       q    Type
REMARK                         _______ _______ _______ _____ _____    ______ ____
ROOT
ATOM      1  C   UNL     1      48.640   3.205  17.134  0.00  0.00    +0.000 A 
ATOM      2  C   UNL     1      49.214   2.071  16.572  0.00  0.00    +0.000 A 
ATOM      3  N   UNL     1      50.525   1.753  16.722  0.00  0.00    +0.000 NA
ATOM      4  C   UNL     1      51.277   2.635  17.431  0.00  0.00    +0.000 A 
ATOM      5  C   UNL     1      50.704   3.794  17.949  0.00  0.00    +0.000 A 
ATOM      6  N   UNL     1      49.394   4.097  17.823  0.00  0.00    +0.000 NA
ENDROOT
BRANCH   1   7
ATOM      7  C   UNL     1      47.179   3.509  16.950  0.00  0.00    +0.000 C 
BRANCH   7  10
ATOM      8  O   UNL     1      47.199   3.139  14.211  0.00  0.00    +0.000 OA
ATOM      9  C   UNL     1      46.919   4.257  14.635  0.00  0.00    +0.000 C 
ATOM     10  N   UNL     1      46.973   4.554  15.973  0.00  0.00    +0.000 N 
ATOM     11  H   UNL     1      46.492   5.385  16.308  0.00  0.00    +0.000 HD
BRANCH   9  12
ATOM     12  C   UNL     1      46.554   5.351  13.728  0.00  0.00    +0.000 A 
ATOM     13  C   UNL     1      47.479   6.344  13.441  0.00  0.00    +0.000 A 
ATOM     14  S   UNL     1      46.893   7.533  12.368  0.00  0.00    +0.000 S 
ATOM     15  C   UNL     1      45.398   6.735  12.212  0.00  0.00    +0.000 A 
ATOM     16  N   UNL     1      44.433   7.218  11.383  0.00  0.00    +0.000 NA
ATOM     17  C   UNL     1      43.361   6.497  11.337  0.00  0.00    +0.000 A 
ATOM     18  N   UNL     1      43.164   5.347  12.053  0.00  0.00    +0.000 N 
ATOM     19  C   UNL     1      44.088   4.854  12.943  0.00  0.00    +0.000 A 
ATOM     20  O   UNL     1      43.843   3.875  13.639  0.00  0.00    +0.000 OA
ATOM     21  C   UNL     1      45.330   5.602  13.001  0.00  0.00    +0.000 A 
ATOM     22  H   UNL     1      42.293   4.842  11.990  0.00  0.00    +0.000 HD
ENDBRANCH   9  12
ENDBRANCH   7  10
ENDBRANCH   1   7
BRANCH   4  23
ATOM     23  C   UNL     1      52.739   2.306  17.693  0.00  0.00    +0.000 C 
BRANCH  23  24
ATOM     24  C   UNL     1      52.973   0.779  17.638  0.00  0.00    +0.000 C 
BRANCH  24  25
ATOM     25  O   UNL     1      52.009   0.047  18.389  0.00  0.00    +0.000 OA
ATOM     26  H   UNL     1      51.561  -0.538  17.739  0.00  0.00    +0.000 HD
ENDBRANCH  24  25
ENDBRANCH  23  24
BRANCH  23  27
ATOM     27  C   UNL     1      53.251   2.888  19.035  0.00  0.00    +0.000 C 
BRANCH  27  28
ATOM     28  C   UNL     1      54.301   4.013  18.929  0.00  0.00    +0.000 C 
ATOM     29  C   UNL     1      53.813   5.365  19.472  0.00  0.00    +0.000 C 
ATOM     30  C   UNL     1      54.899   6.421  19.295  0.00  0.00    +0.000 C 
ATOM     31  O   UNL     1      55.250   6.551  17.920  0.00  0.00    +0.000 OA
ATOM     32  C   UNL     1      55.774   5.339  17.378  0.00  0.00    +0.000 C 
ATOM     33  C   UNL     1      54.746   4.214  17.470  0.00  0.00    +0.000 C 
ENDBRANCH  27  28
ENDBRANCH  23  27
ENDBRANCH   4  23
TORSDOF 8
ENDMDL
