MODEL 1
REMARK VINA RESULT:    -9.233      0.000      0.000
REMARK INTER + INTRA:         -14.250
REMARK INTER:                 -13.012
REMARK INTRA:                  -1.238
REMARK UNBOUND:                -1.238
REMARK  Name = 
REMARK  7 active torsions:
REMARK  status: ('A' for Active; 'I' for Inactive)
REMARK    1  A    between atoms: C_2  and  C_4
REMARK    2  A    between atoms: C_7  and  N_8
REMARK    3  A    between atoms: N_8  and  C_9
REMARK    4  A    between atoms: C_9  and  C_10
REMARK    5  A    between atoms: C_10  and  C_13
REMARK    6  A    between atoms: C_15  and  N_16
REMARK    7  A    between atoms: C_23  and  C_24
REMARK                            x       y       z     vdW  Elec       q    Type
REMARK                         _______ _______ _______ _____ _____    ______ ____
ROOT
ATOM      1  C   UNL     1      44.235   4.864  12.504  0.00  0.00    +0.000 C 
ATOM      2  F   UNL     1      43.193   5.120  13.346  0.00  0.00    +0.000 F 
ATOM      3  F   UNL     1      44.250   3.505  12.346  0.00  0.00    +0.000 F 
ENDROOT
BRANCH   1   4
ATOM      4  C   UNL     1      45.548   5.400  13.046  0.00  0.00    +0.000 A 
ATOM      5  C   UNL     1      46.104   4.864  14.221  0.00  0.00    +0.000 A 
ATOM      6  C   UNL     1      47.345   5.282  14.717  0.00  0.00    +0.000 A 
ATOM      7  C   UNL     1      48.026   6.268  13.990  0.00  0.00    +0.000 A 
ATOM      8  C   UNL     1      47.512   6.810  12.798  0.00  0.00    +0.000 A 
ATOM      9  C   UNL     1      46.259   6.382  12.345  0.00  0.00    +0.000 A 
BRANCH   6  10
ATOM     10  N   UNL     1      47.899   4.734  15.853  0.00  0.00    +0.000 N 
ATOM     11  C   UNL     1      47.874   3.294  16.138  0.00  0.00    +0.000 C 
ATOM     12  C   UNL     1      47.204   3.018  17.501  0.00  0.00    +0.000 C 
ATOM     13  N   UNL     1      47.804   3.787  18.613  0.00  0.00    +0.000 NA
ATOM     14  C   UNL     1      47.749   5.226  18.276  0.00  0.00    +0.000 C 
ATOM     15  C   UNL     1      48.430   5.583  16.931  0.00  0.00    +0.000 C 
ATOM     16  H   UNL     1      48.785   3.520  18.687  0.00  0.00    +0.000 HD
ENDBRANCH   6  10
BRANCH   8  17
ATOM     17  C   UNL     1      48.320   7.792  11.986  0.00  0.00    +0.000 C 
ATOM     18  F   UNL     1      47.693   8.984  11.785  0.00  0.00    +0.000 F 
ATOM     19  F   UNL     1      49.506   8.093  12.586  0.00  0.00    +0.000 F 
ATOM     20  F   UNL     1      48.635   7.319  10.750  0.00  0.00    +0.000 F 
ENDBRANCH   8  17
ENDBRANCH   1   4
BRANCH   1  21
ATOM     21  C   UNL     1      43.949   5.508  11.122  0.00  0.00    +0.000 C 
BRANCH  21  22
ATOM     22  N   UNL     1      43.632   4.532  10.066  0.00  0.00    +0.000 N 
ATOM     23  H   UNL     1      42.847   3.918  10.277  0.00  0.00    +0.000 HD
BRANCH  22  27
ATOM     24  C   UNL     1      46.529   2.565   7.713  0.00  0.00    +0.000 A 
ATOM     25  C   UNL     1      46.466   3.959   7.700  0.00  0.00    +0.000 A 
ATOM     26  C   UNL     1      45.521   4.625   8.489  0.00  0.00    +0.000 A 
ATOM     27  C   UNL     1      44.644   3.924   9.328  0.00  0.00    +0.000 A 
ATOM     28  C   UNL     1      44.705   2.523   9.306  0.00  0.00    +0.000 A 
ATOM     29  C   UNL     1      45.632   1.846   8.504  0.00  0.00    +0.000 A 
BRANCH  24  31
ATOM     30  N   UNL     1      48.585   2.514   6.411  0.00  0.00    +0.000 N 
ATOM     31  C   UNL     1      47.502   1.820   6.873  0.00  0.00    +0.000 C 
ATOM     32  O   UNL     1      47.366   0.627   6.631  0.00  0.00    +0.000 OA
ATOM     33  H   UNL     1      49.293   1.972   5.935  0.00  0.00    +0.000 HD
ATOM     34  H   UNL     1      48.857   3.412   6.791  0.00  0.00    +0.000 HD
ENDBRANCH  24  31
ENDBRANCH  22  27
ENDBRANCH  21  22
ENDBRANCH   1  21
TORSDOF 7
ENDMDL
MODEL 2
REMARK VINA RESULT:    -8.931      2.484      4.239
REMARK INTER + INTRA:         -13.823
REMARK INTER:                 -12.583
REMARK INTRA:                  -1.241
REMARK UNBOUND:                -1.238
REMARK  Name = 
REMARK  7 active torsions:
REMARK  status: ('A' for Active; 'I' for Inactive)
REMARK    1  A    between atoms: C_2  and  C_4
REMARK    2  A    between atoms: C_7  and  N_8
REMARK    3  A    between atoms: N_8  and  C_9
REMARK    4  A    between atoms: C_9  and  C_10
REMARK    5  A    between atoms: C_10  and  C_13
REMARK    6  A    between atoms: C_15  and  N_16
REMARK    7  A    between atoms: C_23  and  C_24
REMARK                            x       y       z     vdW  Elec       q    Type
REMARK                         _______ _______ _______ _____ _____    ______ ____
ROOT
ATOM      1  C   UNL     1      44.261   5.025  12.547  0.00  0.00    +0.000 C 
ATOM      2  F   UNL     1      43.210   5.562  13.230  0.00  0.00    +0.000 F 
ATOM      3  F   UNL     1      43.983   3.689  12.443  0.00  0.00    +0.000 F 
ENDROOT
BRANCH   1   4
ATOM      4  C   UNL     1      45.585   5.291  13.241  0.00  0.00    +0.000 A 
ATOM      5  C   UNL     1      46.335   6.438  12.925  0.00  0.00    +0.000 A 
ATOM      6  C   UNL     1      47.526   6.757  13.589  0.00  0.00    +0.000 A 
ATOM      7  C   UNL     1      47.950   5.880  14.597  0.00  0.00    +0.000 A 
ATOM      8  C   UNL     1      47.215   4.737  14.956  0.00  0.00    +0.000 A 
ATOM      9  C   UNL     1      46.040   4.441  14.255  0.00  0.00    +0.000 A 
BRANCH   6  10
ATOM     10  N   UNL     1      48.243   7.896  13.296  0.00  0.00    +0.000 N 
ATOM     11  C   UNL     1      47.623   9.222  13.186  0.00  0.00    +0.000 C 
ATOM     12  C   UNL     1      47.915   9.850  11.807  0.00  0.00    +0.000 C 
ATOM     13  N   UNL     1      49.355   9.889  11.476  0.00  0.00    +0.000 NA
ATOM     14  C   UNL     1      49.896   8.515  11.560  0.00  0.00    +0.000 C 
ATOM     15  C   UNL     1      49.666   7.831  12.930  0.00  0.00    +0.000 C 
ATOM     16  H   UNL     1      49.826  10.455  12.182  0.00  0.00    +0.000 HD
ENDBRANCH   6  10
BRANCH   8  17
ATOM     17  C   UNL     1      47.646   3.875  16.116  0.00  0.00    +0.000 C 
ATOM     18  F   UNL     1      46.672   3.680  17.048  0.00  0.00    +0.000 F 
ATOM     19  F   UNL     1      48.024   2.630  15.711  0.00  0.00    +0.000 F 
ATOM     20  F   UNL     1      48.712   4.389  16.787  0.00  0.00    +0.000 F 
ENDBRANCH   8  17
ENDBRANCH   1   4
BRANCH   1  21
ATOM     21  C   UNL     1      44.302   5.623  11.115  0.00  0.00    +0.000 C 
BRANCH  21  22
ATOM     22  N   UNL     1      43.738   4.736  10.085  0.00  0.00    +0.000 N 
ATOM     23  H   UNL     1      42.861   4.287  10.345  0.00  0.00    +0.000 HD
BRANCH  22  27
ATOM     24  C   UNL     1      46.433   2.458   7.774  0.00  0.00    +0.000 A 
ATOM     25  C   UNL     1      45.538   1.807   8.624  0.00  0.00    +0.000 A 
ATOM     26  C   UNL     1      44.627   2.550   9.384  0.00  0.00    +0.000 A 
ATOM     27  C   UNL     1      44.565   3.947   9.291  0.00  0.00    +0.000 A 
ATOM     28  C   UNL     1      45.491   4.584   8.451  0.00  0.00    +0.000 A 
ATOM     29  C   UNL     1      46.420   3.851   7.703  0.00  0.00    +0.000 A 
BRANCH  24  31
ATOM     30  N   UNL     1      48.450   2.427   6.410  0.00  0.00    +0.000 N 
ATOM     31  C   UNL     1      47.430   1.707   6.967  0.00  0.00    +0.000 C 
ATOM     32  O   UNL     1      47.368   0.491   6.832  0.00  0.00    +0.000 OA
ATOM     33  H   UNL     1      49.179   1.893   5.958  0.00  0.00    +0.000 HD
ATOM     34  H   UNL     1      48.672   3.370   6.703  0.00  0.00    +0.000 HD
ENDBRANCH  24  31
ENDBRANCH  22  27
ENDBRANCH  21  22
ENDBRANCH   1  21
TORSDOF 7
ENDMDL
MODEL 3
REMARK VINA RESULT:    -8.418      2.416      3.250
REMARK INTER + INTRA:         -13.101
REMARK INTER:                 -11.807
REMARK INTRA:                  -1.294
REMARK UNBOUND:                -1.238
REMARK  Name = 
REMARK  7 active torsions:
REMARK  status: ('A' for Active; 'I' for Inactive)
REMARK    1  A    between atoms: C_2  and  C_4
REMARK    2  A    between atoms: C_7  and  N_8
REMARK    3  A    between atoms: N_8  and  C_9
REMARK    4  A    between atoms: C_9  and  C_10
REMARK    5  A    between atoms: C_10  and  C_13
REMARK    6  A    between atoms: C_15  and  N_16
REMARK    7  A    between atoms: C_23  and  C_24
REMARK                            x       y       z     vdW  Elec       q    Type
REMARK                         _______ _______ _______ _____ _____    ______ ____
ROOT
ATOM      1  C   UNL     1      43.473   5.148  11.994  0.00  0.00    +0.000 C 
ATOM      2  F   UNL     1      42.626   5.373  10.948  0.00  0.00    +0.000 F 
ATOM      3  F   UNL     1      42.667   5.001  13.090  0.00  0.00    +0.000 F 
ENDROOT
BRANCH   1   4
ATOM      4  C   UNL     1      44.481   6.271  12.160  0.00  0.00    +0.000 A 
ATOM      5  C   UNL     1      45.764   6.004  12.672  0.00  0.00    +0.000 A 
ATOM      6  C   UNL     1      46.746   6.997  12.777  0.00  0.00    +0.000 A 
ATOM      7  C   UNL     1      46.401   8.286  12.347  0.00  0.00    +0.000 A 
ATOM      8  C   UNL     1      45.137   8.584  11.809  0.00  0.00    +0.000 A 
ATOM      9  C   UNL     1      44.175   7.570  11.738  0.00  0.00    +0.000 A 
BRANCH   6  10
ATOM     10  N   UNL     1      48.010   6.726  13.253  0.00  0.00    +0.000 N 
ATOM     11  C   UNL     1      48.260   6.216  14.606  0.00  0.00    +0.000 C 
ATOM     12  C   UNL     1      49.223   7.147  15.373  0.00  0.00    +0.000 C 
ATOM     13  N   UNL     1      50.482   7.414  14.646  0.00  0.00    +0.000 NA
ATOM     14  C   UNL     1      50.151   7.970  13.316  0.00  0.00    +0.000 C 
ATOM     15  C   UNL     1      49.210   7.072  12.475  0.00  0.00    +0.000 C 
ATOM     16  H   UNL     1      50.958   6.523  14.503  0.00  0.00    +0.000 HD
ENDBRANCH   6  10
BRANCH   8  17
ATOM     17  C   UNL     1      44.837   9.957  11.258  0.00  0.00    +0.000 C 
ATOM     18  F   UNL     1      44.053  10.715  12.073  0.00  0.00    +0.000 F 
ATOM     19  F   UNL     1      45.972  10.683  11.057  0.00  0.00    +0.000 F 
ATOM     20  F   UNL     1      44.201   9.914  10.056  0.00  0.00    +0.000 F 
ENDBRANCH   8  17
ENDBRANCH   1   4
BRANCH   1  21
ATOM     21  C   UNL     1      44.227   3.811  11.766  0.00  0.00    +0.000 C 
BRANCH  21  22
ATOM     22  N   UNL     1      43.773   3.069  10.580  0.00  0.00    +0.000 N 
ATOM     23  H   UNL     1      43.207   2.246  10.784  0.00  0.00    +0.000 HD
BRANCH  22  27
ATOM     24  C   UNL     1      46.422   2.795   7.308  0.00  0.00    +0.000 A 
ATOM     25  C   UNL     1      46.077   1.639   8.010  0.00  0.00    +0.000 A 
ATOM     26  C   UNL     1      45.186   1.713   9.087  0.00  0.00    +0.000 A 
ATOM     27  C   UNL     1      44.596   2.927   9.467  0.00  0.00    +0.000 A 
ATOM     28  C   UNL     1      44.976   4.081   8.765  0.00  0.00    +0.000 A 
ATOM     29  C   UNL     1      45.883   4.021   7.700  0.00  0.00    +0.000 A 
BRANCH  24  31
ATOM     30  N   UNL     1      48.675   2.428   6.461  0.00  0.00    +0.000 N 
ATOM     31  C   UNL     1      47.381   2.762   6.173  0.00  0.00    +0.000 C 
ATOM     32  O   UNL     1      47.028   2.988   5.022  0.00  0.00    +0.000 OA
ATOM     33  H   UNL     1      49.290   2.303   5.669  0.00  0.00    +0.000 HD
ATOM     34  H   UNL     1      48.942   1.998   7.337  0.00  0.00    +0.000 HD
ENDBRANCH  24  31
ENDBRANCH  22  27
ENDBRANCH  21  22
ENDBRANCH   1  21
TORSDOF 7
ENDMDL
MODEL 4
REMARK VINA RESULT:    -7.074      3.503      7.499
REMARK INTER + INTRA:         -11.207
REMARK INTER:                 -10.175
REMARK INTRA:                  -1.031
REMARK UNBOUND:                -1.238
REMARK  Name = 
REMARK  7 active torsions:
REMARK  status: ('A' for Active; 'I' for Inactive)
REMARK    1  A    between atoms: C_2  and  C_4
REMARK    2  A    between atoms: C_7  and  N_8
REMARK    3  A    between atoms: N_8  and  C_9
REMARK    4  A    between atoms: C_9  and  C_10
REMARK    5  A    between atoms: C_10  and  C_13
REMARK    6  A    between atoms: C_15  and  N_16
REMARK    7  A    between atoms: C_23  and  C_24
REMARK                            x       y       z     vdW  Elec       q    Type
REMARK                         _______ _______ _______ _____ _____    ______ ____
ROOT
ATOM      1  C   UNL     1      47.775   6.618  14.029  0.00  0.00    +0.000 C 
ATOM      2  F   UNL     1      47.995   7.714  14.812  0.00  0.00    +0.000 F 
ATOM      3  F   UNL     1      48.984   6.331  13.457  0.00  0.00    +0.000 F 
ENDROOT
BRANCH   1   4
ATOM      4  C   UNL     1      46.688   6.866  12.999  0.00  0.00    +0.000 A 
ATOM      5  C   UNL     1      45.976   5.788  12.443  0.00  0.00    +0.000 A 
ATOM      6  C   UNL     1      44.921   5.976  11.542  0.00  0.00    +0.000 A 
ATOM      7  C   UNL     1      44.593   7.298  11.208  0.00  0.00    +0.000 A 
ATOM      8  C   UNL     1      45.266   8.400  11.762  0.00  0.00    +0.000 A 
ATOM      9  C   UNL     1      46.329   8.172  12.643  0.00  0.00    +0.000 A 
BRANCH   6  10
ATOM     10  N   UNL     1      44.208   4.919  11.021  0.00  0.00    +0.000 N 
ATOM     11  C   UNL     1      43.127   4.248  11.754  0.00  0.00    +0.000 C 
ATOM     12  C   UNL     1      43.409   2.737  11.885  0.00  0.00    +0.000 C 
ATOM     13  N   UNL     1      43.684   2.079  10.590  0.00  0.00    +0.000 NA
ATOM     14  C   UNL     1      44.812   2.776   9.936  0.00  0.00    +0.000 C 
ATOM     15  C   UNL     1      44.586   4.296   9.743  0.00  0.00    +0.000 C 
ATOM     16  H   UNL     1      42.861   2.193   9.998  0.00  0.00    +0.000 HD
ENDBRANCH   6  10
BRANCH   8  17
ATOM     17  C   UNL     1      44.816   9.809  11.462  0.00  0.00    +0.000 C 
ATOM     18  F   UNL     1      44.139  10.398  12.486  0.00  0.00    +0.000 F 
ATOM     19  F   UNL     1      45.869  10.632  11.193  0.00  0.00    +0.000 F 
ATOM     20  F   UNL     1      43.998   9.881  10.378  0.00  0.00    +0.000 F 
ENDBRANCH   8  17
ENDBRANCH   1   4
BRANCH   1  21
ATOM     21  C   UNL     1      47.368   5.420  14.927  0.00  0.00    +0.000 C 
BRANCH  21  22
ATOM     22  N   UNL     1      47.850   5.525  16.313  0.00  0.00    +0.000 N 
ATOM     23  H   UNL     1      47.894   6.476  16.677  0.00  0.00    +0.000 HD
BRANCH  22  27
ATOM     24  C   UNL     1      50.906   2.883  17.528  0.00  0.00    +0.000 A 
ATOM     25  C   UNL     1      51.157   4.255  17.500  0.00  0.00    +0.000 A 
ATOM     26  C   UNL     1      50.147   5.144  17.115  0.00  0.00    +0.000 A 
ATOM     27  C   UNL     1      48.862   4.693  16.782  0.00  0.00    +0.000 A 
ATOM     28  C   UNL     1      48.639   3.308  16.791  0.00  0.00    +0.000 A 
ATOM     29  C   UNL     1      49.648   2.408  17.154  0.00  0.00    +0.000 A 
BRANCH  24  31
ATOM     30  N   UNL     1      51.752   0.600  17.559  0.00  0.00    +0.000 N 
ATOM     31  C   UNL     1      51.958   1.905  17.910  0.00  0.00    +0.000 C 
ATOM     32  O   UNL     1      52.985   2.250  18.481  0.00  0.00    +0.000 OA
ATOM     33  H   UNL     1      52.520  -0.034  17.726  0.00  0.00    +0.000 HD
ATOM     34  H   UNL     1      51.054   0.324  16.880  0.00  0.00    +0.000 HD
ENDBRANCH  24  31
ENDBRANCH  22  27
ENDBRANCH  21  22
ENDBRANCH   1  21
TORSDOF 7
ENDMDL
MODEL 5
REMARK VINA RESULT:    -6.944      3.886      7.048
REMARK INTER + INTRA:         -11.023
REMARK INTER:                  -9.698
REMARK INTRA:                  -1.325
REMARK UNBOUND:                -1.238
REMARK  Name = 
REMARK  7 active torsions:
REMARK  status: ('A' for Active; 'I' for Inactive)
REMARK    1  A    between atoms: C_2  and  C_4
REMARK    2  A    between atoms: C_7  and  N_8
REMARK    3  A    between atoms: N_8  and  C_9
REMARK    4  A    between atoms: C_9  and  C_10
REMARK    5  A    between atoms: C_10  and  C_13
REMARK    6  A    between atoms: C_15  and  N_16
REMARK    7  A    between atoms: C_23  and  C_24
REMARK                            x       y       z     vdW  Elec       q    Type
REMARK                         _______ _______ _______ _____ _____    ______ ____
ROOT
ATOM      1  C   UNL     1      48.889   7.986  13.134  0.00  0.00    +0.000 C 
ATOM      2  F   UNL     1      49.071   8.064  11.784  0.00  0.00    +0.000 F 
ATOM      3  F   UNL     1      50.146   7.886  13.665  0.00  0.00    +0.000 F 
ENDROOT
BRANCH   1   4
ATOM      4  C   UNL     1      47.999   6.819  13.521  0.00  0.00    +0.000 A 
ATOM      5  C   UNL     1      47.003   6.362  12.639  0.00  0.00    +0.000 A 
ATOM      6  C   UNL     1      46.207   5.246  12.927  0.00  0.00    +0.000 A 
ATOM      7  C   UNL     1      46.442   4.589  14.143  0.00  0.00    +0.000 A 
ATOM      8  C   UNL     1      47.445   5.002  15.037  0.00  0.00    +0.000 A 
ATOM      9  C   UNL     1      48.207   6.134  14.724  0.00  0.00    +0.000 A 
BRANCH   6  10
ATOM     10  N   UNL     1      45.251   4.786  12.049  0.00  0.00    +0.000 N 
ATOM     11  C   UNL     1      44.272   5.668  11.401  0.00  0.00    +0.000 C 
ATOM     12  C   UNL     1      42.832   5.201  11.701  0.00  0.00    +0.000 C 
ATOM     13  N   UNL     1      42.596   3.780  11.365  0.00  0.00    +0.000 NA
ATOM     14  C   UNL     1      43.584   2.954  12.091  0.00  0.00    +0.000 C 
ATOM     15  C   UNL     1      45.057   3.346  11.815  0.00  0.00    +0.000 C 
ATOM     16  H   UNL     1      42.761   3.661  10.366  0.00  0.00    +0.000 HD
ENDBRANCH   6  10
BRANCH   8  17
ATOM     17  C   UNL     1      47.741   4.208  16.285  0.00  0.00    +0.000 C 
ATOM     18  F   UNL     1      46.789   4.331  17.252  0.00  0.00    +0.000 F 
ATOM     19  F   UNL     1      47.837   2.873  16.028  0.00  0.00    +0.000 F 
ATOM     20  F   UNL     1      48.918   4.562  16.868  0.00  0.00    +0.000 F 
ENDBRANCH   8  17
ENDBRANCH   1   4
BRANCH   1  21
ATOM     21  C   UNL     1      48.253   9.307  13.643  0.00  0.00    +0.000 C 
BRANCH  21  22
ATOM     22  N   UNL     1      47.965  10.277  12.575  0.00  0.00    +0.000 N 
ATOM     23  H   UNL     1      48.382  11.197  12.713  0.00  0.00    +0.000 HD
BRANCH  22  27
ATOM     24  C   UNL     1      44.093  10.397  10.906  0.00  0.00    +0.000 A 
ATOM     25  C   UNL     1      45.053  11.314  10.477  0.00  0.00    +0.000 A 
ATOM     26  C   UNL     1      46.347  11.275  11.010  0.00  0.00    +0.000 A 
ATOM     27  C   UNL     1      46.720  10.307  11.953  0.00  0.00    +0.000 A 
ATOM     28  C   UNL     1      45.733   9.411  12.390  0.00  0.00    +0.000 A 
ATOM     29  C   UNL     1      44.431   9.456  11.879  0.00  0.00    +0.000 A 
BRANCH  24  31
ATOM     30  N   UNL     1      41.709  10.019  11.230  0.00  0.00    +0.000 N 
ATOM     31  C   UNL     1      42.702  10.419  10.381  0.00  0.00    +0.000 C 
ATOM     32  O   UNL     1      42.445  10.812   9.249  0.00  0.00    +0.000 OA
ATOM     33  H   UNL     1      40.763  10.142  10.900  0.00  0.00    +0.000 HD
ATOM     34  H   UNL     1      41.851   9.933  12.229  0.00  0.00    +0.000 HD
ENDBRANCH  24  31
ENDBRANCH  22  27
ENDBRANCH  21  22
ENDBRANCH   1  21
TORSDOF 7
ENDMDL
MODEL 6
REMARK VINA RESULT:    -6.815      3.955      7.908
REMARK INTER + INTRA:         -10.842
REMARK INTER:                  -9.998
REMARK INTRA:                  -0.845
REMARK UNBOUND:                -1.238
REMARK  Name = 
REMARK  7 active torsions:
REMARK  status: ('A' for Active; 'I' for Inactive)
REMARK    1  A    between atoms: C_2  and  C_4
REMARK    2  A    between atoms: C_7  and  N_8
REMARK    3  A    between atoms: N_8  and  C_9
REMARK    4  A    between atoms: C_9  and  C_10
REMARK    5  A    between atoms: C_10  and  C_13
REMARK    6  A    between atoms: C_15  and  N_16
REMARK    7  A    between atoms: C_23  and  C_24
REMARK                            x       y       z     vdW  Elec       q    Type
REMARK                         _______ _______ _______ _____ _____    ______ ____
ROOT
ATOM      1  C   UNL     1      47.784   4.573  16.145  0.00  0.00    +0.000 C 
ATOM      2  F   UNL     1      47.902   3.217  16.052  0.00  0.00    +0.000 F 
ATOM      3  F   UNL     1      46.767   4.789  17.035  0.00  0.00    +0.000 F 
ENDROOT
BRANCH   1   4
ATOM      4  C   UNL     1      47.521   5.214  14.794  0.00  0.00    +0.000 A 
ATOM      5  C   UNL     1      46.523   4.701  13.947  0.00  0.00    +0.000 A 
ATOM      6  C   UNL     1      46.201   5.303  12.723  0.00  0.00    +0.000 A 
ATOM      7  C   UNL     1      46.920   6.453  12.368  0.00  0.00    +0.000 A 
ATOM      8  C   UNL     1      47.907   7.008  13.201  0.00  0.00    +0.000 A 
ATOM      9  C   UNL     1      48.214   6.367  14.407  0.00  0.00    +0.000 A 
BRANCH   6  10
ATOM     10  N   UNL     1      45.204   4.814  11.909  0.00  0.00    +0.000 N 
ATOM     11  C   UNL     1      44.156   5.666  11.332  0.00  0.00    +0.000 C 
ATOM     12  C   UNL     1      42.755   5.151  11.725  0.00  0.00    +0.000 C 
ATOM     13  N   UNL     1      42.543   3.724  11.399  0.00  0.00    +0.000 NA
ATOM     14  C   UNL     1      43.605   2.928  12.053  0.00  0.00    +0.000 C 
ATOM     15  C   UNL     1      45.042   3.369  11.681  0.00  0.00    +0.000 C 
ATOM     16  H   UNL     1      42.645   3.614  10.391  0.00  0.00    +0.000 HD
ENDBRANCH   6  10
BRANCH   8  17
ATOM     17  C   UNL     1      48.584   8.306  12.836  0.00  0.00    +0.000 C 
ATOM     18  F   UNL     1      48.614   8.551  11.497  0.00  0.00    +0.000 F 
ATOM     19  F   UNL     1      47.960   9.380  13.395  0.00  0.00    +0.000 F 
ATOM     20  F   UNL     1      49.876   8.362  13.258  0.00  0.00    +0.000 F 
ENDBRANCH   8  17
ENDBRANCH   1   4
BRANCH   1  21
ATOM     21  C   UNL     1      49.086   5.162  16.748  0.00  0.00    +0.000 C 
BRANCH  21  22
ATOM     22  N   UNL     1      49.564   4.447  17.942  0.00  0.00    +0.000 N 
ATOM     23  H   UNL     1      49.618   5.016  18.785  0.00  0.00    +0.000 HD
BRANCH  22  27
ATOM     24  C   UNL     1      52.623   1.542  17.886  0.00  0.00    +0.000 A 
ATOM     25  C   UNL     1      51.357   1.214  17.399  0.00  0.00    +0.000 A 
ATOM     26  C   UNL     1      50.338   2.174  17.396  0.00  0.00    +0.000 A 
ATOM     27  C   UNL     1      50.563   3.482  17.845  0.00  0.00    +0.000 A 
ATOM     28  C   UNL     1      51.835   3.784  18.355  0.00  0.00    +0.000 A 
ATOM     29  C   UNL     1      52.855   2.825  18.383  0.00  0.00    +0.000 A 
BRANCH  24  31
ATOM     30  N   UNL     1      53.429  -0.691  18.426  0.00  0.00    +0.000 N 
ATOM     31  C   UNL     1      53.726   0.546  17.927  0.00  0.00    +0.000 C 
ATOM     32  O   UNL     1      54.844   0.803  17.500  0.00  0.00    +0.000 OA
ATOM     33  H   UNL     1      54.154  -1.390  18.348  0.00  0.00    +0.000 HD
ATOM     34  H   UNL     1      52.477  -1.013  18.549  0.00  0.00    +0.000 HD
ENDBRANCH  24  31
ENDBRANCH  22  27
ENDBRANCH  21  22
ENDBRANCH   1  21
TORSDOF 7
ENDMDL
MODEL 7
REMARK VINA RESULT:    -6.694      4.209      8.357
REMARK INTER + INTRA:         -10.672
REMARK INTER:                  -8.979
REMARK INTRA:                  -1.693
REMARK UNBOUND:                -1.238
REMARK  Name = 
REMARK  7 active torsions:
REMARK  status: ('A' for Active; 'I' for Inactive)
REMARK    1  A    between atoms: C_2  and  C_4
REMARK    2  A    between atoms: C_7  and  N_8
REMARK    3  A    between atoms: N_8  and  C_9
REMARK    4  A    between atoms: C_9  and  C_10
REMARK    5  A    between atoms: C_10  and  C_13
REMARK    6  A    between atoms: C_15  and  N_16
REMARK    7  A    between atoms: C_23  and  C_24
REMARK                            x       y       z     vdW  Elec       q    Type
REMARK                         _______ _______ _______ _____ _____    ______ ____
ROOT
ATOM      1  C   UNL     1      47.782   4.156  16.409  0.00  0.00    +0.000 C 
ATOM      2  F   UNL     1      47.865   2.811  16.196  0.00  0.00    +0.000 F 
ATOM      3  F   UNL     1      46.777   4.318  17.323  0.00  0.00    +0.000 F 
ENDROOT
BRANCH   1   4
ATOM      4  C   UNL     1      47.527   4.920  15.123  0.00  0.00    +0.000 A 
ATOM      5  C   UNL     1      46.585   4.448  14.191  0.00  0.00    +0.000 A 
ATOM      6  C   UNL     1      46.270   5.157  13.025  0.00  0.00    +0.000 A 
ATOM      7  C   UNL     1      46.935   6.374  12.816  0.00  0.00    +0.000 A 
ATOM      8  C   UNL     1      47.864   6.888  13.737  0.00  0.00    +0.000 A 
ATOM      9  C   UNL     1      48.168   6.141  14.881  0.00  0.00    +0.000 A 
BRANCH   6  10
ATOM     10  N   UNL     1      45.327   4.705  12.128  0.00  0.00    +0.000 N 
ATOM     11  C   UNL     1      44.409   5.603  11.416  0.00  0.00    +0.000 C 
ATOM     12  C   UNL     1      42.942   5.206  11.678  0.00  0.00    +0.000 C 
ATOM     13  N   UNL     1      42.658   3.785  11.382  0.00  0.00    +0.000 NA
ATOM     14  C   UNL     1      43.586   2.945  12.170  0.00  0.00    +0.000 C 
ATOM     15  C   UNL     1      45.082   3.267  11.935  0.00  0.00    +0.000 C 
ATOM     16  H   UNL     1      42.854   3.625  10.394  0.00  0.00    +0.000 HD
ENDBRANCH   6  10
BRANCH   8  17
ATOM     17  C   UNL     1      48.480   8.250  13.533  0.00  0.00    +0.000 C 
ATOM     18  F   UNL     1      49.608   8.457  14.267  0.00  0.00    +0.000 F 
ATOM     19  F   UNL     1      48.840   8.455  12.235  0.00  0.00    +0.000 F 
ATOM     20  F   UNL     1      47.632   9.265  13.851  0.00  0.00    +0.000 F 
ENDBRANCH   8  17
ENDBRANCH   1   4
BRANCH   1  21
ATOM     21  C   UNL     1      49.103   4.657  17.050  0.00  0.00    +0.000 C 
BRANCH  21  22
ATOM     22  N   UNL     1      48.919   5.315  18.353  0.00  0.00    +0.000 N 
ATOM     23  H   UNL     1      48.458   4.741  19.059  0.00  0.00    +0.000 HD
BRANCH  22  27
ATOM     24  C   UNL     1      47.937   9.418  18.353  0.00  0.00    +0.000 A 
ATOM     25  C   UNL     1      47.173   8.530  19.111  0.00  0.00    +0.000 A 
ATOM     26  C   UNL     1      47.498   7.169  19.133  0.00  0.00    +0.000 A 
ATOM     27  C   UNL     1      48.604   6.669  18.432  0.00  0.00    +0.000 A 
ATOM     28  C   UNL     1      49.343   7.573  17.655  0.00  0.00    +0.000 A 
ATOM     29  C   UNL     1      49.014   8.933  17.609  0.00  0.00    +0.000 A 
BRANCH  24  31
ATOM     30  N   UNL     1      47.903  11.516  17.118  0.00  0.00    +0.000 N 
ATOM     31  C   UNL     1      47.612  10.867  18.285  0.00  0.00    +0.000 C 
ATOM     32  O   UNL     1      47.074  11.452  19.216  0.00  0.00    +0.000 OA
ATOM     33  H   UNL     1      47.579  12.470  17.045  0.00  0.00    +0.000 HD
ATOM     34  H   UNL     1      48.108  11.022  16.258  0.00  0.00    +0.000 HD
ENDBRANCH  24  31
ENDBRANCH  22  27
ENDBRANCH  21  22
ENDBRANCH   1  21
TORSDOF 7
ENDMDL
MODEL 8
REMARK VINA RESULT:    -6.438      3.544      5.702
REMARK INTER + INTRA:         -10.311
REMARK INTER:                  -9.030
REMARK INTRA:                  -1.281
REMARK UNBOUND:                -1.238
REMARK  Name = 
REMARK  7 active torsions:
REMARK  status: ('A' for Active; 'I' for Inactive)
REMARK    1  A    between atoms: C_2  and  C_4
REMARK    2  A    between atoms: C_7  and  N_8
REMARK    3  A    between atoms: N_8  and  C_9
REMARK    4  A    between atoms: C_9  and  C_10
REMARK    5  A    between atoms: C_10  and  C_13
REMARK    6  A    between atoms: C_15  and  N_16
REMARK    7  A    between atoms: C_23  and  C_24
REMARK                            x       y       z     vdW  Elec       q    Type
REMARK                         _______ _______ _______ _____ _____    ______ ____
ROOT
ATOM      1  C   UNL     1      49.453   8.125  14.709  0.00  0.00    +0.000 C 
ATOM      2  F   UNL     1      50.781   8.426  14.632  0.00  0.00    +0.000 F 
ATOM      3  F   UNL     1      48.798   9.302  14.468  0.00  0.00    +0.000 F 
ENDROOT
BRANCH   1   4
ATOM      4  C   UNL     1      49.085   7.520  16.052  0.00  0.00    +0.000 A 
ATOM      5  C   UNL     1      49.349   6.165  16.317  0.00  0.00    +0.000 A 
ATOM      6  C   UNL     1      49.090   5.584  17.566  0.00  0.00    +0.000 A 
ATOM      7  C   UNL     1      48.549   6.415  18.557  0.00  0.00    +0.000 A 
ATOM      8  C   UNL     1      48.295   7.779  18.336  0.00  0.00    +0.000 A 
ATOM      9  C   UNL     1      48.548   8.319  17.069  0.00  0.00    +0.000 A 
BRANCH   6  10
ATOM     10  N   UNL     1      49.376   4.263  17.830  0.00  0.00    +0.000 N 
ATOM     11  C   UNL     1      50.679   3.816  18.337  0.00  0.00    +0.000 C 
ATOM     12  C   UNL     1      51.296   2.756  17.400  0.00  0.00    +0.000 C 
ATOM     13  N   UNL     1      50.392   1.617  17.130  0.00  0.00    +0.000 NA
ATOM     14  C   UNL     1      49.125   2.141  16.577  0.00  0.00    +0.000 C 
ATOM     15  C   UNL     1      48.430   3.191  17.481  0.00  0.00    +0.000 C 
ATOM     16  H   UNL     1      50.183   1.164  18.019  0.00  0.00    +0.000 HD
ENDBRANCH   6  10
BRANCH   8  17
ATOM     17  C   UNL     1      47.813   8.667  19.458  0.00  0.00    +0.000 C 
ATOM     18  F   UNL     1      47.683   8.021  20.650  0.00  0.00    +0.000 F 
ATOM     19  F   UNL     1      48.667   9.702  19.689  0.00  0.00    +0.000 F 
ATOM     20  F   UNL     1      46.602   9.230  19.200  0.00  0.00    +0.000 F 
ENDBRANCH   8  17
ENDBRANCH   1   4
BRANCH   1  21
ATOM     21  C   UNL     1      49.086   7.127  13.579  0.00  0.00    +0.000 C 
BRANCH  21  22
ATOM     22  N   UNL     1      47.796   7.412  12.931  0.00  0.00    +0.000 N 
ATOM     23  H   UNL     1      47.302   8.222  13.305  0.00  0.00    +0.000 HD
BRANCH  22  27
ATOM     24  C   UNL     1      45.116   4.329  11.877  0.00  0.00    +0.000 A 
ATOM     25  C   UNL     1      45.389   5.345  10.959  0.00  0.00    +0.000 A 
ATOM     26  C   UNL     1      46.289   6.365  11.290  0.00  0.00    +0.000 A 
ATOM     27  C   UNL     1      46.958   6.379  12.521  0.00  0.00    +0.000 A 
ATOM     28  C   UNL     1      46.651   5.364  13.439  0.00  0.00    +0.000 A 
ATOM     29  C   UNL     1      45.736   4.351  13.127  0.00  0.00    +0.000 A 
BRANCH  24  31
ATOM     30  N   UNL     1      43.863   2.365  12.581  0.00  0.00    +0.000 N 
ATOM     31  C   UNL     1      44.151   3.241  11.573  0.00  0.00    +0.000 C 
ATOM     32  O   UNL     1      43.605   3.148  10.480  0.00  0.00    +0.000 OA
ATOM     33  H   UNL     1      43.126   1.698  12.397  0.00  0.00    +0.000 HD
ATOM     34  H   UNL     1      44.093   2.555  13.548  0.00  0.00    +0.000 HD
ENDBRANCH  24  31
ENDBRANCH  22  27
ENDBRANCH  21  22
ENDBRANCH   1  21
TORSDOF 7
ENDMDL
