MODEL 1
REMARK VINA RESULT:    -9.100      0.000      0.000
REMARK INTER + INTRA:         -12.689
REMARK INTER:                 -11.760
REMARK INTRA:                  -0.929
REMARK UNBOUND:                -0.929
REMARK  Name = 
REMARK  5 active torsions:
REMARK  status: ('A' for Active; 'I' for Inactive)
REMARK    1  A    between atoms: C_2  and  C_4
REMARK    2  A    between atoms: C_7  and  O_8
REMARK    3  A    between atoms: O_8  and  C_9
REMARK    4  A    between atoms: C_9  and  C_10
REMARK    5  A    between atoms: C_14  and  C_15
REMARK                            x       y       z     vdW  Elec       q    Type
REMARK                         _______ _______ _______ _____ _____    ______ ____
ROOT
ATOM      1  C   UNL     1      44.245   4.622  11.633  0.00  0.00    +0.000 C 
ATOM      2  C   UNL     1      43.483   3.692  12.556  0.00  0.00    +0.000 C 
ATOM      3  C   UNL     1      43.040   5.108  12.434  0.00  0.00    +0.000 C 
ENDROOT
BRANCH   1   4
ATOM      4  C   UNL     1      45.605   5.175  12.072  0.00  0.00    +0.000 A 
ATOM      5  C   UNL     1      46.227   6.246  11.417  0.00  0.00    +0.000 A 
ATOM      6  C   UNL     1      47.340   6.884  11.974  0.00  0.00    +0.000 A 
ATOM      7  C   UNL     1      47.836   6.478  13.216  0.00  0.00    +0.000 A 
ATOM      8  C   UNL     1      47.272   5.391  13.895  0.00  0.00    +0.000 A 
ATOM      9  C   UNL     1      46.212   4.718  13.261  0.00  0.00    +0.000 A 
BRANCH   8  10
ATOM     10  C   UNL     1      47.655   5.033  15.278  0.00  0.00    +0.000 A 
ATOM     11  C   UNL     1      47.107   3.937  15.959  0.00  0.00    +0.000 A 
ATOM     12  C   UNL     1      47.407   3.713  17.304  0.00  0.00    +0.000 A 
ATOM     13  C   UNL     1      48.267   4.588  17.941  0.00  0.00    +0.000 A 
ATOM     14  N   UNL     1      48.837   5.646  17.334  0.00  0.00    +0.000 NA
ATOM     15  C   UNL     1      48.513   5.842  16.030  0.00  0.00    +0.000 A 
ENDBRANCH   8  10
ENDBRANCH   1   4
BRANCH   1  16
ATOM     16  O   UNL     1      43.884   4.634  10.235  0.00  0.00    +0.000 OA
BRANCH  16  20
ATOM     17  C   UNL     1      46.128   2.160   7.906  0.00  0.00    +0.000 A 
ATOM     18  C   UNL     1      46.130   3.531   7.664  0.00  0.00    +0.000 A 
ATOM     19  C   UNL     1      45.291   4.338   8.416  0.00  0.00    +0.000 A 
ATOM     20  C   UNL     1      44.489   3.740   9.379  0.00  0.00    +0.000 A 
ATOM     21  N   UNL     1      44.376   2.408   9.560  0.00  0.00    +0.000 NA
ATOM     22  C   UNL     1      45.200   1.639   8.802  0.00  0.00    +0.000 A 
BRANCH  17  24
ATOM     23  N   UNL     1      48.248   1.901   6.791  0.00  0.00    +0.000 N 
ATOM     24  C   UNL     1      47.149   1.276   7.320  0.00  0.00    +0.000 C 
ATOM     25  O   UNL     1      47.059   0.061   7.373  0.00  0.00    +0.000 OA
ATOM     26  H   UNL     1      49.029   1.309   6.545  0.00  0.00    +0.000 HD
ATOM     27  H   UNL     1      48.451   2.872   6.995  0.00  0.00    +0.000 HD
ENDBRANCH  17  24
ENDBRANCH  16  20
ENDBRANCH   1  16
TORSDOF 5
ENDMDL
MODEL 2
REMARK VINA RESULT:    -8.524      1.610      2.350
REMARK INTER + INTRA:         -11.945
REMARK INTER:                 -11.067
REMARK INTRA:                  -0.879
REMARK UNBOUND:                -0.929
REMARK  Name = 
REMARK  5 active torsions:
REMARK  status: ('A' for Active; 'I' for Inactive)
REMARK    1  A    between atoms: C_2  and  C_4
REMARK    2  A    between atoms: C_7  and  O_8
REMARK    3  A    between atoms: O_8  and  C_9
REMARK    4  A    between atoms: C_9  and  C_10
REMARK    5  A    between atoms: C_14  and  C_15
REMARK                            x       y       z     vdW  Elec       q    Type
REMARK                         _______ _______ _______ _____ _____    ______ ____
ROOT
ATOM      1  C   UNL     1      44.666   4.566  11.582  0.00  0.00    +0.000 C 
ATOM      2  C   UNL     1      45.116   3.446  12.498  0.00  0.00    +0.000 C 
ATOM      3  C   UNL     1      43.799   4.094  12.746  0.00  0.00    +0.000 C 
ENDROOT
BRANCH   1   4
ATOM      4  C   UNL     1      45.284   5.959  11.732  0.00  0.00    +0.000 A 
ATOM      5  C   UNL     1      44.576   7.132  11.435  0.00  0.00    +0.000 A 
ATOM      6  C   UNL     1      45.071   8.387  11.803  0.00  0.00    +0.000 A 
ATOM      7  C   UNL     1      46.276   8.490  12.505  0.00  0.00    +0.000 A 
ATOM      8  C   UNL     1      47.039   7.353  12.796  0.00  0.00    +0.000 A 
ATOM      9  C   UNL     1      46.552   6.117  12.331  0.00  0.00    +0.000 A 
BRANCH   8  10
ATOM     10  C   UNL     1      48.228   7.398  13.674  0.00  0.00    +0.000 A 
ATOM     11  C   UNL     1      49.329   8.227  13.420  0.00  0.00    +0.000 A 
ATOM     12  C   UNL     1      50.479   8.143  14.207  0.00  0.00    +0.000 A 
ATOM     13  C   UNL     1      50.499   7.235  15.249  0.00  0.00    +0.000 A 
ATOM     14  N   UNL     1      49.465   6.426  15.551  0.00  0.00    +0.000 NA
ATOM     15  C   UNL     1      48.368   6.524  14.757  0.00  0.00    +0.000 A 
ENDBRANCH   8  10
ENDBRANCH   1   4
BRANCH   1  16
ATOM     16  O   UNL     1      43.994   4.209  10.355  0.00  0.00    +0.000 OA
BRANCH  16  20
ATOM     17  C   UNL     1      46.517   2.486   7.663  0.00  0.00    +0.000 A 
ATOM     18  C   UNL     1      46.309   3.863   7.636  0.00  0.00    +0.000 A 
ATOM     19  C   UNL     1      45.381   4.409   8.507  0.00  0.00    +0.000 A 
ATOM     20  C   UNL     1      44.702   3.557   9.368  0.00  0.00    +0.000 A 
ATOM     21  N   UNL     1      44.792   2.212   9.341  0.00  0.00    +0.000 NA
ATOM     22  C   UNL     1      45.700   1.701   8.470  0.00  0.00    +0.000 A 
BRANCH  17  24
ATOM     23  N   UNL     1      48.529   2.732   6.360  0.00  0.00    +0.000 N 
ATOM     24  C   UNL     1      47.641   1.865   6.944  0.00  0.00    +0.000 C 
ATOM     25  O   UNL     1      47.816   0.658   6.934  0.00  0.00    +0.000 OA
ATOM     26  H   UNL     1      49.391   2.332   6.016  0.00  0.00    +0.000 HD
ATOM     27  H   UNL     1      48.541   3.715   6.601  0.00  0.00    +0.000 HD
ENDBRANCH  17  24
ENDBRANCH  16  20
ENDBRANCH   1  16
TORSDOF 5
ENDMDL
MODEL 3
REMARK VINA RESULT:    -6.878      3.145      7.684
REMARK INTER + INTRA:          -9.818
REMARK INTER:                  -9.486
REMARK INTRA:                  -0.332
REMARK UNBOUND:                -0.929
REMARK  Name = 
REMARK  5 active torsions:
REMARK  status: ('A' for Active; 'I' for Inactive)
REMARK    1  A    between atoms: C_2  and  C_4
REMARK    2  A    between atoms: C_7  and  O_8
REMARK    3  A    between atoms: O_8  and  C_9
REMARK    4  A    between atoms: C_9  and  C_10
REMARK    5  A    between atoms: C_14  and  C_15
REMARK                            x       y       z     vdW  Elec       q    Type
REMARK                         _______ _______ _______ _____ _____    ______ ____
ROOT
ATOM      1  C   UNL     1      48.495   7.602  13.253  0.00  0.00    +0.000 C 
ATOM      2  C   UNL     1      49.677   7.324  12.346  0.00  0.00    +0.000 C 
ATOM      3  C   UNL     1      49.344   8.735  12.684  0.00  0.00    +0.000 C 
ENDROOT
BRANCH   1   4
ATOM      4  C   UNL     1      47.072   7.490  12.695  0.00  0.00    +0.000 A 
ATOM      5  C   UNL     1      46.190   8.579  12.664  0.00  0.00    +0.000 A 
ATOM      6  C   UNL     1      44.994   8.517  11.940  0.00  0.00    +0.000 A 
ATOM      7  C   UNL     1      44.672   7.371  11.208  0.00  0.00    +0.000 A 
ATOM      8  C   UNL     1      45.503   6.244  11.233  0.00  0.00    +0.000 A 
ATOM      9  C   UNL     1      46.650   6.311  12.044  0.00  0.00    +0.000 A 
BRANCH   8  10
ATOM     10  C   UNL     1      45.287   5.079  10.349  0.00  0.00    +0.000 A 
ATOM     11  C   UNL     1      45.758   5.030   9.030  0.00  0.00    +0.000 A 
ATOM     12  C   UNL     1      45.423   3.962   8.194  0.00  0.00    +0.000 A 
ATOM     13  C   UNL     1      44.630   2.951   8.704  0.00  0.00    +0.000 A 
ATOM     14  N   UNL     1      44.164   2.936   9.968  0.00  0.00    +0.000 NA
ATOM     15  C   UNL     1      44.497   3.997  10.748  0.00  0.00    +0.000 A 
ENDBRANCH   8  10
ENDBRANCH   1   4
BRANCH   1  16
ATOM     16  O   UNL     1      48.710   7.558  14.679  0.00  0.00    +0.000 OA
BRANCH  16  20
ATOM     17  C   UNL     1      48.144   4.265  17.007  0.00  0.00    +0.000 A 
ATOM     18  C   UNL     1      49.080   5.227  17.381  0.00  0.00    +0.000 A 
ATOM     19  C   UNL     1      49.312   6.292  16.527  0.00  0.00    +0.000 A 
ATOM     20  C   UNL     1      48.598   6.352  15.337  0.00  0.00    +0.000 A 
ATOM     21  N   UNL     1      47.774   5.383  14.890  0.00  0.00    +0.000 NA
ATOM     22  C   UNL     1      47.572   4.344  15.742  0.00  0.00    +0.000 A 
BRANCH  17  24
ATOM     23  N   UNL     1      48.359   3.165  19.140  0.00  0.00    +0.000 N 
ATOM     24  C   UNL     1      47.673   3.242  17.955  0.00  0.00    +0.000 C 
ATOM     25  O   UNL     1      46.687   2.560  17.734  0.00  0.00    +0.000 OA
ATOM     26  H   UNL     1      47.945   2.595  19.864  0.00  0.00    +0.000 HD
ATOM     27  H   UNL     1      48.985   3.904  19.436  0.00  0.00    +0.000 HD
ENDBRANCH  17  24
ENDBRANCH  16  20
ENDBRANCH   1  16
TORSDOF 5
ENDMDL
MODEL 4
REMARK VINA RESULT:    -6.561      3.062      5.813
REMARK INTER + INTRA:          -9.408
REMARK INTER:                  -8.464
REMARK INTRA:                  -0.944
REMARK UNBOUND:                -0.929
REMARK  Name = 
REMARK  5 active torsions:
REMARK  status: ('A' for Active; 'I' for Inactive)
REMARK    1  A    between atoms: C_2  and  C_4
REMARK    2  A    between atoms: C_7  and  O_8
REMARK    3  A    between atoms: O_8  and  C_9
REMARK    4  A    between atoms: C_9  and  C_10
REMARK    5  A    between atoms: C_14  and  C_15
REMARK                            x       y       z     vdW  Elec       q    Type
REMARK                         _______ _______ _______ _____ _____    ______ ____
ROOT
ATOM      1  C   UNL     1      48.922   7.467  15.139  0.00  0.00    +0.000 C 
ATOM      2  C   UNL     1      48.302   8.847  15.043  0.00  0.00    +0.000 C 
ATOM      3  C   UNL     1      49.773   8.703  14.860  0.00  0.00    +0.000 C 
ENDROOT
BRANCH   1   4
ATOM      4  C   UNL     1      49.116   6.821  16.515  0.00  0.00    +0.000 A 
ATOM      5  C   UNL     1      48.344   7.178  17.629  0.00  0.00    +0.000 A 
ATOM      6  C   UNL     1      48.374   6.416  18.801  0.00  0.00    +0.000 A 
ATOM      7  C   UNL     1      49.159   5.261  18.871  0.00  0.00    +0.000 A 
ATOM      8  C   UNL     1      49.975   4.881  17.799  0.00  0.00    +0.000 A 
ATOM      9  C   UNL     1      49.987   5.722  16.671  0.00  0.00    +0.000 A 
BRANCH   8  10
ATOM     10  C   UNL     1      50.691   3.587  17.766  0.00  0.00    +0.000 A 
ATOM     11  C   UNL     1      52.025   3.447  18.171  0.00  0.00    +0.000 A 
ATOM     12  C   UNL     1      52.695   2.233  18.006  0.00  0.00    +0.000 A 
ATOM     13  C   UNL     1      52.007   1.172  17.446  0.00  0.00    +0.000 A 
ATOM     14  N   UNL     1      50.720   1.244  17.055  0.00  0.00    +0.000 NA
ATOM     15  C   UNL     1      50.103   2.442  17.219  0.00  0.00    +0.000 A 
ENDBRANCH   8  10
ENDBRANCH   1   4
BRANCH   1  16
ATOM     16  O   UNL     1      48.930   6.645  13.954  0.00  0.00    +0.000 OA
BRANCH  16  20
ATOM     17  C   UNL     1      45.789   4.515  12.478  0.00  0.00    +0.000 A 
ATOM     18  C   UNL     1      46.038   5.801  12.006  0.00  0.00    +0.000 A 
ATOM     19  C   UNL     1      47.060   6.534  12.587  0.00  0.00    +0.000 A 
ATOM     20  C   UNL     1      47.791   5.949  13.613  0.00  0.00    +0.000 A 
ATOM     21  N   UNL     1      47.503   4.756  14.172  0.00  0.00    +0.000 NA
ATOM     22  C   UNL     1      46.489   4.063  13.591  0.00  0.00    +0.000 A 
BRANCH  17  24
ATOM     23  N   UNL     1      44.262   2.652  12.536  0.00  0.00    +0.000 N 
ATOM     24  C   UNL     1      44.888   3.596  11.764  0.00  0.00    +0.000 C 
ATOM     25  O   UNL     1      44.651   3.716  10.573  0.00  0.00    +0.000 OA
ATOM     26  H   UNL     1      43.515   2.132  12.097  0.00  0.00    +0.000 HD
ATOM     27  H   UNL     1      44.239   2.728  13.546  0.00  0.00    +0.000 HD
ENDBRANCH  17  24
ENDBRANCH  16  20
ENDBRANCH   1  16
TORSDOF 5
ENDMDL
MODEL 5
REMARK VINA RESULT:    -6.260      3.644      7.696
REMARK INTER + INTRA:          -9.018
REMARK INTER:                  -7.748
REMARK INTRA:                  -1.271
REMARK UNBOUND:                -0.929
REMARK  Name = 
REMARK  5 active torsions:
REMARK  status: ('A' for Active; 'I' for Inactive)
REMARK    1  A    between atoms: C_2  and  C_4
REMARK    2  A    between atoms: C_7  and  O_8
REMARK    3  A    between atoms: O_8  and  C_9
REMARK    4  A    between atoms: C_9  and  C_10
REMARK    5  A    between atoms: C_14  and  C_15
REMARK                            x       y       z     vdW  Elec       q    Type
REMARK                         _______ _______ _______ _____ _____    ______ ____
ROOT
ATOM      1  C   UNL     1      48.936   8.243  16.656  0.00  0.00    +0.000 C 
ATOM      2  C   UNL     1      49.954   9.163  17.299  0.00  0.00    +0.000 C 
ATOM      3  C   UNL     1      48.561   9.652  17.107  0.00  0.00    +0.000 C 
ENDROOT
BRANCH   1   4
ATOM      4  C   UNL     1      48.974   8.017  15.141  0.00  0.00    +0.000 A 
ATOM      5  C   UNL     1      50.126   8.248  14.376  0.00  0.00    +0.000 A 
ATOM      6  C   UNL     1      50.210   7.811  13.049  0.00  0.00    +0.000 A 
ATOM      7  C   UNL     1      49.150   7.107  12.471  0.00  0.00    +0.000 A 
ATOM      8  C   UNL     1      47.965   6.881  13.181  0.00  0.00    +0.000 A 
ATOM      9  C   UNL     1      47.883   7.413  14.481  0.00  0.00    +0.000 A 
BRANCH   8  10
ATOM     10  C   UNL     1      46.889   6.004  12.671  0.00  0.00    +0.000 A 
ATOM     11  C   UNL     1      46.481   4.838  13.333  0.00  0.00    +0.000 A 
ATOM     12  C   UNL     1      45.548   3.977  12.750  0.00  0.00    +0.000 A 
ATOM     13  C   UNL     1      45.029   4.311  11.513  0.00  0.00    +0.000 A 
ATOM     14  N   UNL     1      45.370   5.425  10.838  0.00  0.00    +0.000 NA
ATOM     15  C   UNL     1      46.289   6.232  11.429  0.00  0.00    +0.000 A 
ENDBRANCH   8  10
ENDBRANCH   1   4
BRANCH   1  16
ATOM     16  O   UNL     1      48.240   7.305  17.503  0.00  0.00    +0.000 OA
BRANCH  16  20
ATOM     17  C   UNL     1      49.575   3.463  17.317  0.00  0.00    +0.000 A 
ATOM     18  C   UNL     1      48.217   3.733  17.169  0.00  0.00    +0.000 A 
ATOM     19  C   UNL     1      47.781   5.039  17.323  0.00  0.00    +0.000 A 
ATOM     20  C   UNL     1      48.721   6.019  17.615  0.00  0.00    +0.000 A 
ATOM     21  N   UNL     1      50.021   5.776  17.879  0.00  0.00    +0.000 NA
ATOM     22  C   UNL     1      50.420   4.485  17.733  0.00  0.00    +0.000 A 
BRANCH  17  24
ATOM     23  N   UNL     1      51.045   1.622  17.824  0.00  0.00    +0.000 N 
ATOM     24  C   UNL     1      50.143   2.158  16.941  0.00  0.00    +0.000 C 
ATOM     25  O   UNL     1      49.777   1.555  15.946  0.00  0.00    +0.000 OA
ATOM     26  H   UNL     1      51.309   0.659  17.671  0.00  0.00    +0.000 HD
ATOM     27  H   UNL     1      51.135   1.980  18.767  0.00  0.00    +0.000 HD
ENDBRANCH  17  24
ENDBRANCH  16  20
ENDBRANCH   1  16
TORSDOF 5
ENDMDL
MODEL 6
REMARK VINA RESULT:    -6.258      3.172      4.980
REMARK INTER + INTRA:          -9.016
REMARK INTER:                  -8.139
REMARK INTRA:                  -0.878
REMARK UNBOUND:                -0.929
REMARK  Name = 
REMARK  5 active torsions:
REMARK  status: ('A' for Active; 'I' for Inactive)
REMARK    1  A    between atoms: C_2  and  C_4
REMARK    2  A    between atoms: C_7  and  O_8
REMARK    3  A    between atoms: O_8  and  C_9
REMARK    4  A    between atoms: C_9  and  C_10
REMARK    5  A    between atoms: C_14  and  C_15
REMARK                            x       y       z     vdW  Elec       q    Type
REMARK                         _______ _______ _______ _____ _____    ______ ____
ROOT
ATOM      1  C   UNL     1      48.469   8.106  12.866  0.00  0.00    +0.000 C 
ATOM      2  C   UNL     1      47.982   9.371  12.189  0.00  0.00    +0.000 C 
ATOM      3  C   UNL     1      49.407   8.970  12.027  0.00  0.00    +0.000 C 
ENDROOT
BRANCH   1   4
ATOM      4  C   UNL     1      48.731   8.109  14.375  0.00  0.00    +0.000 A 
ATOM      5  C   UNL     1      48.274   9.135  15.214  0.00  0.00    +0.000 A 
ATOM      6  C   UNL     1      48.315   9.000  16.606  0.00  0.00    +0.000 A 
ATOM      7  C   UNL     1      48.790   7.820  17.186  0.00  0.00    +0.000 A 
ATOM      8  C   UNL     1      49.290   6.780  16.393  0.00  0.00    +0.000 A 
ATOM      9  C   UNL     1      49.315   6.988  15.002  0.00  0.00    +0.000 A 
BRANCH   8  10
ATOM     10  C   UNL     1      49.646   5.457  16.951  0.00  0.00    +0.000 A 
ATOM     11  C   UNL     1      50.956   5.112  17.309  0.00  0.00    +0.000 A 
ATOM     12  C   UNL     1      51.263   3.811  17.715  0.00  0.00    +0.000 A 
ATOM     13  C   UNL     1      50.243   2.879  17.766  0.00  0.00    +0.000 A 
ATOM     14  N   UNL     1      48.964   3.159  17.451  0.00  0.00    +0.000 NA
ATOM     15  C   UNL     1      48.703   4.429  17.049  0.00  0.00    +0.000 A 
ENDBRANCH   8  10
ENDBRANCH   1   4
BRANCH   1  16
ATOM     16  O   UNL     1      48.283   6.853  12.174  0.00  0.00    +0.000 OA
BRANCH  16  20
ATOM     17  C   UNL     1      44.846   4.672  12.054  0.00  0.00    +0.000 A 
ATOM     18  C   UNL     1      45.066   5.673  11.110  0.00  0.00    +0.000 A 
ATOM     19  C   UNL     1      46.203   6.455  11.228  0.00  0.00    +0.000 A 
ATOM     20  C   UNL     1      47.073   6.202  12.281  0.00  0.00    +0.000 A 
ATOM     21  N   UNL     1      46.834   5.323  13.275  0.00  0.00    +0.000 NA
ATOM     22  C   UNL     1      45.706   4.577  13.142  0.00  0.00    +0.000 A 
BRANCH  17  24
ATOM     23  N   UNL     1      43.943   2.504  12.594  0.00  0.00    +0.000 N 
ATOM     24  C   UNL     1      43.797   3.657  11.865  0.00  0.00    +0.000 C 
ATOM     25  O   UNL     1      42.819   3.859  11.166  0.00  0.00    +0.000 OA
ATOM     26  H   UNL     1      43.151   1.877  12.610  0.00  0.00    +0.000 HD
ATOM     27  H   UNL     1      44.590   2.450  13.371  0.00  0.00    +0.000 HD
ENDBRANCH  17  24
ENDBRANCH  16  20
ENDBRANCH   1  16
TORSDOF 5
ENDMDL
MODEL 7
REMARK VINA RESULT:    -6.143      3.881      7.451
REMARK INTER + INTRA:          -8.868
REMARK INTER:                  -7.929
REMARK INTRA:                  -0.939
REMARK UNBOUND:                -0.929
REMARK  Name = 
REMARK  5 active torsions:
REMARK  status: ('A' for Active; 'I' for Inactive)
REMARK    1  A    between atoms: C_2  and  C_4
REMARK    2  A    between atoms: C_7  and  O_8
REMARK    3  A    between atoms: O_8  and  C_9
REMARK    4  A    between atoms: C_9  and  C_10
REMARK    5  A    between atoms: C_14  and  C_15
REMARK                            x       y       z     vdW  Elec       q    Type
REMARK                         _______ _______ _______ _____ _____    ______ ____
ROOT
ATOM      1  C   UNL     1      46.274   5.278  13.089  0.00  0.00    +0.000 C 
ATOM      2  C   UNL     1      44.854   4.794  13.305  0.00  0.00    +0.000 C 
ATOM      3  C   UNL     1      45.586   4.359  12.084  0.00  0.00    +0.000 C 
ENDROOT
BRANCH   1   4
ATOM      4  C   UNL     1      46.518   6.716  12.619  0.00  0.00    +0.000 A 
ATOM      5  C   UNL     1      45.619   7.757  12.888  0.00  0.00    +0.000 A 
ATOM      6  C   UNL     1      45.973   9.091  12.661  0.00  0.00    +0.000 A 
ATOM      7  C   UNL     1      47.249   9.411  12.187  0.00  0.00    +0.000 A 
ATOM      8  C   UNL     1      48.171   8.407  11.871  0.00  0.00    +0.000 A 
ATOM      9  C   UNL     1      47.748   7.074  12.026  0.00  0.00    +0.000 A 
BRANCH   8  10
ATOM     10  C   UNL     1      49.578   8.701  11.526  0.00  0.00    +0.000 A 
ATOM     11  C   UNL     1      50.532   7.698  11.304  0.00  0.00    +0.000 A 
ATOM     12  C   UNL     1      51.875   8.026  11.103  0.00  0.00    +0.000 A 
ATOM     13  C   UNL     1      52.237   9.360  11.116  0.00  0.00    +0.000 A 
ATOM     14  N   UNL     1      51.362  10.366  11.306  0.00  0.00    +0.000 NA
ATOM     15  C   UNL     1      50.067  10.012  11.511  0.00  0.00    +0.000 A 
ENDBRANCH   8  10
ENDBRANCH   1   4
BRANCH   1  16
ATOM     16  O   UNL     1      47.344   4.536  13.711  0.00  0.00    +0.000 OA
BRANCH  16  20
ATOM     17  C   UNL     1      48.311   4.570  17.666  0.00  0.00    +0.000 A 
ATOM     18  C   UNL     1      47.404   3.630  17.182  0.00  0.00    +0.000 A 
ATOM     19  C   UNL     1      47.029   3.697  15.850  0.00  0.00    +0.000 A 
ATOM     20  C   UNL     1      47.578   4.698  15.059  0.00  0.00    +0.000 A 
ATOM     21  N   UNL     1      48.364   5.692  15.520  0.00  0.00    +0.000 NA
ATOM     22  C   UNL     1      48.708   5.610  16.832  0.00  0.00    +0.000 A 
BRANCH  17  24
ATOM     23  N   UNL     1      48.396   3.456  19.801  0.00  0.00    +0.000 N 
ATOM     24  C   UNL     1      48.932   4.425  18.993  0.00  0.00    +0.000 C 
ATOM     25  O   UNL     1      49.912   5.071  19.322  0.00  0.00    +0.000 OA
ATOM     26  H   UNL     1      48.916   3.226  20.636  0.00  0.00    +0.000 HD
ATOM     27  H   UNL     1      47.779   2.743  19.431  0.00  0.00    +0.000 HD
ENDBRANCH  17  24
ENDBRANCH  16  20
ENDBRANCH   1  16
TORSDOF 5
ENDMDL
