MODEL 1
REMARK VINA RESULT:    -8.348      0.000      0.000
REMARK INTER + INTRA:         -12.079
REMARK INTER:                 -11.276
REMARK INTRA:                  -0.803
REMARK UNBOUND:                -0.803
REMARK  Name = 
REMARK  7 active torsions:
REMARK  status: ('A' for Active; 'I' for Inactive)
REMARK    1  A    between atoms: C_1  and  C_2
REMARK    2  A    between atoms: C_4  and  C_5
REMARK    3  A    between atoms: C_10  and  N_11
REMARK    4  A    between atoms: N_11  and  C_12
REMARK    5  A    between atoms: C_12  and  C_13
REMARK    6  A    between atoms: C_16  and  O_17
REMARK    7  A    between atoms: O_17  and  C_18
REMARK                            x       y       z     vdW  Elec       q    Type
REMARK                         _______ _______ _______ _____ _____    ______ ____
ROOT
ATOM      1  N   UNL     1      43.866   4.843   9.847  0.00  0.00    +0.000 N 
ATOM      2  H   UNL     1      42.950   4.824   9.419  0.00  0.00    +0.000 HD
ENDROOT
BRANCH   1   9
ATOM      3  C   UNL     1      43.962   1.947  10.096  0.00  0.00    +0.000 C 
ATOM      4  C   UNL     1      44.907   2.734   9.233  0.00  0.00    +0.000 A 
ATOM      5  C   UNL     1      45.877   2.032   8.496  0.00  0.00    +0.000 A 
ATOM      6  C   UNL     1      46.738   2.704   7.632  0.00  0.00    +0.000 A 
ATOM      7  C   UNL     1      46.571   4.073   7.537  0.00  0.00    +0.000 A 
ATOM      8  N   UNL     1      45.654   4.788   8.249  0.00  0.00    +0.000 NA
ATOM      9  C   UNL     1      44.842   4.133   9.113  0.00  0.00    +0.000 A 
BRANCH   6  10
ATOM     10  C   UNL     1      47.756   1.916   6.893  0.00  0.00    +0.000 C 
ATOM     11  N   UNL     1      48.727   2.565   6.186  0.00  0.00    +0.000 N 
ATOM     12  O   UNL     1      47.745   0.689   6.916  0.00  0.00    +0.000 OA
ATOM     13  H   UNL     1      48.843   3.561   6.106  0.00  0.00    +0.000 HD
ATOM     14  H   UNL     1      49.407   1.974   5.719  0.00  0.00    +0.000 HD
ENDBRANCH   6  10
ENDBRANCH   1   9
BRANCH   1  15
ATOM     15  C   UNL     1      43.914   4.974  11.314  0.00  0.00    +0.000 C 
ATOM     16  C   UNL     1      42.962   4.190  12.201  0.00  0.00    +0.000 C 
ATOM     17  C   UNL     1      42.752   5.656  12.040  0.00  0.00    +0.000 C 
BRANCH  15  18
ATOM     18  C   UNL     1      45.292   5.361  11.829  0.00  0.00    +0.000 A 
ATOM     19  C   UNL     1      45.961   6.503  11.343  0.00  0.00    +0.000 A 
ATOM     20  C   UNL     1      47.206   6.901  11.856  0.00  0.00    +0.000 A 
ATOM     21  C   UNL     1      47.790   6.178  12.886  0.00  0.00    +0.000 A 
ATOM     22  C   UNL     1      47.175   5.007  13.332  0.00  0.00    +0.000 A 
ATOM     23  C   UNL     1      45.945   4.602  12.807  0.00  0.00    +0.000 A 
BRANCH  21  24
ATOM     24  O   UNL     1      48.967   6.464  13.505  0.00  0.00    +0.000 OA
BRANCH  24  25
ATOM     25  C   UNL     1      48.963   7.252  14.687  0.00  0.00    +0.000 C 
ATOM     26  F   UNL     1      47.923   8.104  14.787  0.00  0.00    +0.000 F 
ATOM     27  F   UNL     1      48.916   6.419  15.753  0.00  0.00    +0.000 F 
ATOM     28  F   UNL     1      50.114   7.955  14.756  0.00  0.00    +0.000 F 
ENDBRANCH  24  25
ENDBRANCH  21  24
ENDBRANCH  15  18
ENDBRANCH   1  15
TORSDOF 6
ENDMDL
MODEL 2
REMARK VINA RESULT:    -7.836      1.856      2.534
REMARK INTER + INTRA:         -11.388
REMARK INTER:                 -10.071
REMARK INTRA:                  -1.316
REMARK UNBOUND:                -0.803
REMARK  Name = 
REMARK  7 active torsions:
REMARK  status: ('A' for Active; 'I' for Inactive)
REMARK    1  A    between atoms: C_1  and  C_2
REMARK    2  A    between atoms: C_4  and  C_5
REMARK    3  A    between atoms: C_10  and  N_11
REMARK    4  A    between atoms: N_11  and  C_12
REMARK    5  A    between atoms: C_12  and  C_13
REMARK    6  A    between atoms: C_16  and  O_17
REMARK    7  A    between atoms: O_17  and  C_18
REMARK                            x       y       z     vdW  Elec       q    Type
REMARK                         _______ _______ _______ _____ _____    ______ ____
ROOT
ATOM      1  N   UNL     1      43.760   4.776   9.865  0.00  0.00    +0.000 N 
ATOM      2  H   UNL     1      42.913   4.994   9.357  0.00  0.00    +0.000 HD
ENDROOT
BRANCH   1   9
ATOM      3  C   UNL     1      46.267   5.507   8.585  0.00  0.00    +0.000 C 
ATOM      4  C   UNL     1      45.740   4.101   8.628  0.00  0.00    +0.000 A 
ATOM      5  C   UNL     1      46.507   3.085   8.032  0.00  0.00    +0.000 A 
ATOM      6  C   UNL     1      46.098   1.756   8.095  0.00  0.00    +0.000 A 
ATOM      7  C   UNL     1      44.924   1.504   8.780  0.00  0.00    +0.000 A 
ATOM      8  N   UNL     1      44.146   2.465   9.354  0.00  0.00    +0.000 NA
ATOM      9  C   UNL     1      44.532   3.760   9.259  0.00  0.00    +0.000 A 
BRANCH   6  10
ATOM     10  C   UNL     1      46.936   0.725   7.432  0.00  0.00    +0.000 C 
ATOM     11  N   UNL     1      46.686  -0.597   7.662  0.00  0.00    +0.000 N 
ATOM     12  O   UNL     1      47.844   1.042   6.670  0.00  0.00    +0.000 OA
ATOM     13  H   UNL     1      45.963  -0.975   8.253  0.00  0.00    +0.000 HD
ATOM     14  H   UNL     1      47.277  -1.255   7.165  0.00  0.00    +0.000 HD
ENDBRANCH   6  10
ENDBRANCH   1   9
BRANCH   1  15
ATOM     15  C   UNL     1      43.736   4.994  11.323  0.00  0.00    +0.000 C 
ATOM     16  C   UNL     1      43.061   4.000  12.252  0.00  0.00    +0.000 C 
ATOM     17  C   UNL     1      42.406   5.315  12.007  0.00  0.00    +0.000 C 
BRANCH  15  18
ATOM     18  C   UNL     1      44.915   5.821  11.817  0.00  0.00    +0.000 A 
ATOM     19  C   UNL     1      46.010   5.218  12.468  0.00  0.00    +0.000 A 
ATOM     20  C   UNL     1      47.128   5.965  12.872  0.00  0.00    +0.000 A 
ATOM     21  C   UNL     1      47.181   7.325  12.605  0.00  0.00    +0.000 A 
ATOM     22  C   UNL     1      46.077   7.951  12.024  0.00  0.00    +0.000 A 
ATOM     23  C   UNL     1      44.957   7.208  11.638  0.00  0.00    +0.000 A 
BRANCH  21  24
ATOM     24  O   UNL     1      48.209   8.165  12.902  0.00  0.00    +0.000 OA
BRANCH  24  25
ATOM     25  C   UNL     1      49.135   8.524  11.885  0.00  0.00    +0.000 C 
ATOM     26  F   UNL     1      50.403   8.679  12.314  0.00  0.00    +0.000 F 
ATOM     27  F   UNL     1      49.134   7.549  10.946  0.00  0.00    +0.000 F 
ATOM     28  F   UNL     1      48.727   9.670  11.298  0.00  0.00    +0.000 F 
ENDBRANCH  24  25
ENDBRANCH  21  24
ENDBRANCH  15  18
ENDBRANCH   1  15
TORSDOF 6
ENDMDL
MODEL 3
REMARK VINA RESULT:    -7.453      4.409      7.202
REMARK INTER + INTRA:         -10.870
REMARK INTER:                 -10.086
REMARK INTRA:                  -0.784
REMARK UNBOUND:                -0.803
REMARK  Name = 
REMARK  7 active torsions:
REMARK  status: ('A' for Active; 'I' for Inactive)
REMARK    1  A    between atoms: C_1  and  C_2
REMARK    2  A    between atoms: C_4  and  C_5
REMARK    3  A    between atoms: C_10  and  N_11
REMARK    4  A    between atoms: N_11  and  C_12
REMARK    5  A    between atoms: C_12  and  C_13
REMARK    6  A    between atoms: C_16  and  O_17
REMARK    7  A    between atoms: O_17  and  C_18
REMARK                            x       y       z     vdW  Elec       q    Type
REMARK                         _______ _______ _______ _____ _____    ______ ____
ROOT
ATOM      1  N   UNL     1      45.923   4.218  13.396  0.00  0.00    +0.000 N 
ATOM      2  H   UNL     1      45.749   3.538  14.124  0.00  0.00    +0.000 HD
ENDROOT
BRANCH   1   9
ATOM      3  C   UNL     1      47.075   4.128  16.066  0.00  0.00    +0.000 C 
ATOM      4  C   UNL     1      47.490   5.123  15.020  0.00  0.00    +0.000 A 
ATOM      5  C   UNL     1      48.497   6.048  15.344  0.00  0.00    +0.000 A 
ATOM      6  C   UNL     1      48.964   6.953  14.394  0.00  0.00    +0.000 A 
ATOM      7  C   UNL     1      48.397   6.874  13.136  0.00  0.00    +0.000 A 
ATOM      8  N   UNL     1      47.406   6.003  12.792  0.00  0.00    +0.000 NA
ATOM      9  C   UNL     1      46.933   5.149  13.730  0.00  0.00    +0.000 A 
BRANCH   6  10
ATOM     10  C   UNL     1      50.017   7.920  14.796  0.00  0.00    +0.000 C 
ATOM     11  N   UNL     1      51.321   7.667  14.479  0.00  0.00    +0.000 N 
ATOM     12  O   UNL     1      49.732   8.950  15.400  0.00  0.00    +0.000 OA
ATOM     13  H   UNL     1      51.669   6.867  13.978  0.00  0.00    +0.000 HD
ATOM     14  H   UNL     1      51.992   8.374  14.761  0.00  0.00    +0.000 HD
ENDBRANCH   6  10
ENDBRANCH   1   9
BRANCH   1  15
ATOM     15  C   UNL     1      44.792   4.554  12.512  0.00  0.00    +0.000 C 
ATOM     16  C   UNL     1      43.851   5.697  12.848  0.00  0.00    +0.000 C 
ATOM     17  C   UNL     1      43.365   4.297  12.999  0.00  0.00    +0.000 C 
BRANCH  15  18
ATOM     18  C   UNL     1      45.042   4.172  11.061  0.00  0.00    +0.000 A 
ATOM     19  C   UNL     1      44.860   2.848  10.611  0.00  0.00    +0.000 A 
ATOM     20  C   UNL     1      45.029   2.500   9.261  0.00  0.00    +0.000 A 
ATOM     21  C   UNL     1      45.355   3.478   8.333  0.00  0.00    +0.000 A 
ATOM     22  C   UNL     1      45.606   4.779   8.771  0.00  0.00    +0.000 A 
ATOM     23  C   UNL     1      45.455   5.120  10.118  0.00  0.00    +0.000 A 
BRANCH  21  24
ATOM     24  O   UNL     1      45.513   3.297   6.994  0.00  0.00    +0.000 OA
BRANCH  24  25
ATOM     25  C   UNL     1      46.728   2.749   6.501  0.00  0.00    +0.000 C 
ATOM     26  F   UNL     1      47.838   3.216   7.107  0.00  0.00    +0.000 F 
ATOM     27  F   UNL     1      46.693   1.408   6.681  0.00  0.00    +0.000 F 
ATOM     28  F   UNL     1      46.818   2.990   5.175  0.00  0.00    +0.000 F 
ENDBRANCH  24  25
ENDBRANCH  21  24
ENDBRANCH  15  18
ENDBRANCH   1  15
TORSDOF 6
ENDMDL
MODEL 4
REMARK VINA RESULT:    -6.750      5.363      7.875
REMARK INTER + INTRA:          -9.920
REMARK INTER:                  -9.179
REMARK INTRA:                  -0.742
REMARK UNBOUND:                -0.803
REMARK  Name = 
REMARK  7 active torsions:
REMARK  status: ('A' for Active; 'I' for Inactive)
REMARK    1  A    between atoms: C_1  and  C_2
REMARK    2  A    between atoms: C_4  and  C_5
REMARK    3  A    between atoms: C_10  and  N_11
REMARK    4  A    between atoms: N_11  and  C_12
REMARK    5  A    between atoms: C_12  and  C_13
REMARK    6  A    between atoms: C_16  and  O_17
REMARK    7  A    between atoms: O_17  and  C_18
REMARK                            x       y       z     vdW  Elec       q    Type
REMARK                         _______ _______ _______ _____ _____    ______ ____
ROOT
ATOM      1  N   UNL     1      47.003   5.103  15.286  0.00  0.00    +0.000 N 
ATOM      2  H   UNL     1      46.409   5.577  15.953  0.00  0.00    +0.000 HD
ENDROOT
BRANCH   1   9
ATOM      3  C   UNL     1      48.681   6.341  17.314  0.00  0.00    +0.000 C 
ATOM      4  C   UNL     1      48.843   4.917  16.864  0.00  0.00    +0.000 A 
ATOM      5  C   UNL     1      49.847   4.139  17.466  0.00  0.00    +0.000 A 
ATOM      6  C   UNL     1      50.002   2.796  17.132  0.00  0.00    +0.000 A 
ATOM      7  C   UNL     1      49.115   2.286  16.203  0.00  0.00    +0.000 A 
ATOM      8  N   UNL     1      48.142   3.014  15.586  0.00  0.00    +0.000 NA
ATOM      9  C   UNL     1      48.018   4.328  15.891  0.00  0.00    +0.000 A 
BRANCH   6  10
ATOM     10  C   UNL     1      51.091   2.027  17.785  0.00  0.00    +0.000 C 
ATOM     11  N   UNL     1      52.020   2.683  18.542  0.00  0.00    +0.000 N 
ATOM     12  O   UNL     1      51.165   0.808  17.665  0.00  0.00    +0.000 OA
ATOM     13  H   UNL     1      52.053   3.673  18.721  0.00  0.00    +0.000 HD
ATOM     14  H   UNL     1      52.727   2.103  18.980  0.00  0.00    +0.000 HD
ENDBRANCH   6  10
ENDBRANCH   1   9
BRANCH   1  15
ATOM     15  C   UNL     1      47.171   5.746  13.970  0.00  0.00    +0.000 C 
ATOM     16  C   UNL     1      48.479   6.418  13.589  0.00  0.00    +0.000 C 
ATOM     17  C   UNL     1      47.295   7.269  13.895  0.00  0.00    +0.000 C 
BRANCH  15  18
ATOM     18  C   UNL     1      46.287   5.132  12.894  0.00  0.00    +0.000 A 
ATOM     19  C   UNL     1      46.041   5.803  11.678  0.00  0.00    +0.000 A 
ATOM     20  C   UNL     1      45.277   5.217  10.657  0.00  0.00    +0.000 A 
ATOM     21  C   UNL     1      44.769   3.937  10.824  0.00  0.00    +0.000 A 
ATOM     22  C   UNL     1      44.944   3.287  12.046  0.00  0.00    +0.000 A 
ATOM     23  C   UNL     1      45.690   3.879  13.069  0.00  0.00    +0.000 A 
BRANCH  21  24
ATOM     24  O   UNL     1      44.047   3.231   9.912  0.00  0.00    +0.000 OA
BRANCH  24  25
ATOM     25  C   UNL     1      44.724   2.438   8.946  0.00  0.00    +0.000 C 
ATOM     26  F   UNL     1      44.303   1.160   8.878  0.00  0.00    +0.000 F 
ATOM     27  F   UNL     1      44.535   2.999   7.728  0.00  0.00    +0.000 F 
ATOM     28  F   UNL     1      46.048   2.450   9.210  0.00  0.00    +0.000 F 
ENDBRANCH  24  25
ENDBRANCH  21  24
ENDBRANCH  15  18
ENDBRANCH   1  15
TORSDOF 6
ENDMDL
MODEL 5
REMARK VINA RESULT:    -6.351      5.360      8.122
REMARK INTER + INTRA:          -9.381
REMARK INTER:                  -8.694
REMARK INTRA:                  -0.687
REMARK UNBOUND:                -0.803
REMARK  Name = 
REMARK  7 active torsions:
REMARK  status: ('A' for Active; 'I' for Inactive)
REMARK    1  A    between atoms: C_1  and  C_2
REMARK    2  A    between atoms: C_4  and  C_5
REMARK    3  A    between atoms: C_10  and  N_11
REMARK    4  A    between atoms: N_11  and  C_12
REMARK    5  A    between atoms: C_12  and  C_13
REMARK    6  A    between atoms: C_16  and  O_17
REMARK    7  A    between atoms: O_17  and  C_18
REMARK                            x       y       z     vdW  Elec       q    Type
REMARK                         _______ _______ _______ _____ _____    ______ ____
ROOT
ATOM      1  N   UNL     1      48.001   5.507  16.229  0.00  0.00    +0.000 N 
ATOM      2  H   UNL     1      47.564   5.955  17.023  0.00  0.00    +0.000 HD
ENDROOT
BRANCH   1   9
ATOM      3  C   UNL     1      50.247   6.235  17.927  0.00  0.00    +0.000 C 
ATOM      4  C   UNL     1      50.025   4.846  17.402  0.00  0.00    +0.000 A 
ATOM      5  C   UNL     1      50.942   3.843  17.763  0.00  0.00    +0.000 A 
ATOM      6  C   UNL     1      50.751   2.526  17.355  0.00  0.00    +0.000 A 
ATOM      7  C   UNL     1      49.620   2.270  16.603  0.00  0.00    +0.000 A 
ATOM      8  N   UNL     1      48.720   3.219  16.219  0.00  0.00    +0.000 NA
ATOM      9  C   UNL     1      48.929   4.505  16.590  0.00  0.00    +0.000 A 
BRANCH   6  10
ATOM     10  C   UNL     1      51.761   1.511  17.750  0.00  0.00    +0.000 C 
ATOM     11  N   UNL     1      51.353   0.255  18.098  0.00  0.00    +0.000 N 
ATOM     12  O   UNL     1      52.958   1.778  17.756  0.00  0.00    +0.000 OA
ATOM     13  H   UNL     1      50.404  -0.082  18.117  0.00  0.00    +0.000 HD
ATOM     14  H   UNL     1      52.088  -0.402  18.337  0.00  0.00    +0.000 HD
ENDBRANCH   6  10
ENDBRANCH   1   9
BRANCH   1  15
ATOM     15  C   UNL     1      48.139   6.313  15.002  0.00  0.00    +0.000 C 
ATOM     16  C   UNL     1      49.447   7.006  14.665  0.00  0.00    +0.000 C 
ATOM     17  C   UNL     1      48.293   7.830  15.121  0.00  0.00    +0.000 C 
BRANCH  15  18
ATOM     18  C   UNL     1      47.206   5.860  13.888  0.00  0.00    +0.000 A 
ATOM     19  C   UNL     1      46.221   4.876  14.113  0.00  0.00    +0.000 A 
ATOM     20  C   UNL     1      45.318   4.496  13.108  0.00  0.00    +0.000 A 
ATOM     21  C   UNL     1      45.365   5.117  11.868  0.00  0.00    +0.000 A 
ATOM     22  C   UNL     1      46.377   6.042  11.606  0.00  0.00    +0.000 A 
ATOM     23  C   UNL     1      47.287   6.406  12.602  0.00  0.00    +0.000 A 
BRANCH  21  24
ATOM     24  O   UNL     1      44.535   4.881  10.817  0.00  0.00    +0.000 OA
BRANCH  24  25
ATOM     25  C   UNL     1      44.340   3.548  10.365  0.00  0.00    +0.000 C 
ATOM     26  F   UNL     1      45.385   2.724  10.585  0.00  0.00    +0.000 F 
ATOM     27  F   UNL     1      43.267   3.033  11.010  0.00  0.00    +0.000 F 
ATOM     28  F   UNL     1      44.065   3.562   9.043  0.00  0.00    +0.000 F 
ENDBRANCH  24  25
ENDBRANCH  21  24
ENDBRANCH  15  18
ENDBRANCH   1  15
TORSDOF 6
ENDMDL
MODEL 6
REMARK VINA RESULT:    -6.282      5.067      8.174
REMARK INTER + INTRA:          -9.288
REMARK INTER:                  -8.622
REMARK INTRA:                  -0.666
REMARK UNBOUND:                -0.803
REMARK  Name = 
REMARK  7 active torsions:
REMARK  status: ('A' for Active; 'I' for Inactive)
REMARK    1  A    between atoms: C_1  and  C_2
REMARK    2  A    between atoms: C_4  and  C_5
REMARK    3  A    between atoms: C_10  and  N_11
REMARK    4  A    between atoms: N_11  and  C_12
REMARK    5  A    between atoms: C_12  and  C_13
REMARK    6  A    between atoms: C_16  and  O_17
REMARK    7  A    between atoms: O_17  and  C_18
REMARK                            x       y       z     vdW  Elec       q    Type
REMARK                         _______ _______ _______ _____ _____    ______ ____
ROOT
ATOM      1  N   UNL     1      47.299   6.492  14.651  0.00  0.00    +0.000 N 
ATOM      2  H   UNL     1      46.781   7.281  15.013  0.00  0.00    +0.000 HD
ENDROOT
BRANCH   1   9
ATOM      3  C   UNL     1      49.147   8.216  16.090  0.00  0.00    +0.000 C 
ATOM      4  C   UNL     1      49.074   6.730  16.295  0.00  0.00    +0.000 A 
ATOM      5  C   UNL     1      49.933   6.146  17.242  0.00  0.00    +0.000 A 
ATOM      6  C   UNL     1      49.866   4.783  17.518  0.00  0.00    +0.000 A 
ATOM      7  C   UNL     1      48.912   4.060  16.826  0.00  0.00    +0.000 A 
ATOM      8  N   UNL     1      48.076   4.589  15.888  0.00  0.00    +0.000 NA
ATOM      9  C   UNL     1      48.169   5.910  15.601  0.00  0.00    +0.000 A 
BRANCH   6  10
ATOM     10  C   UNL     1      50.810   4.216  18.514  0.00  0.00    +0.000 C 
ATOM     11  N   UNL     1      50.549   4.359  19.846  0.00  0.00    +0.000 N 
ATOM     12  O   UNL     1      51.815   3.609  18.159  0.00  0.00    +0.000 OA
ATOM     13  H   UNL     1      49.753   4.823  20.253  0.00  0.00    +0.000 HD
ATOM     14  H   UNL     1      51.217   3.933  20.479  0.00  0.00    +0.000 HD
ENDBRANCH   6  10
ENDBRANCH   1   9
BRANCH   1  15
ATOM     15  C   UNL     1      47.584   6.488  13.205  0.00  0.00    +0.000 C 
ATOM     16  C   UNL     1      48.992   6.721  12.685  0.00  0.00    +0.000 C 
ATOM     17  C   UNL     1      47.976   7.798  12.519  0.00  0.00    +0.000 C 
BRANCH  15  18
ATOM     18  C   UNL     1      46.610   5.629  12.412  0.00  0.00    +0.000 A 
ATOM     19  C   UNL     1      46.120   6.046  11.157  0.00  0.00    +0.000 A 
ATOM     20  C   UNL     1      45.270   5.232  10.392  0.00  0.00    +0.000 A 
ATOM     21  C   UNL     1      44.917   3.974  10.857  0.00  0.00    +0.000 A 
ATOM     22  C   UNL     1      45.336   3.574  12.127  0.00  0.00    +0.000 A 
ATOM     23  C   UNL     1      46.168   4.392  12.895  0.00  0.00    +0.000 A 
BRANCH  21  24
ATOM     24  O   UNL     1      44.136   3.066  10.213  0.00  0.00    +0.000 OA
BRANCH  24  25
ATOM     25  C   UNL     1      44.634   2.412   9.054  0.00  0.00    +0.000 C 
ATOM     26  F   UNL     1      44.393   3.062   7.898  0.00  0.00    +0.000 F 
ATOM     27  F   UNL     1      45.976   2.285   9.182  0.00  0.00    +0.000 F 
ATOM     28  F   UNL     1      44.102   1.173   8.980  0.00  0.00    +0.000 F 
ENDBRANCH  24  25
ENDBRANCH  21  24
ENDBRANCH  15  18
ENDBRANCH   1  15
TORSDOF 6
ENDMDL
MODEL 7
REMARK VINA RESULT:    -6.243      4.628      7.497
REMARK INTER + INTRA:          -9.235
REMARK INTER:                  -8.839
REMARK INTRA:                  -0.396
REMARK UNBOUND:                -0.803
REMARK  Name = 
REMARK  7 active torsions:
REMARK  status: ('A' for Active; 'I' for Inactive)
REMARK    1  A    between atoms: C_1  and  C_2
REMARK    2  A    between atoms: C_4  and  C_5
REMARK    3  A    between atoms: C_10  and  N_11
REMARK    4  A    between atoms: N_11  and  C_12
REMARK    5  A    between atoms: C_12  and  C_13
REMARK    6  A    between atoms: C_16  and  O_17
REMARK    7  A    between atoms: O_17  and  C_18
REMARK                            x       y       z     vdW  Elec       q    Type
REMARK                         _______ _______ _______ _____ _____    ______ ____
ROOT
ATOM      1  N   UNL     1      48.491   7.120  13.578  0.00  0.00    +0.000 N 
ATOM      2  H   UNL     1      49.302   6.910  13.012  0.00  0.00    +0.000 HD
ENDROOT
BRANCH   1   9
ATOM      3  C   UNL     1      49.230   7.811  16.305  0.00  0.00    +0.000 C 
ATOM      4  C   UNL     1      48.625   6.491  15.923  0.00  0.00    +0.000 A 
ATOM      5  C   UNL     1      48.390   5.547  16.938  0.00  0.00    +0.000 A 
ATOM      6  C   UNL     1      47.775   4.331  16.651  0.00  0.00    +0.000 A 
ATOM      7  C   UNL     1      47.405   4.123  15.335  0.00  0.00    +0.000 A 
ATOM      8  N   UNL     1      47.633   5.007  14.322  0.00  0.00    +0.000 NA
ATOM      9  C   UNL     1      48.262   6.173  14.602  0.00  0.00    +0.000 A 
BRANCH   6  10
ATOM     10  C   UNL     1      47.568   3.364  17.758  0.00  0.00    +0.000 C 
ATOM     11  N   UNL     1      48.407   3.385  18.836  0.00  0.00    +0.000 N 
ATOM     12  O   UNL     1      46.648   2.554  17.726  0.00  0.00    +0.000 OA
ATOM     13  H   UNL     1      49.183   4.010  18.977  0.00  0.00    +0.000 HD
ATOM     14  H   UNL     1      48.204   2.716  19.570  0.00  0.00    +0.000 HD
ENDBRANCH   6  10
ENDBRANCH   1   9
BRANCH   1  15
ATOM     15  C   UNL     1      47.399   7.866  12.928  0.00  0.00    +0.000 C 
ATOM     16  C   UNL     1      47.608   9.288  12.437  0.00  0.00    +0.000 C 
ATOM     17  C   UNL     1      46.778   9.062  13.653  0.00  0.00    +0.000 C 
BRANCH  15  18
ATOM     18  C   UNL     1      46.393   6.959  12.233  0.00  0.00    +0.000 A 
ATOM     19  C   UNL     1      46.614   6.491  10.922  0.00  0.00    +0.000 A 
ATOM     20  C   UNL     1      45.721   5.606  10.297  0.00  0.00    +0.000 A 
ATOM     21  C   UNL     1      44.607   5.151  10.986  0.00  0.00    +0.000 A 
ATOM     22  C   UNL     1      44.337   5.657  12.258  0.00  0.00    +0.000 A 
ATOM     23  C   UNL     1      45.217   6.552  12.872  0.00  0.00    +0.000 A 
BRANCH  21  24
ATOM     24  O   UNL     1      43.680   4.268  10.526  0.00  0.00    +0.000 OA
BRANCH  24  25
ATOM     25  C   UNL     1      43.951   2.874  10.588  0.00  0.00    +0.000 C 
ATOM     26  F   UNL     1      43.955   2.252   9.392  0.00  0.00    +0.000 F 
ATOM     27  F   UNL     1      45.172   2.702  11.146  0.00  0.00    +0.000 F 
ATOM     28  F   UNL     1      43.039   2.280  11.387  0.00  0.00    +0.000 F 
ENDBRANCH  24  25
ENDBRANCH  21  24
ENDBRANCH  15  18
ENDBRANCH   1  15
TORSDOF 6
ENDMDL
MODEL 8
REMARK VINA RESULT:    -6.104      3.898      5.864
REMARK INTER + INTRA:          -9.048
REMARK INTER:                  -7.864
REMARK INTRA:                  -1.184
REMARK UNBOUND:                -0.803
REMARK  Name = 
REMARK  7 active torsions:
REMARK  status: ('A' for Active; 'I' for Inactive)
REMARK    1  A    between atoms: C_1  and  C_2
REMARK    2  A    between atoms: C_4  and  C_5
REMARK    3  A    between atoms: C_10  and  N_11
REMARK    4  A    between atoms: N_11  and  C_12
REMARK    5  A    between atoms: C_12  and  C_13
REMARK    6  A    between atoms: C_16  and  O_17
REMARK    7  A    between atoms: O_17  and  C_18
REMARK                            x       y       z     vdW  Elec       q    Type
REMARK                         _______ _______ _______ _____ _____    ______ ____
ROOT
ATOM      1  N   UNL     1      48.476   6.312  12.823  0.00  0.00    +0.000 N 
ATOM      2  H   UNL     1      49.143   5.729  12.335  0.00  0.00    +0.000 HD
ENDROOT
BRANCH   1   9
ATOM      3  C   UNL     1      46.966   4.636  14.659  0.00  0.00    +0.000 C 
ATOM      4  C   UNL     1      46.394   5.189  13.385  0.00  0.00    +0.000 A 
ATOM      5  C   UNL     1      45.056   4.894  13.073  0.00  0.00    +0.000 A 
ATOM      6  C   UNL     1      44.455   5.430  11.937  0.00  0.00    +0.000 A 
ATOM      7  C   UNL     1      45.239   6.265  11.162  0.00  0.00    +0.000 A 
ATOM      8  N   UNL     1      46.544   6.559  11.423  0.00  0.00    +0.000 NA
ATOM      9  C   UNL     1      47.132   6.007  12.512  0.00  0.00    +0.000 A 
BRANCH   6  10
ATOM     10  C   UNL     1      43.045   5.070  11.645  0.00  0.00    +0.000 C 
ATOM     11  N   UNL     1      42.077   6.032  11.709  0.00  0.00    +0.000 N 
ATOM     12  O   UNL     1      42.735   3.924  11.337  0.00  0.00    +0.000 OA
ATOM     13  H   UNL     1      42.214   7.003  11.937  0.00  0.00    +0.000 HD
ATOM     14  H   UNL     1      41.136   5.732  11.479  0.00  0.00    +0.000 HD
ENDBRANCH   6  10
ENDBRANCH   1   9
BRANCH   1  15
ATOM     15  C   UNL     1      48.919   7.670  13.187  0.00  0.00    +0.000 C 
ATOM     16  C   UNL     1      48.731   8.836  12.233  0.00  0.00    +0.000 C 
ATOM     17  C   UNL     1      50.102   8.292  12.443  0.00  0.00    +0.000 C 
BRANCH  15  18
ATOM     18  C   UNL     1      48.925   7.907  14.690  0.00  0.00    +0.000 A 
ATOM     19  C   UNL     1      48.270   9.019  15.258  0.00  0.00    +0.000 A 
ATOM     20  C   UNL     1      48.219   9.213  16.648  0.00  0.00    +0.000 A 
ATOM     21  C   UNL     1      48.799   8.280  17.495  0.00  0.00    +0.000 A 
ATOM     22  C   UNL     1      49.510   7.211  16.948  0.00  0.00    +0.000 A 
ATOM     23  C   UNL     1      49.575   7.030  15.564  0.00  0.00    +0.000 A 
BRANCH  21  24
ATOM     24  O   UNL     1      48.796   8.315  18.855  0.00  0.00    +0.000 OA
BRANCH  24  25
ATOM     25  C   UNL     1      47.586   8.071  19.558  0.00  0.00    +0.000 C 
ATOM     26  F   UNL     1      46.757   9.131  19.628  0.00  0.00    +0.000 F 
ATOM     27  F   UNL     1      46.923   7.071  18.931  0.00  0.00    +0.000 F 
ATOM     28  F   UNL     1      47.876   7.658  20.811  0.00  0.00    +0.000 F 
ENDBRANCH  24  25
ENDBRANCH  21  24
ENDBRANCH  15  18
ENDBRANCH   1  15
TORSDOF 6
ENDMDL
MODEL 9
REMARK VINA RESULT:    -5.746      4.952      8.037
REMARK INTER + INTRA:          -8.564
REMARK INTER:                  -7.495
REMARK INTRA:                  -1.069
REMARK UNBOUND:                -0.803
REMARK  Name = 
REMARK  7 active torsions:
REMARK  status: ('A' for Active; 'I' for Inactive)
REMARK    1  A    between atoms: C_1  and  C_2
REMARK    2  A    between atoms: C_4  and  C_5
REMARK    3  A    between atoms: C_10  and  N_11
REMARK    4  A    between atoms: N_11  and  C_12
REMARK    5  A    between atoms: C_12  and  C_13
REMARK    6  A    between atoms: C_16  and  O_17
REMARK    7  A    between atoms: O_17  and  C_18
REMARK                            x       y       z     vdW  Elec       q    Type
REMARK                         _______ _______ _______ _____ _____    ______ ____
ROOT
ATOM      1  N   UNL     1      48.687   8.091  14.719  0.00  0.00    +0.000 N 
ATOM      2  H   UNL     1      48.872   9.002  15.115  0.00  0.00    +0.000 HD
ENDROOT
BRANCH   1   9
ATOM      3  C   UNL     1      51.408   8.194  15.744  0.00  0.00    +0.000 C 
ATOM      4  C   UNL     1      50.464   7.058  16.018  0.00  0.00    +0.000 A 
ATOM      5  C   UNL     1      50.915   5.998  16.824  0.00  0.00    +0.000 A 
ATOM      6  C   UNL     1      50.064   4.949  17.161  0.00  0.00    +0.000 A 
ATOM      7  C   UNL     1      48.771   5.024  16.676  0.00  0.00    +0.000 A 
ATOM      8  N   UNL     1      48.305   6.025  15.877  0.00  0.00    +0.000 NA
ATOM      9  C   UNL     1      49.148   7.025  15.525  0.00  0.00    +0.000 A 
BRANCH   6  10
ATOM     10  C   UNL     1      50.598   3.846  18.000  0.00  0.00    +0.000 C 
ATOM     11  N   UNL     1      51.072   4.121  19.251  0.00  0.00    +0.000 N 
ATOM     12  O   UNL     1      50.609   2.690  17.591  0.00  0.00    +0.000 OA
ATOM     13  H   UNL     1      51.100   5.024  19.694  0.00  0.00    +0.000 HD
ATOM     14  H   UNL     1      51.404   3.325  19.785  0.00  0.00    +0.000 HD
ENDBRANCH   6  10
ENDBRANCH   1   9
BRANCH   1  15
ATOM     15  C   UNL     1      48.621   8.004  13.249  0.00  0.00    +0.000 C 
ATOM     16  C   UNL     1      49.877   7.801  12.420  0.00  0.00    +0.000 C 
ATOM     17  C   UNL     1      49.214   9.135  12.408  0.00  0.00    +0.000 C 
BRANCH  15  18
ATOM     18  C   UNL     1      47.283   7.481  12.747  0.00  0.00    +0.000 A 
ATOM     19  C   UNL     1      46.120   8.276  12.801  0.00  0.00    +0.000 A 
ATOM     20  C   UNL     1      44.895   7.824  12.284  0.00  0.00    +0.000 A 
ATOM     21  C   UNL     1      44.820   6.578  11.679  0.00  0.00    +0.000 A 
ATOM     22  C   UNL     1      45.944   5.750  11.679  0.00  0.00    +0.000 A 
ATOM     23  C   UNL     1      47.158   6.195  12.209  0.00  0.00    +0.000 A 
BRANCH  21  24
ATOM     24  O   UNL     1      43.718   6.026  11.104  0.00  0.00    +0.000 OA
BRANCH  24  25
ATOM     25  C   UNL     1      42.842   5.231  11.892  0.00  0.00    +0.000 C 
ATOM     26  F   UNL     1      42.836   3.922  11.572  0.00  0.00    +0.000 F 
ATOM     27  F   UNL     1      43.222   5.336  13.187  0.00  0.00    +0.000 F 
ATOM     28  F   UNL     1      41.586   5.714  11.785  0.00  0.00    +0.000 F 
ENDBRANCH  24  25
ENDBRANCH  21  24
ENDBRANCH  15  18
ENDBRANCH   1  15
TORSDOF 6
ENDMDL
