MODEL 1
REMARK VINA RESULT:    -7.873      0.000      0.000
REMARK INTER + INTRA:         -12.177
REMARK INTER:                 -11.094
REMARK INTRA:                  -1.083
REMARK UNBOUND:                -1.083
REMARK  Name = 
REMARK  8 active torsions:
REMARK  status: ('A' for Active; 'I' for Inactive)
REMARK    1  A    between atoms: C_1  and  O_2
REMARK    2  A    between atoms: O_2  and  C_3
REMARK    3  A    between atoms: C_5  and  C_6
REMARK    4  A    between atoms: C_6  and  N_7
REMARK    5  A    between atoms: C_8  and  C_10
REMARK    6  A    between atoms: C_17  and  C_18
REMARK    7  A    between atoms: C_18  and  N_19
REMARK    8  A    between atoms: C_20  and  C_22
REMARK                            x       y       z     vdW  Elec       q    Type
REMARK                         _______ _______ _______ _____ _____    ______ ____
ROOT
ATOM      1  C   UNL     1      45.303   7.249  11.753  0.00  0.00    +0.000 A 
ATOM      2  C   UNL     1      44.539   6.284  11.091  0.00  0.00    +0.000 A 
ATOM      3  C   UNL     1      44.715   4.924  11.363  0.00  0.00    +0.000 A 
ATOM      4  C   UNL     1      45.655   4.589  12.326  0.00  0.00    +0.000 A 
ATOM      5  N   UNL     1      46.426   5.487  12.980  0.00  0.00    +0.000 NA
ATOM      6  C   UNL     1      46.263   6.808  12.675  0.00  0.00    +0.000 A 
ENDROOT
BRANCH   1   8
ATOM      7  C   UNL     1      43.932   9.034  11.022  0.00  0.00    +0.000 C 
ATOM      8  O   UNL     1      45.192   8.595  11.525  0.00  0.00    +0.000 OA
ENDBRANCH   1   8
BRANCH   3   9
ATOM      9  C   UNL     1      43.920   3.880  10.636  0.00  0.00    +0.000 C 
BRANCH   9  10
ATOM     10  N   UNL     1      44.744   3.013   9.835  0.00  0.00    +0.000 N 
ATOM     11  C   UNL     1      45.225   3.366   8.597  0.00  0.00    +0.000 C 
ATOM     12  O   UNL     1      44.948   4.417   8.030  0.00  0.00    +0.000 OA
ATOM     13  H   UNL     1      45.033   2.102  10.182  0.00  0.00    +0.000 HD
BRANCH  11  14
ATOM     14  C   UNL     1      46.120   2.357   8.028  0.00  0.00    +0.000 A 
ATOM     15  C   UNL     1      47.197   2.581   7.194  0.00  0.00    +0.000 A 
ATOM     16  N   UNL     1      47.731   1.349   6.942  0.00  0.00    +0.000 N 
ATOM     17  C   UNL     1      46.982   0.428   7.618  0.00  0.00    +0.000 A 
ATOM     18  N   UNL     1      46.000   0.996   8.282  0.00  0.00    +0.000 NA
ATOM     19  H   UNL     1      48.537   1.148   6.364  0.00  0.00    +0.000 HD
ENDBRANCH  11  14
ENDBRANCH   9  10
ENDBRANCH   3   9
BRANCH   6  20
ATOM     20  C   UNL     1      47.123   7.780  13.458  0.00  0.00    +0.000 C 
BRANCH  20  21
ATOM     21  N   UNL     1      47.624   7.182  14.681  0.00  0.00    +0.000 N 
ATOM     22  C   UNL     1      48.950   6.916  14.885  0.00  0.00    +0.000 C 
ATOM     23  O   UNL     1      49.791   7.006  13.993  0.00  0.00    +0.000 OA
ATOM     24  H   UNL     1      46.992   7.207  15.470  0.00  0.00    +0.000 HD
BRANCH  22  25
ATOM     25  C   UNL     1      49.310   6.487  16.242  0.00  0.00    +0.000 A 
ATOM     26  C   UNL     1      50.105   7.289  17.048  0.00  0.00    +0.000 A 
ATOM     27  S   UNL     1      50.398   6.623  18.594  0.00  0.00    +0.000 S 
ATOM     28  C   UNL     1      49.434   5.261  18.253  0.00  0.00    +0.000 A 
ATOM     29  N   UNL     1      49.228   4.294  19.186  0.00  0.00    +0.000 NA
ATOM     30  C   UNL     1      48.446   3.340  18.805  0.00  0.00    +0.000 A 
ATOM     31  N   UNL     1      47.862   3.256  17.566  0.00  0.00    +0.000 N 
ATOM     32  C   UNL     1      48.088   4.179  16.576  0.00  0.00    +0.000 A 
ATOM     33  O   UNL     1      47.627   4.013  15.454  0.00  0.00    +0.000 OA
ATOM     34  C   UNL     1      48.926   5.296  16.968  0.00  0.00    +0.000 A 
ATOM     35  H   UNL     1      47.284   2.468  17.317  0.00  0.00    +0.000 HD
ENDBRANCH  22  25
ENDBRANCH  20  21
ENDBRANCH   6  20
TORSDOF 7
ENDMDL
MODEL 2
REMARK VINA RESULT:    -7.741      2.350      2.910
REMARK INTER + INTRA:         -11.991
REMARK INTER:                 -10.843
REMARK INTRA:                  -1.148
REMARK UNBOUND:                -1.083
REMARK  Name = 
REMARK  8 active torsions:
REMARK  status: ('A' for Active; 'I' for Inactive)
REMARK    1  A    between atoms: C_1  and  O_2
REMARK    2  A    between atoms: O_2  and  C_3
REMARK    3  A    between atoms: C_5  and  C_6
REMARK    4  A    between atoms: C_6  and  N_7
REMARK    5  A    between atoms: C_8  and  C_10
REMARK    6  A    between atoms: C_17  and  C_18
REMARK    7  A    between atoms: C_18  and  N_19
REMARK    8  A    between atoms: C_20  and  C_22
REMARK                            x       y       z     vdW  Elec       q    Type
REMARK                         _______ _______ _______ _____ _____    ______ ____
ROOT
ATOM      1  C   UNL     1      46.545   6.432  12.747  0.00  0.00    +0.000 A 
ATOM      2  C   UNL     1      45.624   5.649  12.044  0.00  0.00    +0.000 A 
ATOM      3  C   UNL     1      45.522   4.276  12.288  0.00  0.00    +0.000 A 
ATOM      4  C   UNL     1      46.351   3.744  13.264  0.00  0.00    +0.000 A 
ATOM      5  N   UNL     1      47.266   4.460  13.956  0.00  0.00    +0.000 NA
ATOM      6  C   UNL     1      47.374   5.793  13.679  0.00  0.00    +0.000 A 
ENDROOT
BRANCH   1   8
ATOM      7  C   UNL     1      45.584   8.591  12.883  0.00  0.00    +0.000 C 
ATOM      8  O   UNL     1      46.707   7.777  12.549  0.00  0.00    +0.000 OA
ENDBRANCH   1   8
BRANCH   3   9
ATOM      9  C   UNL     1      44.557   3.423  11.519  0.00  0.00    +0.000 C 
BRANCH   9  10
ATOM     10  N   UNL     1      45.187   2.703  10.444  0.00  0.00    +0.000 N 
ATOM     11  C   UNL     1      45.148   3.121   9.135  0.00  0.00    +0.000 C 
ATOM     12  O   UNL     1      44.523   4.102   8.748  0.00  0.00    +0.000 OA
ATOM     13  H   UNL     1      45.724   1.860  10.626  0.00  0.00    +0.000 HD
BRANCH  11  14
ATOM     14  C   UNL     1      45.948   2.275   8.247  0.00  0.00    +0.000 A 
ATOM     15  C   UNL     1      46.727   2.693   7.186  0.00  0.00    +0.000 A 
ATOM     16  N   UNL     1      47.290   1.558   6.674  0.00  0.00    +0.000 N 
ATOM     17  C   UNL     1      46.849   0.504   7.422  0.00  0.00    +0.000 A 
ATOM     18  N   UNL     1      46.036   0.895   8.378  0.00  0.00    +0.000 NA
ATOM     19  H   UNL     1      47.922   1.502   5.885  0.00  0.00    +0.000 HD
ENDBRANCH  11  14
ENDBRANCH   9  10
ENDBRANCH   3   9
BRANCH   6  20
ATOM     20  C   UNL     1      48.388   6.561  14.505  0.00  0.00    +0.000 C 
BRANCH  20  21
ATOM     21  N   UNL     1      48.056   6.532  15.916  0.00  0.00    +0.000 N 
ATOM     22  C   UNL     1      48.929   6.089  16.872  0.00  0.00    +0.000 C 
ATOM     23  O   UNL     1      49.987   5.530  16.597  0.00  0.00    +0.000 OA
ATOM     24  H   UNL     1      47.256   7.088  16.188  0.00  0.00    +0.000 HD
BRANCH  22  25
ATOM     25  C   UNL     1      48.508   6.301  18.263  0.00  0.00    +0.000 A 
ATOM     26  C   UNL     1      48.580   5.269  19.187  0.00  0.00    +0.000 A 
ATOM     27  S   UNL     1      48.061   5.718  20.751  0.00  0.00    +0.000 S 
ATOM     28  C   UNL     1      47.765   7.320  20.256  0.00  0.00    +0.000 A 
ATOM     29  N   UNL     1      47.332   8.260  21.136  0.00  0.00    +0.000 NA
ATOM     30  C   UNL     1      47.187   9.439  20.633  0.00  0.00    +0.000 A 
ATOM     31  N   UNL     1      47.422   9.763  19.320  0.00  0.00    +0.000 N 
ATOM     32  C   UNL     1      47.806   8.835  18.385  0.00  0.00    +0.000 A 
ATOM     33  O   UNL     1      47.907   9.147  17.205  0.00  0.00    +0.000 OA
ATOM     34  C   UNL     1      48.025   7.501  18.910  0.00  0.00    +0.000 A 
ATOM     35  H   UNL     1      47.261  10.698  18.979  0.00  0.00    +0.000 HD
ENDBRANCH  22  25
ENDBRANCH  20  21
ENDBRANCH   6  20
TORSDOF 7
ENDMDL
MODEL 3
REMARK VINA RESULT:    -7.698      1.576      2.287
REMARK INTER + INTRA:         -11.931
REMARK INTER:                 -10.875
REMARK INTRA:                  -1.056
REMARK UNBOUND:                -1.083
REMARK  Name = 
REMARK  8 active torsions:
REMARK  status: ('A' for Active; 'I' for Inactive)
REMARK    1  A    between atoms: C_1  and  O_2
REMARK    2  A    between atoms: O_2  and  C_3
REMARK    3  A    between atoms: C_5  and  C_6
REMARK    4  A    between atoms: C_6  and  N_7
REMARK    5  A    between atoms: C_8  and  C_10
REMARK    6  A    between atoms: C_17  and  C_18
REMARK    7  A    between atoms: C_18  and  N_19
REMARK    8  A    between atoms: C_20  and  C_22
REMARK                            x       y       z     vdW  Elec       q    Type
REMARK                         _______ _______ _______ _____ _____    ______ ____
ROOT
ATOM      1  C   UNL     1      46.976   5.303  13.198  0.00  0.00    +0.000 A 
ATOM      2  C   UNL     1      46.070   4.555  12.441  0.00  0.00    +0.000 A 
ATOM      3  C   UNL     1      45.308   5.160  11.436  0.00  0.00    +0.000 A 
ATOM      4  C   UNL     1      45.512   6.515  11.219  0.00  0.00    +0.000 A 
ATOM      5  N   UNL     1      46.365   7.280  11.937  0.00  0.00    +0.000 NA
ATOM      6  C   UNL     1      47.075   6.676  12.936  0.00  0.00    +0.000 A 
ENDROOT
BRANCH   1   8
ATOM      7  C   UNL     1      47.037   4.022  15.187  0.00  0.00    +0.000 C 
ATOM      8  O   UNL     1      47.742   4.777  14.204  0.00  0.00    +0.000 OA
ENDBRANCH   1   8
BRANCH   3   9
ATOM      9  C   UNL     1      44.313   4.372  10.638  0.00  0.00    +0.000 C 
BRANCH   9  10
ATOM     10  N   UNL     1      44.932   3.363   9.819  0.00  0.00    +0.000 N 
ATOM     11  C   UNL     1      45.529   3.638   8.612  0.00  0.00    +0.000 C 
ATOM     12  O   UNL     1      45.535   4.745   8.087  0.00  0.00    +0.000 OA
ATOM     13  H   UNL     1      44.980   2.397  10.130  0.00  0.00    +0.000 HD
BRANCH  11  14
ATOM     14  C   UNL     1      46.175   2.464   8.020  0.00  0.00    +0.000 A 
ATOM     15  C   UNL     1      47.095   2.456   6.990  0.00  0.00    +0.000 A 
ATOM     16  N   UNL     1      47.421   1.144   6.798  0.00  0.00    +0.000 N 
ATOM     17  C   UNL     1      46.708   0.404   7.699  0.00  0.00    +0.000 A 
ATOM     18  N   UNL     1      45.943   1.164   8.451  0.00  0.00    +0.000 NA
ATOM     19  H   UNL     1      48.074   0.779   6.116  0.00  0.00    +0.000 HD
ENDBRANCH  11  14
ENDBRANCH   9  10
ENDBRANCH   3   9
BRANCH   6  20
ATOM     20  C   UNL     1      48.045   7.565  13.690  0.00  0.00    +0.000 C 
BRANCH  20  21
ATOM     21  N   UNL     1      47.935   7.375  15.123  0.00  0.00    +0.000 N 
ATOM     22  C   UNL     1      49.013   7.088  15.916  0.00  0.00    +0.000 C 
ATOM     23  O   UNL     1      50.117   6.805  15.459  0.00  0.00    +0.000 OA
ATOM     24  H   UNL     1      47.081   7.713  15.545  0.00  0.00    +0.000 HD
BRANCH  22  25
ATOM     25  C   UNL     1      48.761   7.113  17.363  0.00  0.00    +0.000 A 
ATOM     26  C   UNL     1      48.284   8.262  17.976  0.00  0.00    +0.000 A 
ATOM     27  S   UNL     1      48.042   8.087  19.658  0.00  0.00    +0.000 S 
ATOM     28  C   UNL     1      48.523   6.454  19.615  0.00  0.00    +0.000 A 
ATOM     29  N   UNL     1      48.511   5.687  20.737  0.00  0.00    +0.000 NA
ATOM     30  C   UNL     1      48.863   4.459  20.550  0.00  0.00    +0.000 A 
ATOM     31  N   UNL     1      49.243   3.930  19.343  0.00  0.00    +0.000 N 
ATOM     32  C   UNL     1      49.325   4.681  18.197  0.00  0.00    +0.000 A 
ATOM     33  O   UNL     1      49.764   4.192  17.164  0.00  0.00    +0.000 OA
ATOM     34  C   UNL     1      48.897   6.059  18.344  0.00  0.00    +0.000 A 
ATOM     35  H   UNL     1      49.538   2.968  19.267  0.00  0.00    +0.000 HD
ENDBRANCH  22  25
ENDBRANCH  20  21
ENDBRANCH   6  20
TORSDOF 7
ENDMDL
MODEL 4
REMARK VINA RESULT:    -7.401      3.426      4.973
REMARK INTER + INTRA:         -11.512
REMARK INTER:                 -10.159
REMARK INTRA:                  -1.354
REMARK UNBOUND:                -1.083
REMARK  Name = 
REMARK  8 active torsions:
REMARK  status: ('A' for Active; 'I' for Inactive)
REMARK    1  A    between atoms: C_1  and  O_2
REMARK    2  A    between atoms: O_2  and  C_3
REMARK    3  A    between atoms: C_5  and  C_6
REMARK    4  A    between atoms: C_6  and  N_7
REMARK    5  A    between atoms: C_8  and  C_10
REMARK    6  A    between atoms: C_17  and  C_18
REMARK    7  A    between atoms: C_18  and  N_19
REMARK    8  A    between atoms: C_20  and  C_22
REMARK                            x       y       z     vdW  Elec       q    Type
REMARK                         _______ _______ _______ _____ _____    ______ ____
ROOT
ATOM      1  C   UNL     1      46.040   5.781  13.013  0.00  0.00    +0.000 A 
ATOM      2  C   UNL     1      45.572   4.580  12.473  0.00  0.00    +0.000 A 
ATOM      3  C   UNL     1      44.552   4.578  11.517  0.00  0.00    +0.000 A 
ATOM      4  C   UNL     1      44.054   5.810  11.121  0.00  0.00    +0.000 A 
ATOM      5  N   UNL     1      44.466   6.994  11.627  0.00  0.00    +0.000 NA
ATOM      6  C   UNL     1      45.439   6.973  12.585  0.00  0.00    +0.000 A 
ENDROOT
BRANCH   1   8
ATOM      7  C   UNL     1      47.169   4.706  14.794  0.00  0.00    +0.000 C 
ATOM      8  O   UNL     1      47.025   5.855  13.962  0.00  0.00    +0.000 OA
ENDBRANCH   1   8
BRANCH   3   9
ATOM      9  C   UNL     1      44.022   3.293  10.953  0.00  0.00    +0.000 C 
BRANCH   9  10
ATOM     10  N   UNL     1      44.937   2.673  10.030  0.00  0.00    +0.000 N 
ATOM     11  C   UNL     1      45.100   3.100   8.733  0.00  0.00    +0.000 C 
ATOM     12  O   UNL     1      44.443   3.998   8.220  0.00  0.00    +0.000 OA
ATOM     13  H   UNL     1      45.531   1.903  10.323  0.00  0.00    +0.000 HD
BRANCH  11  14
ATOM     14  C   UNL     1      46.159   2.375   8.028  0.00  0.00    +0.000 A 
ATOM     15  C   UNL     1      47.123   2.915   7.199  0.00  0.00    +0.000 A 
ATOM     16  N   UNL     1      47.891   1.861   6.792  0.00  0.00    +0.000 N 
ATOM     17  C   UNL     1      47.386   0.732   7.374  0.00  0.00    +0.000 A 
ATOM     18  N   UNL     1      46.341   1.000   8.124  0.00  0.00    +0.000 NA
ATOM     19  H   UNL     1      48.691   1.903   6.174  0.00  0.00    +0.000 HD
ENDBRANCH  11  14
ENDBRANCH   9  10
ENDBRANCH   3   9
BRANCH   6  20
ATOM     20  C   UNL     1      45.895   8.326  13.097  0.00  0.00    +0.000 C 
BRANCH  20  21
ATOM     21  N   UNL     1      47.000   8.846  12.315  0.00  0.00    +0.000 N 
ATOM     22  C   UNL     1      47.979   9.636  12.852  0.00  0.00    +0.000 C 
ATOM     23  O   UNL     1      47.910  10.100  13.987  0.00  0.00    +0.000 OA
ATOM     24  H   UNL     1      47.155   8.394  11.423  0.00  0.00    +0.000 HD
BRANCH  22  25
ATOM     25  C   UNL     1      49.119   9.919  11.971  0.00  0.00    +0.000 A 
ATOM     26  C   UNL     1      49.365  11.211  11.529  0.00  0.00    +0.000 A 
ATOM     27  S   UNL     1      50.744  11.338  10.528  0.00  0.00    +0.000 S 
ATOM     28  C   UNL     1      51.085   9.677  10.690  0.00  0.00    +0.000 A 
ATOM     29  N   UNL     1      52.178   9.123  10.102  0.00  0.00    +0.000 NA
ATOM     30  C   UNL     1      52.334   7.864  10.341  0.00  0.00    +0.000 A 
ATOM     31  N   UNL     1      51.485   7.102  11.103  0.00  0.00    +0.000 N 
ATOM     32  C   UNL     1      50.341   7.607  11.668  0.00  0.00    +0.000 A 
ATOM     33  O   UNL     1      49.560   6.870  12.257  0.00  0.00    +0.000 OA
ATOM     34  C   UNL     1      50.142   9.029  11.466  0.00  0.00    +0.000 A 
ATOM     35  H   UNL     1      51.644   6.114  11.228  0.00  0.00    +0.000 HD
ENDBRANCH  22  25
ENDBRANCH  20  21
ENDBRANCH   6  20
TORSDOF 7
ENDMDL
MODEL 5
REMARK VINA RESULT:    -7.330      2.511      3.389
REMARK INTER + INTRA:         -11.412
REMARK INTER:                 -10.106
REMARK INTRA:                  -1.306
REMARK UNBOUND:                -1.083
REMARK  Name = 
REMARK  8 active torsions:
REMARK  status: ('A' for Active; 'I' for Inactive)
REMARK    1  A    between atoms: C_1  and  O_2
REMARK    2  A    between atoms: O_2  and  C_3
REMARK    3  A    between atoms: C_5  and  C_6
REMARK    4  A    between atoms: C_6  and  N_7
REMARK    5  A    between atoms: C_8  and  C_10
REMARK    6  A    between atoms: C_17  and  C_18
REMARK    7  A    between atoms: C_18  and  N_19
REMARK    8  A    between atoms: C_20  and  C_22
REMARK                            x       y       z     vdW  Elec       q    Type
REMARK                         _______ _______ _______ _____ _____    ______ ____
ROOT
ATOM      1  C   UNL     1      47.400   5.606  13.304  0.00  0.00    +0.000 A 
ATOM      2  C   UNL     1      46.729   5.785  12.092  0.00  0.00    +0.000 A 
ATOM      3  C   UNL     1      45.494   5.169  11.863  0.00  0.00    +0.000 A 
ATOM      4  C   UNL     1      44.969   4.404  12.893  0.00  0.00    +0.000 A 
ATOM      5  N   UNL     1      45.591   4.191  14.075  0.00  0.00    +0.000 NA
ATOM      6  C   UNL     1      46.810   4.774  14.266  0.00  0.00    +0.000 A 
ENDROOT
BRANCH   1   8
ATOM      7  C   UNL     1      49.044   7.199  12.702  0.00  0.00    +0.000 C 
ATOM      8  O   UNL     1      48.616   6.167  13.590  0.00  0.00    +0.000 OA
ENDBRANCH   1   8
BRANCH   3   9
ATOM      9  C   UNL     1      44.779   5.331  10.554  0.00  0.00    +0.000 C 
BRANCH   9  10
ATOM     10  N   UNL     1      45.429   4.634   9.476  0.00  0.00    +0.000 N 
ATOM     11  C   UNL     1      45.188   3.313   9.182  0.00  0.00    +0.000 C 
ATOM     12  O   UNL     1      44.453   2.588   9.842  0.00  0.00    +0.000 OA
ATOM     13  H   UNL     1      46.079   5.116   8.860  0.00  0.00    +0.000 HD
BRANCH  11  14
ATOM     14  C   UNL     1      45.893   2.863   7.980  0.00  0.00    +0.000 A 
ATOM     15  C   UNL     1      46.484   1.631   7.779  0.00  0.00    +0.000 A 
ATOM     16  N   UNL     1      46.997   1.671   6.513  0.00  0.00    +0.000 N 
ATOM     17  C   UNL     1      46.708   2.899   5.988  0.00  0.00    +0.000 A 
ATOM     18  N   UNL     1      46.046   3.647   6.843  0.00  0.00    +0.000 NA
ATOM     19  H   UNL     1      47.498   0.928   6.043  0.00  0.00    +0.000 HD
ENDBRANCH  11  14
ENDBRANCH   9  10
ENDBRANCH   3   9
BRANCH   6  20
ATOM     20  C   UNL     1      47.453   4.538  15.619  0.00  0.00    +0.000 C 
BRANCH  20  21
ATOM     21  N   UNL     1      47.816   5.786  16.260  0.00  0.00    +0.000 N 
ATOM     22  C   UNL     1      49.087   6.056  16.689  0.00  0.00    +0.000 C 
ATOM     23  O   UNL     1      49.973   5.205  16.717  0.00  0.00    +0.000 OA
ATOM     24  H   UNL     1      47.156   6.544  16.146  0.00  0.00    +0.000 HD
BRANCH  22  25
ATOM     25  C   UNL     1      49.326   7.431  17.144  0.00  0.00    +0.000 A 
ATOM     26  C   UNL     1      50.232   8.246  16.480  0.00  0.00    +0.000 A 
ATOM     27  S   UNL     1      50.357   9.812  17.151  0.00  0.00    +0.000 S 
ATOM     28  C   UNL     1      49.169   9.469  18.322  0.00  0.00    +0.000 A 
ATOM     29  N   UNL     1      48.765  10.413  19.212  0.00  0.00    +0.000 NA
ATOM     30  C   UNL     1      47.832  10.026  20.016  0.00  0.00    +0.000 A 
ATOM     31  N   UNL     1      47.276   8.772  20.023  0.00  0.00    +0.000 N 
ATOM     32  C   UNL     1      47.693   7.772  19.181  0.00  0.00    +0.000 A 
ATOM     33  O   UNL     1      47.240   6.639  19.288  0.00  0.00    +0.000 OA
ATOM     34  C   UNL     1      48.711   8.168  18.226  0.00  0.00    +0.000 A 
ATOM     35  H   UNL     1      46.570   8.520  20.698  0.00  0.00    +0.000 HD
ENDBRANCH  22  25
ENDBRANCH  20  21
ENDBRANCH   6  20
TORSDOF 7
ENDMDL
MODEL 6
REMARK VINA RESULT:    -7.264      2.200      3.444
REMARK INTER + INTRA:         -11.319
REMARK INTER:                 -10.005
REMARK INTRA:                  -1.314
REMARK UNBOUND:                -1.083
REMARK  Name = 
REMARK  8 active torsions:
REMARK  status: ('A' for Active; 'I' for Inactive)
REMARK    1  A    between atoms: C_1  and  O_2
REMARK    2  A    between atoms: O_2  and  C_3
REMARK    3  A    between atoms: C_5  and  C_6
REMARK    4  A    between atoms: C_6  and  N_7
REMARK    5  A    between atoms: C_8  and  C_10
REMARK    6  A    between atoms: C_17  and  C_18
REMARK    7  A    between atoms: C_18  and  N_19
REMARK    8  A    between atoms: C_20  and  C_22
REMARK                            x       y       z     vdW  Elec       q    Type
REMARK                         _______ _______ _______ _____ _____    ______ ____
ROOT
ATOM      1  C   UNL     1      47.426   5.618  13.532  0.00  0.00    +0.000 A 
ATOM      2  C   UNL     1      46.878   5.954  12.291  0.00  0.00    +0.000 A 
ATOM      3  C   UNL     1      45.678   5.379  11.862  0.00  0.00    +0.000 A 
ATOM      4  C   UNL     1      45.058   4.490  12.727  0.00  0.00    +0.000 A 
ATOM      5  N   UNL     1      45.559   4.125  13.929  0.00  0.00    +0.000 NA
ATOM      6  C   UNL     1      46.749   4.672  14.315  0.00  0.00    +0.000 A 
ENDROOT
BRANCH   1   8
ATOM      7  C   UNL     1      48.874   7.487  13.652  0.00  0.00    +0.000 C 
ATOM      8  O   UNL     1      48.603   6.132  14.008  0.00  0.00    +0.000 OA
ENDBRANCH   1   8
BRANCH   3   9
ATOM      9  C   UNL     1      45.097   5.711  10.519  0.00  0.00    +0.000 C 
BRANCH   9  10
ATOM     10  N   UNL     1      45.684   4.940   9.454  0.00  0.00    +0.000 N 
ATOM     11  C   UNL     1      45.204   3.712   9.063  0.00  0.00    +0.000 C 
ATOM     12  O   UNL     1      44.281   3.129   9.620  0.00  0.00    +0.000 OA
ATOM     13  H   UNL     1      46.469   5.301   8.920  0.00  0.00    +0.000 HD
BRANCH  11  14
ATOM     14  C   UNL     1      45.905   3.177   7.895  0.00  0.00    +0.000 A 
ATOM     15  C   UNL     1      46.385   1.892   7.733  0.00  0.00    +0.000 A 
ATOM     16  N   UNL     1      46.943   1.861   6.487  0.00  0.00    +0.000 N 
ATOM     17  C   UNL     1      46.788   3.101   5.934  0.00  0.00    +0.000 A 
ATOM     18  N   UNL     1      46.170   3.923   6.752  0.00  0.00    +0.000 NA
ATOM     19  H   UNL     1      47.388   1.066   6.046  0.00  0.00    +0.000 HD
ENDBRANCH  11  14
ENDBRANCH   9  10
ENDBRANCH   3   9
BRANCH   6  20
ATOM     20  C   UNL     1      47.254   4.261  15.684  0.00  0.00    +0.000 C 
BRANCH  20  21
ATOM     21  N   UNL     1      47.678   5.410  16.461  0.00  0.00    +0.000 N 
ATOM     22  C   UNL     1      47.950   5.339  17.800  0.00  0.00    +0.000 C 
ATOM     23  O   UNL     1      47.697   4.345  18.477  0.00  0.00    +0.000 OA
ATOM     24  H   UNL     1      48.009   6.201  15.926  0.00  0.00    +0.000 HD
BRANCH  22  25
ATOM     25  C   UNL     1      48.545   6.543  18.392  0.00  0.00    +0.000 A 
ATOM     26  C   UNL     1      47.877   7.247  19.383  0.00  0.00    +0.000 A 
ATOM     27  S   UNL     1      48.739   8.606  19.953  0.00  0.00    +0.000 S 
ATOM     28  C   UNL     1      50.057   8.273  18.927  0.00  0.00    +0.000 A 
ATOM     29  N   UNL     1      51.173   9.048  18.941  0.00  0.00    +0.000 NA
ATOM     30  C   UNL     1      52.107   8.657  18.140  0.00  0.00    +0.000 A 
ATOM     31  N   UNL     1      52.019   7.567  17.311  0.00  0.00    +0.000 N 
ATOM     32  C   UNL     1      50.891   6.791  17.223  0.00  0.00    +0.000 A 
ATOM     33  O   UNL     1      50.819   5.889  16.398  0.00  0.00    +0.000 OA
ATOM     34  C   UNL     1      49.827   7.163  18.136  0.00  0.00    +0.000 A 
ATOM     35  H   UNL     1      52.773   7.330  16.684  0.00  0.00    +0.000 HD
ENDBRANCH  22  25
ENDBRANCH  20  21
ENDBRANCH   6  20
TORSDOF 7
ENDMDL
MODEL 7
REMARK VINA RESULT:    -7.170      1.538      2.063
REMARK INTER + INTRA:         -11.186
REMARK INTER:                  -9.816
REMARK INTRA:                  -1.370
REMARK UNBOUND:                -1.083
REMARK  Name = 
REMARK  8 active torsions:
REMARK  status: ('A' for Active; 'I' for Inactive)
REMARK    1  A    between atoms: C_1  and  O_2
REMARK    2  A    between atoms: O_2  and  C_3
REMARK    3  A    between atoms: C_5  and  C_6
REMARK    4  A    between atoms: C_6  and  N_7
REMARK    5  A    between atoms: C_8  and  C_10
REMARK    6  A    between atoms: C_17  and  C_18
REMARK    7  A    between atoms: C_18  and  N_19
REMARK    8  A    between atoms: C_20  and  C_22
REMARK                            x       y       z     vdW  Elec       q    Type
REMARK                         _______ _______ _______ _____ _____    ______ ____
ROOT
ATOM      1  C   UNL     1      47.388   6.989  12.258  0.00  0.00    +0.000 A 
ATOM      2  C   UNL     1      46.606   6.208  11.402  0.00  0.00    +0.000 A 
ATOM      3  C   UNL     1      45.223   6.398  11.326  0.00  0.00    +0.000 A 
ATOM      4  C   UNL     1      44.680   7.401  12.115  0.00  0.00    +0.000 A 
ATOM      5  N   UNL     1      45.395   8.168  12.968  0.00  0.00    +0.000 NA
ATOM      6  C   UNL     1      46.739   7.944  13.052  0.00  0.00    +0.000 A 
ENDROOT
BRANCH   1   8
ATOM      7  C   UNL     1      49.537   7.634  11.504  0.00  0.00    +0.000 C 
ATOM      8  O   UNL     1      48.744   6.847  12.391  0.00  0.00    +0.000 OA
ENDBRANCH   1   8
BRANCH   3   9
ATOM      9  C   UNL     1      44.372   5.547  10.432  0.00  0.00    +0.000 C 
BRANCH   9  10
ATOM     10  N   UNL     1      45.146   4.794   9.480  0.00  0.00    +0.000 N 
ATOM     11  C   UNL     1      44.887   3.480   9.172  0.00  0.00    +0.000 C 
ATOM     12  O   UNL     1      44.023   2.806   9.721  0.00  0.00    +0.000 OA
ATOM     13  H   UNL     1      45.907   5.230   8.966  0.00  0.00    +0.000 HD
BRANCH  11  14
ATOM     14  C   UNL     1      45.747   2.969   8.103  0.00  0.00    +0.000 A 
ATOM     15  C   UNL     1      46.305   1.708   8.019  0.00  0.00    +0.000 A 
ATOM     16  N   UNL     1      47.008   1.694   6.848  0.00  0.00    +0.000 N 
ATOM     17  C   UNL     1      46.860   2.919   6.261  0.00  0.00    +0.000 A 
ATOM     18  N   UNL     1      46.109   3.716   6.989  0.00  0.00    +0.000 NA
ATOM     19  H   UNL     1      47.540   0.918   6.475  0.00  0.00    +0.000 HD
ENDBRANCH  11  14
ENDBRANCH   9  10
ENDBRANCH   3   9
BRANCH   6  20
ATOM     20  C   UNL     1      47.505   8.852  13.994  0.00  0.00    +0.000 C 
BRANCH  20  21
ATOM     21  N   UNL     1      47.921   8.148  15.191  0.00  0.00    +0.000 N 
ATOM     22  C   UNL     1      49.227   8.077  15.593  0.00  0.00    +0.000 C 
ATOM     23  O   UNL     1      50.159   8.457  14.890  0.00  0.00    +0.000 OA
ATOM     24  H   UNL     1      47.183   7.931  15.848  0.00  0.00    +0.000 HD
BRANCH  22  25
ATOM     25  C   UNL     1      49.452   7.490  16.920  0.00  0.00    +0.000 A 
ATOM     26  C   UNL     1      50.036   8.237  17.932  0.00  0.00    +0.000 A 
ATOM     27  S   UNL     1      50.198   7.382  19.402  0.00  0.00    +0.000 S 
ATOM     28  C   UNL     1      49.450   6.000  18.748  0.00  0.00    +0.000 A 
ATOM     29  N   UNL     1      49.236   4.892  19.505  0.00  0.00    +0.000 NA
ATOM     30  C   UNL     1      48.625   3.934  18.891  0.00  0.00    +0.000 A 
ATOM     31  N   UNL     1      48.222   3.977  17.581  0.00  0.00    +0.000 N 
ATOM     32  C   UNL     1      48.468   5.053  16.765  0.00  0.00    +0.000 A 
ATOM     33  O   UNL     1      48.181   5.009  15.575  0.00  0.00    +0.000 OA
ATOM     34  C   UNL     1      49.114   6.175  17.419  0.00  0.00    +0.000 A 
ATOM     35  H   UNL     1      47.776   3.183  17.148  0.00  0.00    +0.000 HD
ENDBRANCH  22  25
ENDBRANCH  20  21
ENDBRANCH   6  20
TORSDOF 7
ENDMDL
MODEL 8
REMARK VINA RESULT:    -7.133      3.936      6.111
REMARK INTER + INTRA:         -11.135
REMARK INTER:                 -10.213
REMARK INTRA:                  -0.921
REMARK UNBOUND:                -1.083
REMARK  Name = 
REMARK  8 active torsions:
REMARK  status: ('A' for Active; 'I' for Inactive)
REMARK    1  A    between atoms: C_1  and  O_2
REMARK    2  A    between atoms: O_2  and  C_3
REMARK    3  A    between atoms: C_5  and  C_6
REMARK    4  A    between atoms: C_6  and  N_7
REMARK    5  A    between atoms: C_8  and  C_10
REMARK    6  A    between atoms: C_17  and  C_18
REMARK    7  A    between atoms: C_18  and  N_19
REMARK    8  A    between atoms: C_20  and  C_22
REMARK                            x       y       z     vdW  Elec       q    Type
REMARK                         _______ _______ _______ _____ _____    ______ ____
ROOT
ATOM      1  C   UNL     1      45.095   6.138  12.699  0.00  0.00    +0.000 A 
ATOM      2  C   UNL     1      44.820   7.396  12.155  0.00  0.00    +0.000 A 
ATOM      3  C   UNL     1      45.672   8.478  12.393  0.00  0.00    +0.000 A 
ATOM      4  C   UNL     1      46.799   8.237  13.164  0.00  0.00    +0.000 A 
ATOM      5  N   UNL     1      47.096   7.042  13.722  0.00  0.00    +0.000 NA
ATOM      6  C   UNL     1      46.233   6.006  13.506  0.00  0.00    +0.000 A 
ENDROOT
BRANCH   1   8
ATOM      7  C   UNL     1      42.904   5.244  12.750  0.00  0.00    +0.000 C 
ATOM      8  O   UNL     1      44.296   5.041  12.517  0.00  0.00    +0.000 OA
ENDBRANCH   1   8
BRANCH   3   9
ATOM      9  C   UNL     1      45.370   9.839  11.838  0.00  0.00    +0.000 C 
BRANCH   9  10
ATOM     10  N   UNL     1      43.993  10.217  12.013  0.00  0.00    +0.000 N 
ATOM     11  C   UNL     1      43.220  10.731  10.998  0.00  0.00    +0.000 C 
ATOM     12  O   UNL     1      43.642  10.978   9.874  0.00  0.00    +0.000 OA
ATOM     13  H   UNL     1      43.524  10.080  12.904  0.00  0.00    +0.000 HD
BRANCH  11  14
ATOM     14  C   UNL     1      41.827  10.941  11.398  0.00  0.00    +0.000 A 
ATOM     15  C   UNL     1      40.699  10.601  10.678  0.00  0.00    +0.000 A 
ATOM     16  N   UNL     1      39.640  10.973  11.457  0.00  0.00    +0.000 N 
ATOM     17  C   UNL     1      40.142  11.515  12.607  0.00  0.00    +0.000 A 
ATOM     18  N   UNL     1      41.456  11.516  12.607  0.00  0.00    +0.000 NA
ATOM     19  H   UNL     1      38.659  10.866  11.231  0.00  0.00    +0.000 HD
ENDBRANCH  11  14
ENDBRANCH   9  10
ENDBRANCH   3   9
BRANCH   6  20
ATOM     20  C   UNL     1      46.625   4.677  14.121  0.00  0.00    +0.000 C 
BRANCH  20  21
ATOM     21  N   UNL     1      47.710   4.829  15.071  0.00  0.00    +0.000 N 
ATOM     22  C   UNL     1      47.640   4.361  16.355  0.00  0.00    +0.000 C 
ATOM     23  O   UNL     1      46.602   3.930  16.849  0.00  0.00    +0.000 OA
ATOM     24  H   UNL     1      48.609   5.066  14.673  0.00  0.00    +0.000 HD
BRANCH  22  25
ATOM     25  C   UNL     1      48.889   4.430  17.124  0.00  0.00    +0.000 A 
ATOM     26  C   UNL     1      49.180   5.544  17.899  0.00  0.00    +0.000 A 
ATOM     27  S   UNL     1      50.669   5.426  18.728  0.00  0.00    +0.000 S 
ATOM     28  C   UNL     1      50.953   3.863  18.114  0.00  0.00    +0.000 A 
ATOM     29  N   UNL     1      52.060   3.160  18.468  0.00  0.00    +0.000 NA
ATOM     30  C   UNL     1      52.128   1.975  17.959  0.00  0.00    +0.000 A 
ATOM     31  N   UNL     1      51.194   1.434  17.112  0.00  0.00    +0.000 N 
ATOM     32  C   UNL     1      50.091   2.130  16.684  0.00  0.00    +0.000 A 
ATOM     33  O   UNL     1      49.336   1.646  15.850  0.00  0.00    +0.000 OA
ATOM     34  C   UNL     1      49.945   3.452  17.262  0.00  0.00    +0.000 A 
ATOM     35  H   UNL     1      51.318   0.513  16.722  0.00  0.00    +0.000 HD
ENDBRANCH  22  25
ENDBRANCH  20  21
ENDBRANCH   6  20
TORSDOF 7
ENDMDL
MODEL 9
REMARK VINA RESULT:    -6.862      3.363      8.423
REMARK INTER + INTRA:         -10.753
REMARK INTER:                  -9.709
REMARK INTRA:                  -1.043
REMARK UNBOUND:                -1.083
REMARK  Name = 
REMARK  8 active torsions:
REMARK  status: ('A' for Active; 'I' for Inactive)
REMARK    1  A    between atoms: C_1  and  O_2
REMARK    2  A    between atoms: O_2  and  C_3
REMARK    3  A    between atoms: C_5  and  C_6
REMARK    4  A    between atoms: C_6  and  N_7
REMARK    5  A    between atoms: C_8  and  C_10
REMARK    6  A    between atoms: C_17  and  C_18
REMARK    7  A    between atoms: C_18  and  N_19
REMARK    8  A    between atoms: C_20  and  C_22
REMARK                            x       y       z     vdW  Elec       q    Type
REMARK                         _______ _______ _______ _____ _____    ______ ____
ROOT
ATOM      1  C   UNL     1      49.293   6.638  15.794  0.00  0.00    +0.000 A 
ATOM      2  C   UNL     1      49.590   5.925  16.959  0.00  0.00    +0.000 A 
ATOM      3  C   UNL     1      48.915   4.739  17.261  0.00  0.00    +0.000 A 
ATOM      4  C   UNL     1      47.967   4.302  16.349  0.00  0.00    +0.000 A 
ATOM      5  N   UNL     1      47.637   4.967  15.218  0.00  0.00    +0.000 NA
ATOM      6  C   UNL     1      48.284   6.140  14.958  0.00  0.00    +0.000 A 
ENDROOT
BRANCH   1   8
ATOM      7  C   UNL     1      51.303   7.723  15.171  0.00  0.00    +0.000 C 
ATOM      8  O   UNL     1      49.906   7.812  15.445  0.00  0.00    +0.000 OA
ENDBRANCH   1   8
BRANCH   3   9
ATOM      9  C   UNL     1      49.206   3.982  18.523  0.00  0.00    +0.000 C 
BRANCH   9  10
ATOM     10  N   UNL     1      50.529   3.417  18.539  0.00  0.00    +0.000 N 
ATOM     11  C   UNL     1      50.914   2.382  17.719  0.00  0.00    +0.000 C 
ATOM     12  O   UNL     1      50.158   1.801  16.949  0.00  0.00    +0.000 OA
ATOM     13  H   UNL     1      51.251   3.795  19.146  0.00  0.00    +0.000 HD
BRANCH  11  14
ATOM     14  C   UNL     1      52.335   2.054  17.851  0.00  0.00    +0.000 A 
ATOM     15  C   UNL     1      53.401   2.923  17.724  0.00  0.00    +0.000 A 
ATOM     16  N   UNL     1      54.519   2.169  17.945  0.00  0.00    +0.000 N 
ATOM     17  C   UNL     1      54.111   0.889  18.197  0.00  0.00    +0.000 A 
ATOM     18  N   UNL     1      52.802   0.779  18.146  0.00  0.00    +0.000 NA
ATOM     19  H   UNL     1      55.477   2.494  17.930  0.00  0.00    +0.000 HD
ENDBRANCH  11  14
ENDBRANCH   9  10
ENDBRANCH   3   9
BRANCH   6  20
ATOM     20  C   UNL     1      47.908   6.832  13.663  0.00  0.00    +0.000 C 
BRANCH  20  21
ATOM     21  N   UNL     1      47.087   5.981  12.824  0.00  0.00    +0.000 N 
ATOM     22  C   UNL     1      46.263   6.474  11.850  0.00  0.00    +0.000 C 
ATOM     23  O   UNL     1      46.029   7.674  11.722  0.00  0.00    +0.000 OA
ATOM     24  H   UNL     1      47.339   5.002  12.816  0.00  0.00    +0.000 HD
BRANCH  22  25
ATOM     25  C   UNL     1      45.648   5.472  10.970  0.00  0.00    +0.000 A 
ATOM     26  C   UNL     1      45.819   5.540   9.595  0.00  0.00    +0.000 A 
ATOM     27  S   UNL     1      45.039   4.277   8.749  0.00  0.00    +0.000 S 
ATOM     28  C   UNL     1      44.485   3.571  10.196  0.00  0.00    +0.000 A 
ATOM     29  N   UNL     1      43.770   2.416  10.187  0.00  0.00    +0.000 NA
ATOM     30  C   UNL     1      43.449   1.975  11.357  0.00  0.00    +0.000 A 
ATOM     31  N   UNL     1      43.766   2.594  12.539  0.00  0.00    +0.000 N 
ATOM     32  C   UNL     1      44.437   3.790  12.593  0.00  0.00    +0.000 A 
ATOM     33  O   UNL     1      44.611   4.358  13.665  0.00  0.00    +0.000 OA
ATOM     34  C   UNL     1      44.859   4.307  11.306  0.00  0.00    +0.000 A 
ATOM     35  H   UNL     1      43.459   2.216  13.423  0.00  0.00    +0.000 HD
ENDBRANCH  22  25
ENDBRANCH  20  21
ENDBRANCH   6  20
TORSDOF 7
ENDMDL
