MODEL 1
REMARK VINA RESULT:    -7.935      0.000      0.000
REMARK INTER + INTRA:         -12.330
REMARK INTER:                 -11.182
REMARK INTRA:                  -1.148
REMARK UNBOUND:                -1.148
REMARK  Name = 
REMARK  7 active torsions:
REMARK  status: ('A' for Active; 'I' for Inactive)
REMARK    1  A    between atoms: C_2  and  C_19
REMARK    2  A    between atoms: N_3  and  C_4
REMARK    3  A    between atoms: C_4  and  C_5
REMARK    4  A    between atoms: N_8  and  C_9
REMARK    5  A    between atoms: C_9  and  C_10
REMARK    6  A    between atoms: C_10  and  C_11
REMARK    7  A    between atoms: C_11  and  N_12
REMARK                            x       y       z     vdW  Elec       q    Type
REMARK                         _______ _______ _______ _____ _____    ______ ____
ROOT
ATOM      1  O   UNL     1      47.293   3.356  14.163  0.00  0.00    +0.000 OA
ATOM      2  C   UNL     1      47.421   4.383  14.824  0.00  0.00    +0.000 C 
ATOM      3  N   UNL     1      47.146   5.624  14.305  0.00  0.00    +0.000 N 
ATOM      4  H   UNL     1      47.418   6.445  14.837  0.00  0.00    +0.000 HD
ENDROOT
BRANCH   2   5
ATOM      5  C   UNL     1      47.867   4.340  16.222  0.00  0.00    +0.000 A 
ATOM      6  C   UNL     1      47.280   3.440  17.099  0.00  0.00    +0.000 A 
ATOM      7  S   UNL     1      47.955   3.469  18.666  0.00  0.00    +0.000 S 
ATOM      8  C   UNL     1      49.084   4.660  18.214  0.00  0.00    +0.000 A 
ATOM      9  N   UNL     1      50.029   5.093  19.091  0.00  0.00    +0.000 NA
ATOM     10  C   UNL     1      50.831   5.986  18.614  0.00  0.00    +0.000 A 
ATOM     11  N   UNL     1      50.758   6.502  17.347  0.00  0.00    +0.000 N 
ATOM     12  C   UNL     1      49.797   6.124  16.442  0.00  0.00    +0.000 A 
ATOM     13  O   UNL     1      49.713   6.668  15.344  0.00  0.00    +0.000 OA
ATOM     14  C   UNL     1      48.904   5.078  16.906  0.00  0.00    +0.000 A 
ATOM     15  H   UNL     1      51.393   7.228  17.048  0.00  0.00    +0.000 HD
ENDBRANCH   2   5
BRANCH   3  16
ATOM     16  C   UNL     1      46.915   5.832  12.894  0.00  0.00    +0.000 C 
BRANCH  16  17
ATOM     17  C   UNL     1      45.518   6.418  12.626  0.00  0.00    +0.000 C 
ATOM     18  C   UNL     1      44.396   5.596  13.269  0.00  0.00    +0.000 C 
ATOM     19  C   UNL     1      44.204   4.237  12.593  0.00  0.00    +0.000 C 
ATOM     20  N   UNL     1      44.024   4.333  11.133  0.00  0.00    +0.000 NA
ATOM     21  C   UNL     1      45.089   5.124  10.490  0.00  0.00    +0.000 C 
ATOM     22  C   UNL     1      45.242   6.508  11.122  0.00  0.00    +0.000 C 
BRANCH  20  23
ATOM     23  C   UNL     1      43.977   2.995  10.512  0.00  0.00    +0.000 C 
BRANCH  23  24
ATOM     24  C   UNL     1      44.534   2.947   9.087  0.00  0.00    +0.000 C 
BRANCH  24  25
ATOM     25  C   UNL     1      45.263   1.637   8.798  0.00  0.00    +0.000 C 
BRANCH  25  26
ATOM     26  N   UNL     1      46.367   1.844   7.883  0.00  0.00    +0.000 N 
ATOM     27  C   UNL     1      46.796   3.041   7.385  0.00  0.00    +0.000 A 
ATOM     28  C   UNL     1      47.884   2.727   6.606  0.00  0.00    +0.000 A 
ATOM     29  N   UNL     1      48.115   1.374   6.611  0.00  0.00    +0.000 NA
ATOM     30  C   UNL     1      47.183   0.867   7.385  0.00  0.00    +0.000 A 
ENDBRANCH  25  26
ENDBRANCH  24  25
ENDBRANCH  23  24
ENDBRANCH  20  23
ENDBRANCH  16  17
ENDBRANCH   3  16
TORSDOF 7
ENDMDL
MODEL 2
REMARK VINA RESULT:    -7.780      1.744      2.453
REMARK INTER + INTRA:         -12.112
REMARK INTER:                 -10.973
REMARK INTRA:                  -1.138
REMARK UNBOUND:                -1.148
REMARK  Name = 
REMARK  7 active torsions:
REMARK  status: ('A' for Active; 'I' for Inactive)
REMARK    1  A    between atoms: C_2  and  C_19
REMARK    2  A    between atoms: N_3  and  C_4
REMARK    3  A    between atoms: C_4  and  C_5
REMARK    4  A    between atoms: N_8  and  C_9
REMARK    5  A    between atoms: C_9  and  C_10
REMARK    6  A    between atoms: C_10  and  C_11
REMARK    7  A    between atoms: C_11  and  N_12
REMARK                            x       y       z     vdW  Elec       q    Type
REMARK                         _______ _______ _______ _____ _____    ______ ____
ROOT
ATOM      1  O   UNL     1      47.885   6.357  12.400  0.00  0.00    +0.000 OA
ATOM      2  C   UNL     1      47.373   6.270  13.513  0.00  0.00    +0.000 C 
ATOM      3  N   UNL     1      46.019   6.127  13.685  0.00  0.00    +0.000 N 
ATOM      4  H   UNL     1      45.635   6.220  14.620  0.00  0.00    +0.000 HD
ENDROOT
BRANCH   2   5
ATOM      5  C   UNL     1      48.190   6.304  14.733  0.00  0.00    +0.000 A 
ATOM      6  C   UNL     1      49.082   7.349  14.929  0.00  0.00    +0.000 A 
ATOM      7  S   UNL     1      49.904   7.277  16.422  0.00  0.00    +0.000 S 
ATOM      8  C   UNL     1      49.067   5.866  16.875  0.00  0.00    +0.000 A 
ATOM      9  N   UNL     1      49.254   5.308  18.101  0.00  0.00    +0.000 NA
ATOM     10  C   UNL     1      48.545   4.252  18.321  0.00  0.00    +0.000 A 
ATOM     11  N   UNL     1      47.683   3.689  17.417  0.00  0.00    +0.000 N 
ATOM     12  C   UNL     1      47.492   4.195  16.154  0.00  0.00    +0.000 A 
ATOM     13  O   UNL     1      46.774   3.617  15.343  0.00  0.00    +0.000 OA
ATOM     14  C   UNL     1      48.221   5.419  15.875  0.00  0.00    +0.000 A 
ATOM     15  H   UNL     1      47.187   2.839  17.637  0.00  0.00    +0.000 HD
ENDBRANCH   2   5
BRANCH   3  16
ATOM     16  C   UNL     1      45.084   6.299  12.596  0.00  0.00    +0.000 C 
BRANCH  16  17
ATOM     17  C   UNL     1      43.766   5.550  12.853  0.00  0.00    +0.000 C 
ATOM     18  C   UNL     1      43.982   4.079  13.226  0.00  0.00    +0.000 C 
ATOM     19  C   UNL     1      44.491   3.245  12.049  0.00  0.00    +0.000 C 
ATOM     20  N   UNL     1      43.654   3.371  10.842  0.00  0.00    +0.000 NA
ATOM     21  C   UNL     1      43.426   4.777  10.464  0.00  0.00    +0.000 C 
ATOM     22  C   UNL     1      42.858   5.601  11.621  0.00  0.00    +0.000 C 
BRANCH  20  23
ATOM     23  C   UNL     1      44.257   2.657   9.699  0.00  0.00    +0.000 C 
BRANCH  23  24
ATOM     24  C   UNL     1      45.428   3.396   9.047  0.00  0.00    +0.000 C 
BRANCH  24  25
ATOM     25  C   UNL     1      45.281   3.485   7.531  0.00  0.00    +0.000 C 
BRANCH  25  26
ATOM     26  N   UNL     1      46.380   2.822   6.858  0.00  0.00    +0.000 N 
ATOM     27  C   UNL     1      46.833   3.079   5.596  0.00  0.00    +0.000 A 
ATOM     28  C   UNL     1      47.903   2.233   5.429  0.00  0.00    +0.000 A 
ATOM     29  N   UNL     1      48.099   1.466   6.549  0.00  0.00    +0.000 NA
ATOM     30  C   UNL     1      47.164   1.839   7.392  0.00  0.00    +0.000 A 
ENDBRANCH  25  26
ENDBRANCH  24  25
ENDBRANCH  23  24
ENDBRANCH  20  23
ENDBRANCH  16  17
ENDBRANCH   3  16
TORSDOF 7
ENDMDL
MODEL 3
REMARK VINA RESULT:    -7.752      1.531      2.074
REMARK INTER + INTRA:         -12.072
REMARK INTER:                 -11.076
REMARK INTRA:                  -0.996
REMARK UNBOUND:                -1.148
REMARK  Name = 
REMARK  7 active torsions:
REMARK  status: ('A' for Active; 'I' for Inactive)
REMARK    1  A    between atoms: C_2  and  C_19
REMARK    2  A    between atoms: N_3  and  C_4
REMARK    3  A    between atoms: C_4  and  C_5
REMARK    4  A    between atoms: N_8  and  C_9
REMARK    5  A    between atoms: C_9  and  C_10
REMARK    6  A    between atoms: C_10  and  C_11
REMARK    7  A    between atoms: C_11  and  N_12
REMARK                            x       y       z     vdW  Elec       q    Type
REMARK                         _______ _______ _______ _____ _____    ______ ____
ROOT
ATOM      1  O   UNL     1      49.265   6.625  14.109  0.00  0.00    +0.000 OA
ATOM      2  C   UNL     1      48.492   6.183  14.955  0.00  0.00    +0.000 C 
ATOM      3  N   UNL     1      47.404   5.416  14.621  0.00  0.00    +0.000 N 
ATOM      4  H   UNL     1      46.714   5.212  15.337  0.00  0.00    +0.000 HD
ENDROOT
BRANCH   2   5
ATOM      5  C   UNL     1      48.699   6.442  16.386  0.00  0.00    +0.000 A 
ATOM      6  C   UNL     1      48.775   7.751  16.839  0.00  0.00    +0.000 A 
ATOM      7  S   UNL     1      48.950   7.881  18.531  0.00  0.00    +0.000 S 
ATOM      8  C   UNL     1      48.891   6.191  18.720  0.00  0.00    +0.000 A 
ATOM      9  N   UNL     1      48.919   5.627  19.957  0.00  0.00    +0.000 NA
ATOM     10  C   UNL     1      48.851   4.337  19.958  0.00  0.00    +0.000 A 
ATOM     11  N   UNL     1      48.782   3.560  18.832  0.00  0.00    +0.000 N 
ATOM     12  C   UNL     1      48.792   4.083  17.563  0.00  0.00    +0.000 A 
ATOM     13  O   UNL     1      48.812   3.352  16.577  0.00  0.00    +0.000 OA
ATOM     14  C   UNL     1      48.807   5.534  17.505  0.00  0.00    +0.000 A 
ATOM     15  H   UNL     1      48.771   2.553  18.901  0.00  0.00    +0.000 HD
ENDBRANCH   2   5
BRANCH   3  16
ATOM     16  C   UNL     1      46.959   5.270  13.254  0.00  0.00    +0.000 C 
BRANCH  16  17
ATOM     17  C   UNL     1      45.861   6.288  12.901  0.00  0.00    +0.000 C 
ATOM     18  C   UNL     1      44.448   5.731  13.100  0.00  0.00    +0.000 C 
ATOM     19  C   UNL     1      44.094   4.651  12.075  0.00  0.00    +0.000 C 
ATOM     20  N   UNL     1      44.305   5.081  10.681  0.00  0.00    +0.000 NA
ATOM     21  C   UNL     1      45.656   5.627  10.463  0.00  0.00    +0.000 C 
ATOM     22  C   UNL     1      45.991   6.750  11.446  0.00  0.00    +0.000 C 
BRANCH  20  23
ATOM     23  C   UNL     1      44.078   3.967   9.739  0.00  0.00    +0.000 C 
BRANCH  23  24
ATOM     24  C   UNL     1      45.002   2.766   9.957  0.00  0.00    +0.000 C 
BRANCH  24  25
ATOM     25  C   UNL     1      44.945   1.777   8.797  0.00  0.00    +0.000 C 
BRANCH  25  26
ATOM     26  N   UNL     1      46.124   1.883   7.960  0.00  0.00    +0.000 N 
ATOM     27  C   UNL     1      46.606   3.020   7.377  0.00  0.00    +0.000 A 
ATOM     28  C   UNL     1      47.750   2.622   6.728  0.00  0.00    +0.000 A 
ATOM     29  N   UNL     1      47.964   1.277   6.895  0.00  0.00    +0.000 NA
ATOM     30  C   UNL     1      46.966   0.857   7.637  0.00  0.00    +0.000 A 
ENDBRANCH  25  26
ENDBRANCH  24  25
ENDBRANCH  23  24
ENDBRANCH  20  23
ENDBRANCH  16  17
ENDBRANCH   3  16
TORSDOF 7
ENDMDL
MODEL 4
REMARK VINA RESULT:    -6.947      2.962      8.111
REMARK INTER + INTRA:         -10.938
REMARK INTER:                  -9.787
REMARK INTRA:                  -1.151
REMARK UNBOUND:                -1.148
REMARK  Name = 
REMARK  7 active torsions:
REMARK  status: ('A' for Active; 'I' for Inactive)
REMARK    1  A    between atoms: C_2  and  C_19
REMARK    2  A    between atoms: N_3  and  C_4
REMARK    3  A    between atoms: C_4  and  C_5
REMARK    4  A    between atoms: N_8  and  C_9
REMARK    5  A    between atoms: C_9  and  C_10
REMARK    6  A    between atoms: C_10  and  C_11
REMARK    7  A    between atoms: C_11  and  N_12
REMARK                            x       y       z     vdW  Elec       q    Type
REMARK                         _______ _______ _______ _____ _____    ______ ____
ROOT
ATOM      1  O   UNL     1      44.153   7.562  11.256  0.00  0.00    +0.000 OA
ATOM      2  C   UNL     1      44.713   6.684  11.907  0.00  0.00    +0.000 C 
ATOM      3  N   UNL     1      45.592   6.974  12.920  0.00  0.00    +0.000 N 
ATOM      4  H   UNL     1      46.144   6.220  13.316  0.00  0.00    +0.000 HD
ENDROOT
BRANCH   2   5
ATOM      5  C   UNL     1      44.461   5.262  11.642  0.00  0.00    +0.000 A 
ATOM      6  C   UNL     1      43.748   4.511  12.565  0.00  0.00    +0.000 A 
ATOM      7  S   UNL     1      43.485   2.897  12.079  0.00  0.00    +0.000 S 
ATOM      8  C   UNL     1      44.283   3.157  10.599  0.00  0.00    +0.000 A 
ATOM      9  N   UNL     1      44.352   2.173   9.663  0.00  0.00    +0.000 NA
ATOM     10  C   UNL     1      44.971   2.510   8.580  0.00  0.00    +0.000 A 
ATOM     11  N   UNL     1      45.547   3.733   8.359  0.00  0.00    +0.000 N 
ATOM     12  C   UNL     1      45.536   4.741   9.291  0.00  0.00    +0.000 A 
ATOM     13  O   UNL     1      46.133   5.795   9.090  0.00  0.00    +0.000 OA
ATOM     14  C   UNL     1      44.801   4.438  10.505  0.00  0.00    +0.000 A 
ATOM     15  H   UNL     1      46.051   3.919   7.505  0.00  0.00    +0.000 HD
ENDBRANCH   2   5
BRANCH   3  16
ATOM     16  C   UNL     1      46.097   8.311  13.140  0.00  0.00    +0.000 C 
BRANCH  16  17
ATOM     17  C   UNL     1      47.348   8.593  12.291  0.00  0.00    +0.000 C 
ATOM     18  C   UNL     1      48.211   7.346  12.073  0.00  0.00    +0.000 C 
ATOM     19  C   UNL     1      48.907   6.883  13.355  0.00  0.00    +0.000 C 
ATOM     20  N   UNL     1      49.674   7.952  14.019  0.00  0.00    +0.000 NA
ATOM     21  C   UNL     1      48.867   9.166  14.236  0.00  0.00    +0.000 C 
ATOM     22  C   UNL     1      48.221   9.669  12.945  0.00  0.00    +0.000 C 
BRANCH  20  23
ATOM     23  C   UNL     1      50.214   7.495  15.315  0.00  0.00    +0.000 C 
BRANCH  23  24
ATOM     24  C   UNL     1      49.177   6.832  16.225  0.00  0.00    +0.000 C 
BRANCH  24  25
ATOM     25  C   UNL     1      49.714   5.563  16.880  0.00  0.00    +0.000 C 
BRANCH  25  26
ATOM     26  N   UNL     1      48.670   4.568  17.026  0.00  0.00    +0.000 N 
ATOM     27  C   UNL     1      48.641   3.549  17.935  0.00  0.00    +0.000 A 
ATOM     28  C   UNL     1      47.445   2.912  17.709  0.00  0.00    +0.000 A 
ATOM     29  N   UNL     1      46.759   3.510  16.682  0.00  0.00    +0.000 NA
ATOM     30  C   UNL     1      47.524   4.502  16.287  0.00  0.00    +0.000 A 
ENDBRANCH  25  26
ENDBRANCH  24  25
ENDBRANCH  23  24
ENDBRANCH  20  23
ENDBRANCH  16  17
ENDBRANCH   3  16
TORSDOF 7
ENDMDL
MODEL 5
REMARK VINA RESULT:    -6.846      3.347      8.502
REMARK INTER + INTRA:         -10.795
REMARK INTER:                  -9.366
REMARK INTRA:                  -1.429
REMARK UNBOUND:                -1.148
REMARK  Name = 
REMARK  7 active torsions:
REMARK  status: ('A' for Active; 'I' for Inactive)
REMARK    1  A    between atoms: C_2  and  C_19
REMARK    2  A    between atoms: N_3  and  C_4
REMARK    3  A    between atoms: C_4  and  C_5
REMARK    4  A    between atoms: N_8  and  C_9
REMARK    5  A    between atoms: C_9  and  C_10
REMARK    6  A    between atoms: C_10  and  C_11
REMARK    7  A    between atoms: C_11  and  N_12
REMARK                            x       y       z     vdW  Elec       q    Type
REMARK                         _______ _______ _______ _____ _____    ______ ____
ROOT
ATOM      1  O   UNL     1      48.965   6.245  12.879  0.00  0.00    +0.000 OA
ATOM      2  C   UNL     1      47.919   6.353  13.514  0.00  0.00    +0.000 C 
ATOM      3  N   UNL     1      47.907   6.636  14.858  0.00  0.00    +0.000 N 
ATOM      4  H   UNL     1      47.031   6.556  15.363  0.00  0.00    +0.000 HD
ENDROOT
BRANCH   2   5
ATOM      5  C   UNL     1      46.613   6.195  12.864  0.00  0.00    +0.000 A 
ATOM      6  C   UNL     1      45.977   7.306  12.329  0.00  0.00    +0.000 A 
ATOM      7  S   UNL     1      44.502   6.943  11.552  0.00  0.00    +0.000 S 
ATOM      8  C   UNL     1      44.681   5.282  11.871  0.00  0.00    +0.000 A 
ATOM      9  N   UNL     1      43.777   4.380  11.403  0.00  0.00    +0.000 NA
ATOM     10  C   UNL     1      44.042   3.153  11.703  0.00  0.00    +0.000 A 
ATOM     11  N   UNL     1      45.117   2.747  12.448  0.00  0.00    +0.000 N 
ATOM     12  C   UNL     1      46.033   3.624  12.974  0.00  0.00    +0.000 A 
ATOM     13  O   UNL     1      46.938   3.231  13.706  0.00  0.00    +0.000 OA
ATOM     14  C   UNL     1      45.816   5.014  12.617  0.00  0.00    +0.000 A 
ATOM     15  H   UNL     1      45.246   1.773  12.681  0.00  0.00    +0.000 HD
ENDBRANCH   2   5
BRANCH   3  16
ATOM     16  C   UNL     1      49.107   6.597  15.661  0.00  0.00    +0.000 C 
BRANCH  16  17
ATOM     17  C   UNL     1      49.555   8.007  16.083  0.00  0.00    +0.000 C 
ATOM     18  C   UNL     1      50.806   7.993  16.968  0.00  0.00    +0.000 C 
ATOM     19  C   UNL     1      50.533   7.417  18.359  0.00  0.00    +0.000 C 
ATOM     20  N   UNL     1      49.401   8.065  19.047  0.00  0.00    +0.000 NA
ATOM     21  C   UNL     1      48.186   8.097  18.214  0.00  0.00    +0.000 C 
ATOM     22  C   UNL     1      48.439   8.730  16.845  0.00  0.00    +0.000 C 
BRANCH  20  23
ATOM     23  C   UNL     1      49.094   7.389  20.322  0.00  0.00    +0.000 C 
BRANCH  23  24
ATOM     24  C   UNL     1      48.056   6.271  20.202  0.00  0.00    +0.000 C 
BRANCH  24  25
ATOM     25  C   UNL     1      48.703   4.904  19.994  0.00  0.00    +0.000 C 
BRANCH  25  26
ATOM     26  N   UNL     1      48.209   4.270  18.788  0.00  0.00    +0.000 N 
ATOM     27  C   UNL     1      48.751   3.185  18.161  0.00  0.00    +0.000 A 
ATOM     28  C   UNL     1      47.912   2.937  17.101  0.00  0.00    +0.000 A 
ATOM     29  N   UNL     1      46.888   3.849  17.065  0.00  0.00    +0.000 NA
ATOM     30  C   UNL     1      47.095   4.643  18.091  0.00  0.00    +0.000 A 
ENDBRANCH  25  26
ENDBRANCH  24  25
ENDBRANCH  23  24
ENDBRANCH  20  23
ENDBRANCH  16  17
ENDBRANCH   3  16
TORSDOF 7
ENDMDL
MODEL 6
REMARK VINA RESULT:    -6.290      3.498      8.058
REMARK INTER + INTRA:         -10.012
REMARK INTER:                  -8.955
REMARK INTRA:                  -1.058
REMARK UNBOUND:                -1.148
REMARK  Name = 
REMARK  7 active torsions:
REMARK  status: ('A' for Active; 'I' for Inactive)
REMARK    1  A    between atoms: C_2  and  C_19
REMARK    2  A    between atoms: N_3  and  C_4
REMARK    3  A    between atoms: C_4  and  C_5
REMARK    4  A    between atoms: N_8  and  C_9
REMARK    5  A    between atoms: C_9  and  C_10
REMARK    6  A    between atoms: C_10  and  C_11
REMARK    7  A    between atoms: C_11  and  N_12
REMARK                            x       y       z     vdW  Elec       q    Type
REMARK                         _______ _______ _______ _____ _____    ______ ____
ROOT
ATOM      1  O   UNL     1      47.858   5.557  13.945  0.00  0.00    +0.000 OA
ATOM      2  C   UNL     1      47.451   6.149  12.949  0.00  0.00    +0.000 C 
ATOM      3  N   UNL     1      48.254   6.989  12.219  0.00  0.00    +0.000 N 
ATOM      4  H   UNL     1      47.827   7.572  11.505  0.00  0.00    +0.000 HD
ENDROOT
BRANCH   2   5
ATOM      5  C   UNL     1      46.072   5.979  12.472  0.00  0.00    +0.000 A 
ATOM      6  C   UNL     1      45.378   7.076  11.984  0.00  0.00    +0.000 A 
ATOM      7  S   UNL     1      43.816   6.700  11.410  0.00  0.00    +0.000 S 
ATOM      8  C   UNL     1      44.030   5.048  11.758  0.00  0.00    +0.000 A 
ATOM      9  N   UNL     1      43.071   4.139  11.436  0.00  0.00    +0.000 NA
ATOM     10  C   UNL     1      43.368   2.919  11.741  0.00  0.00    +0.000 A 
ATOM     11  N   UNL     1      44.527   2.530  12.359  0.00  0.00    +0.000 N 
ATOM     12  C   UNL     1      45.504   3.417  12.738  0.00  0.00    +0.000 A 
ATOM     13  O   UNL     1      46.491   3.042  13.363  0.00  0.00    +0.000 OA
ATOM     14  C   UNL     1      45.248   4.797  12.365  0.00  0.00    +0.000 A 
ATOM     15  H   UNL     1      44.680   1.564  12.606  0.00  0.00    +0.000 HD
ENDBRANCH   2   5
BRANCH   3  16
ATOM     16  C   UNL     1      49.550   7.417  12.694  0.00  0.00    +0.000 C 
BRANCH  16  17
ATOM     17  C   UNL     1      49.574   8.924  13.001  0.00  0.00    +0.000 C 
ATOM     18  C   UNL     1      50.823   9.352  13.778  0.00  0.00    +0.000 C 
ATOM     19  C   UNL     1      50.826   8.828  15.216  0.00  0.00    +0.000 C 
ATOM     20  N   UNL     1      49.596   9.161  15.959  0.00  0.00    +0.000 NA
ATOM     21  C   UNL     1      48.379   8.764  15.229  0.00  0.00    +0.000 C 
ATOM     22  C   UNL     1      48.342   9.337  13.812  0.00  0.00    +0.000 C 
BRANCH  20  23
ATOM     23  C   UNL     1      49.589   8.523  17.290  0.00  0.00    +0.000 C 
BRANCH  23  24
ATOM     24  C   UNL     1      49.676   6.995  17.252  0.00  0.00    +0.000 C 
BRANCH  24  25
ATOM     25  C   UNL     1      48.528   6.334  18.010  0.00  0.00    +0.000 C 
BRANCH  25  26
ATOM     26  N   UNL     1      48.324   4.970  17.565  0.00  0.00    +0.000 N 
ATOM     27  C   UNL     1      49.287   4.015  17.405  0.00  0.00    +0.000 A 
ATOM     28  C   UNL     1      48.603   2.890  17.012  0.00  0.00    +0.000 A 
ATOM     29  N   UNL     1      47.258   3.143  16.919  0.00  0.00    +0.000 NA
ATOM     30  C   UNL     1      47.120   4.406  17.253  0.00  0.00    +0.000 A 
ENDBRANCH  25  26
ENDBRANCH  24  25
ENDBRANCH  23  24
ENDBRANCH  20  23
ENDBRANCH  16  17
ENDBRANCH   3  16
TORSDOF 7
ENDMDL
MODEL 7
REMARK VINA RESULT:    -6.085      3.884      8.065
REMARK INTER + INTRA:          -9.723
REMARK INTER:                  -8.880
REMARK INTRA:                  -0.843
REMARK UNBOUND:                -1.148
REMARK  Name = 
REMARK  7 active torsions:
REMARK  status: ('A' for Active; 'I' for Inactive)
REMARK    1  A    between atoms: C_2  and  C_19
REMARK    2  A    between atoms: N_3  and  C_4
REMARK    3  A    between atoms: C_4  and  C_5
REMARK    4  A    between atoms: N_8  and  C_9
REMARK    5  A    between atoms: C_9  and  C_10
REMARK    6  A    between atoms: C_10  and  C_11
REMARK    7  A    between atoms: C_11  and  N_12
REMARK                            x       y       z     vdW  Elec       q    Type
REMARK                         _______ _______ _______ _____ _____    ______ ____
ROOT
ATOM      1  O   UNL     1      47.217   3.242  13.725  0.00  0.00    +0.000 OA
ATOM      2  C   UNL     1      46.793   4.258  14.270  0.00  0.00    +0.000 C 
ATOM      3  N   UNL     1      46.922   4.471  15.620  0.00  0.00    +0.000 N 
ATOM      4  H   UNL     1      46.418   5.245  16.040  0.00  0.00    +0.000 HD
ENDROOT
BRANCH   2   5
ATOM      5  C   UNL     1      46.129   5.316  13.498  0.00  0.00    +0.000 A 
ATOM      6  C   UNL     1      46.811   6.491  13.222  0.00  0.00    +0.000 A 
ATOM      7  S   UNL     1      45.925   7.589  12.262  0.00  0.00    +0.000 S 
ATOM      8  C   UNL     1      44.612   6.512  12.149  0.00  0.00    +0.000 A 
ATOM      9  N   UNL     1      43.525   6.816  11.391  0.00  0.00    +0.000 NA
ATOM     10  C   UNL     1      42.610   5.905  11.381  0.00  0.00    +0.000 A 
ATOM     11  N   UNL     1      42.674   4.727  12.078  0.00  0.00    +0.000 N 
ATOM     12  C   UNL     1      43.733   4.396  12.887  0.00  0.00    +0.000 A 
ATOM     13  O   UNL     1      43.719   3.370  13.560  0.00  0.00    +0.000 OA
ATOM     14  C   UNL     1      44.819   5.360  12.889  0.00  0.00    +0.000 A 
ATOM     15  H   UNL     1      41.905   4.073  12.058  0.00  0.00    +0.000 HD
ENDBRANCH   2   5
BRANCH   3  16
ATOM     16  C   UNL     1      47.351   3.429  16.524  0.00  0.00    +0.000 C 
BRANCH  16  17
ATOM     17  C   UNL     1      47.655   3.982  17.926  0.00  0.00    +0.000 C 
ATOM     18  C   UNL     1      47.706   5.512  17.964  0.00  0.00    +0.000 C 
ATOM     19  C   UNL     1      48.924   6.076  17.229  0.00  0.00    +0.000 C 
ATOM     20  N   UNL     1      50.199   5.491  17.681  0.00  0.00    +0.000 NA
ATOM     21  C   UNL     1      50.175   4.017  17.661  0.00  0.00    +0.000 C 
ATOM     22  C   UNL     1      48.993   3.447  18.447  0.00  0.00    +0.000 C 
BRANCH  20  23
ATOM     23  C   UNL     1      51.326   5.966  16.856  0.00  0.00    +0.000 C 
BRANCH  23  24
ATOM     24  C   UNL     1      51.274   7.460  16.527  0.00  0.00    +0.000 C 
BRANCH  24  25
ATOM     25  C   UNL     1      52.282   7.847  15.448  0.00  0.00    +0.000 C 
BRANCH  25  26
ATOM     26  N   UNL     1      51.617   8.157  14.198  0.00  0.00    +0.000 N 
ATOM     27  C   UNL     1      52.215   8.566  13.040  0.00  0.00    +0.000 A 
ATOM     28  C   UNL     1      51.185   8.689  12.138  0.00  0.00    +0.000 A 
ATOM     29  N   UNL     1      49.983   8.379  12.724  0.00  0.00    +0.000 NA
ATOM     30  C   UNL     1      50.274   8.067  13.966  0.00  0.00    +0.000 A 
ENDBRANCH  25  26
ENDBRANCH  24  25
ENDBRANCH  23  24
ENDBRANCH  20  23
ENDBRANCH  16  17
ENDBRANCH   3  16
TORSDOF 7
ENDMDL
MODEL 8
REMARK VINA RESULT:    -5.669      3.578      8.272
REMARK INTER + INTRA:          -9.137
REMARK INTER:                  -7.653
REMARK INTRA:                  -1.484
REMARK UNBOUND:                -1.148
REMARK  Name = 
REMARK  7 active torsions:
REMARK  status: ('A' for Active; 'I' for Inactive)
REMARK    1  A    between atoms: C_2  and  C_19
REMARK    2  A    between atoms: N_3  and  C_4
REMARK    3  A    between atoms: C_4  and  C_5
REMARK    4  A    between atoms: N_8  and  C_9
REMARK    5  A    between atoms: C_9  and  C_10
REMARK    6  A    between atoms: C_10  and  C_11
REMARK    7  A    between atoms: C_11  and  N_12
REMARK                            x       y       z     vdW  Elec       q    Type
REMARK                         _______ _______ _______ _____ _____    ______ ____
ROOT
ATOM      1  O   UNL     1      47.924   5.234  14.561  0.00  0.00    +0.000 OA
ATOM      2  C   UNL     1      47.546   5.618  13.457  0.00  0.00    +0.000 C 
ATOM      3  N   UNL     1      48.271   6.512  12.708  0.00  0.00    +0.000 N 
ATOM      4  H   UNL     1      47.840   6.916  11.882  0.00  0.00    +0.000 HD
ENDROOT
BRANCH   2   5
ATOM      5  C   UNL     1      46.293   5.130  12.867  0.00  0.00    +0.000 A 
ATOM      6  C   UNL     1      45.975   3.783  12.958  0.00  0.00    +0.000 A 
ATOM      7  S   UNL     1      44.458   3.390  12.284  0.00  0.00    +0.000 S 
ATOM      8  C   UNL     1      44.157   5.016  11.881  0.00  0.00    +0.000 A 
ATOM      9  N   UNL     1      42.973   5.389  11.326  0.00  0.00    +0.000 NA
ATOM     10  C   UNL     1      42.871   6.654  11.086  0.00  0.00    +0.000 A 
ATOM     11  N   UNL     1      43.854   7.576  11.330  0.00  0.00    +0.000 N 
ATOM     12  C   UNL     1      45.079   7.239  11.851  0.00  0.00    +0.000 A 
ATOM     13  O   UNL     1      45.964   8.079  11.979  0.00  0.00    +0.000 OA
ATOM     14  C   UNL     1      45.227   5.837  12.196  0.00  0.00    +0.000 A 
ATOM     15  H   UNL     1      43.725   8.545  11.082  0.00  0.00    +0.000 HD
ENDBRANCH   2   5
BRANCH   3  16
ATOM     16  C   UNL     1      49.397   7.235  13.253  0.00  0.00    +0.000 C 
BRANCH  16  17
ATOM     17  C   UNL     1      49.044   8.704  13.539  0.00  0.00    +0.000 C 
ATOM     18  C   UNL     1      50.243   9.517  14.040  0.00  0.00    +0.000 C 
ATOM     19  C   UNL     1      50.679   9.109  15.449  0.00  0.00    +0.000 C 
ATOM     20  N   UNL     1      49.577   9.129  16.428  0.00  0.00    +0.000 NA
ATOM     21  C   UNL     1      48.408   8.359  15.968  0.00  0.00    +0.000 C 
ATOM     22  C   UNL     1      47.930   8.806  14.585  0.00  0.00    +0.000 C 
BRANCH  20  23
ATOM     23  C   UNL     1      50.016   8.603  17.735  0.00  0.00    +0.000 C 
BRANCH  23  24
ATOM     24  C   UNL     1      50.279   7.095  17.746  0.00  0.00    +0.000 C 
BRANCH  24  25
ATOM     25  C   UNL     1      49.513   6.385  18.859  0.00  0.00    +0.000 C 
BRANCH  25  26
ATOM     26  N   UNL     1      48.723   5.290  18.333  0.00  0.00    +0.000 N 
ATOM     27  C   UNL     1      49.195   4.085  17.897  0.00  0.00    +0.000 A 
ATOM     28  C   UNL     1      48.072   3.377  17.540  0.00  0.00    +0.000 A 
ATOM     29  N   UNL     1      46.939   4.126  17.738  0.00  0.00    +0.000 NA
ATOM     30  C   UNL     1      47.362   5.275  18.212  0.00  0.00    +0.000 A 
ENDBRANCH  25  26
ENDBRANCH  24  25
ENDBRANCH  23  24
ENDBRANCH  20  23
ENDBRANCH  16  17
ENDBRANCH   3  16
TORSDOF 7
ENDMDL
MODEL 9
REMARK VINA RESULT:    -5.539      3.269      5.025
REMARK INTER + INTRA:          -8.955
REMARK INTER:                  -8.611
REMARK INTRA:                  -0.344
REMARK UNBOUND:                -1.148
REMARK  Name = 
REMARK  7 active torsions:
REMARK  status: ('A' for Active; 'I' for Inactive)
REMARK    1  A    between atoms: C_2  and  C_19
REMARK    2  A    between atoms: N_3  and  C_4
REMARK    3  A    between atoms: C_4  and  C_5
REMARK    4  A    between atoms: N_8  and  C_9
REMARK    5  A    between atoms: C_9  and  C_10
REMARK    6  A    between atoms: C_10  and  C_11
REMARK    7  A    between atoms: C_11  and  N_12
REMARK                            x       y       z     vdW  Elec       q    Type
REMARK                         _______ _______ _______ _____ _____    ______ ____
ROOT
ATOM      1  O   UNL     1      47.494   2.823  14.189  0.00  0.00    +0.000 OA
ATOM      2  C   UNL     1      47.019   3.951  14.291  0.00  0.00    +0.000 C 
ATOM      3  N   UNL     1      45.885   4.330  13.616  0.00  0.00    +0.000 N 
ATOM      4  H   UNL     1      45.628   5.312  13.611  0.00  0.00    +0.000 HD
ENDROOT
BRANCH   2   5
ATOM      5  C   UNL     1      47.637   4.963  15.158  0.00  0.00    +0.000 A 
ATOM      6  C   UNL     1      48.239   6.075  14.588  0.00  0.00    +0.000 A 
ATOM      7  S   UNL     1      48.849   7.186  15.730  0.00  0.00    +0.000 S 
ATOM      8  C   UNL     1      48.293   6.236  17.028  0.00  0.00    +0.000 A 
ATOM      9  N   UNL     1      48.433   6.661  18.312  0.00  0.00    +0.000 NA
ATOM     10  C   UNL     1      47.953   5.852  19.197  0.00  0.00    +0.000 A 
ATOM     11  N   UNL     1      47.367   4.646  18.916  0.00  0.00    +0.000 N 
ATOM     12  C   UNL     1      47.241   4.159  17.638  0.00  0.00    +0.000 A 
ATOM     13  O   UNL     1      46.785   3.039  17.430  0.00  0.00    +0.000 OA
ATOM     14  C   UNL     1      47.710   5.056  16.598  0.00  0.00    +0.000 A 
ATOM     15  H   UNL     1      47.048   4.042  19.658  0.00  0.00    +0.000 HD
ENDBRANCH   2   5
BRANCH   3  16
ATOM     16  C   UNL     1      45.307   3.517  12.570  0.00  0.00    +0.000 C 
BRANCH  16  17
ATOM     17  C   UNL     1      44.324   4.321  11.704  0.00  0.00    +0.000 C 
ATOM     18  C   UNL     1      44.999   4.989  10.501  0.00  0.00    +0.000 C 
ATOM     19  C   UNL     1      45.927   6.134  10.912  0.00  0.00    +0.000 C 
ATOM     20  N   UNL     1      45.273   7.132  11.776  0.00  0.00    +0.000 NA
ATOM     21  C   UNL     1      44.609   6.516  12.938  0.00  0.00    +0.000 C 
ATOM     22  C   UNL     1      43.633   5.412  12.528  0.00  0.00    +0.000 C 
BRANCH  20  23
ATOM     23  C   UNL     1      46.239   8.141  12.252  0.00  0.00    +0.000 C 
BRANCH  23  24
ATOM     24  C   UNL     1      47.657   7.956  11.704  0.00  0.00    +0.000 C 
BRANCH  24  25
ATOM     25  C   UNL     1      48.561   9.139  12.037  0.00  0.00    +0.000 C 
BRANCH  25  26
ATOM     26  N   UNL     1      49.904   8.928  11.536  0.00  0.00    +0.000 N 
ATOM     27  C   UNL     1      50.768   9.891  11.097  0.00  0.00    +0.000 A 
ATOM     28  C   UNL     1      51.915   9.210  10.769  0.00  0.00    +0.000 A 
ATOM     29  N   UNL     1      51.763   7.863  10.986  0.00  0.00    +0.000 NA
ATOM     30  C   UNL     1      50.540   7.723  11.444  0.00  0.00    +0.000 A 
ENDBRANCH  25  26
ENDBRANCH  24  25
ENDBRANCH  23  24
ENDBRANCH  20  23
ENDBRANCH  16  17
ENDBRANCH   3  16
TORSDOF 7
ENDMDL
