MODEL 1
REMARK VINA RESULT:    -8.116      0.000      0.000
REMARK INTER + INTRA:         -12.900
REMARK INTER:                 -11.911
REMARK INTRA:                  -0.988
REMARK UNBOUND:                -0.988
REMARK  Name = 
REMARK  9 active torsions:
REMARK  status: ('A' for Active; 'I' for Inactive)
REMARK    1  A    between atoms: C_1  and  O_2
REMARK    2  A    between atoms: O_2  and  C_3
REMARK    3  A    between atoms: C_10  and  C_11
REMARK    4  A    between atoms: N_13  and  C_14
REMARK    5  A    between atoms: C_14  and  C_15
REMARK    6  A    between atoms: C_18  and  C_19
REMARK    7  A    between atoms: C_19  and  O_20
REMARK    8  A    between atoms: O_20  and  C_21
REMARK    9  A    between atoms: C_21  and  C_22
REMARK                            x       y       z     vdW  Elec       q    Type
REMARK                         _______ _______ _______ _____ _____    ______ ____
ROOT
ATOM      1  C   UNL     1      48.340   6.645  13.565  0.00  0.00    +0.000 C 
ENDROOT
BRANCH   1   2
ATOM      2  C   UNL     1      47.062   6.206  12.892  0.00  0.00    +0.000 A 
ATOM      3  C   UNL     1      46.366   5.078  13.347  0.00  0.00    +0.000 A 
ATOM      4  C   UNL     1      45.222   4.627  12.677  0.00  0.00    +0.000 A 
ATOM      5  C   UNL     1      44.759   5.285  11.529  0.00  0.00    +0.000 A 
ATOM      6  C   UNL     1      45.446   6.423  11.086  0.00  0.00    +0.000 A 
ATOM      7  C   UNL     1      46.585   6.877  11.759  0.00  0.00    +0.000 A 
BRANCH   5   8
ATOM      8  C   UNL     1      43.573   4.755  10.763  0.00  0.00    +0.000 C 
BRANCH   8   9
ATOM      9  O   UNL     1      43.978   3.662   9.945  0.00  0.00    +0.000 OA
BRANCH   9  10
ATOM     10  C   UNL     1      44.468   4.104   8.681  0.00  0.00    +0.000 C 
BRANCH  10  11
ATOM     11  C   UNL     1      45.381   3.048   8.134  0.00  0.00    +0.000 A 
ATOM     12  C   UNL     1      45.495   1.801   8.742  0.00  0.00    +0.000 A 
ATOM     13  N   UNL     1      46.298   0.808   8.295  0.00  0.00    +0.000 NA
ATOM     14  C   UNL     1      47.019   1.070   7.177  0.00  0.00    +0.000 A 
ATOM     15  C   UNL     1      46.982   2.279   6.501  0.00  0.00    +0.000 A 
ATOM     16 CL   UNL     1      47.930   2.536   5.095  0.00  0.00    +0.000 Cl
ATOM     17  C   UNL     1      46.154   3.282   6.990  0.00  0.00    +0.000 A 
ENDBRANCH  10  11
ENDBRANCH   9  10
ENDBRANCH   8   9
ENDBRANCH   5   8
ENDBRANCH   1   2
BRANCH   1  20
ATOM     18  C   UNL     1      49.156   6.797  15.887  0.00  0.00    +0.000 C 
ATOM     19  O   UNL     1      50.314   6.605  15.527  0.00  0.00    +0.000 OA
ATOM     20  N   UNL     1      48.132   6.840  14.981  0.00  0.00    +0.000 N 
ATOM     21  H   UNL     1      47.194   7.062  15.286  0.00  0.00    +0.000 HD
BRANCH  18  29
ATOM     22  C   UNL     1      48.855   4.593  18.521  0.00  0.00    +0.000 A 
ATOM     23  N   UNL     1      48.765   3.981  19.720  0.00  0.00    +0.000 NA
ATOM     24  C   UNL     1      48.524   4.736  20.795  0.00  0.00    +0.000 A 
ATOM     25  N   UNL     1      48.340   6.053  20.824  0.00  0.00    +0.000 NA
ATOM     26  C   UNL     1      48.446   6.624  19.612  0.00  0.00    +0.000 A 
ATOM     27  S   UNL     1      48.223   8.300  19.457  0.00  0.00    +0.000 S 
ATOM     28  C   UNL     1      48.527   8.235  17.786  0.00  0.00    +0.000 A 
ATOM     29  C   UNL     1      48.812   6.957  17.313  0.00  0.00    +0.000 A 
ATOM     30  C   UNL     1      48.723   5.989  18.406  0.00  0.00    +0.000 A 
BRANCH  22  32
ATOM     31  C   UNL     1      47.868   3.279  16.839  0.00  0.00    +0.000 C 
ATOM     32  O   UNL     1      49.061   3.819  17.399  0.00  0.00    +0.000 OA
ENDBRANCH  22  32
ENDBRANCH  18  29
ENDBRANCH   1  20
TORSDOF 8
ENDMDL
MODEL 2
REMARK VINA RESULT:    -7.692      2.453      3.082
REMARK INTER + INTRA:         -12.277
REMARK INTER:                 -11.260
REMARK INTRA:                  -1.017
REMARK UNBOUND:                -0.988
REMARK  Name = 
REMARK  9 active torsions:
REMARK  status: ('A' for Active; 'I' for Inactive)
REMARK    1  A    between atoms: C_1  and  O_2
REMARK    2  A    between atoms: O_2  and  C_3
REMARK    3  A    between atoms: C_10  and  C_11
REMARK    4  A    between atoms: N_13  and  C_14
REMARK    5  A    between atoms: C_14  and  C_15
REMARK    6  A    between atoms: C_18  and  C_19
REMARK    7  A    between atoms: C_19  and  O_20
REMARK    8  A    between atoms: O_20  and  C_21
REMARK    9  A    between atoms: C_21  and  C_22
REMARK                            x       y       z     vdW  Elec       q    Type
REMARK                         _______ _______ _______ _____ _____    ______ ____
ROOT
ATOM      1  C   UNL     1      49.019   7.537  14.737  0.00  0.00    +0.000 C 
ENDROOT
BRANCH   1   2
ATOM      2  C   UNL     1      47.918   6.804  14.010  0.00  0.00    +0.000 A 
ATOM      3  C   UNL     1      47.238   7.410  12.945  0.00  0.00    +0.000 A 
ATOM      4  C   UNL     1      46.168   6.760  12.320  0.00  0.00    +0.000 A 
ATOM      5  C   UNL     1      45.744   5.497  12.755  0.00  0.00    +0.000 A 
ATOM      6  C   UNL     1      46.436   4.885  13.808  0.00  0.00    +0.000 A 
ATOM      7  C   UNL     1      47.510   5.531  14.430  0.00  0.00    +0.000 A 
BRANCH   5   8
ATOM      8  C   UNL     1      44.543   4.829  12.134  0.00  0.00    +0.000 C 
BRANCH   8   9
ATOM      9  O   UNL     1      44.584   4.987  10.719  0.00  0.00    +0.000 OA
BRANCH   9  10
ATOM     10  C   UNL     1      44.079   3.837  10.047  0.00  0.00    +0.000 C 
BRANCH  10  11
ATOM     11  C   UNL     1      45.092   3.403   9.029  0.00  0.00    +0.000 A 
ATOM     12  C   UNL     1      45.756   4.326   8.227  0.00  0.00    +0.000 A 
ATOM     13  N   UNL     1      46.680   3.997   7.294  0.00  0.00    +0.000 NA
ATOM     14  C   UNL     1      46.963   2.678   7.163  0.00  0.00    +0.000 A 
ATOM     15  C   UNL     1      46.355   1.680   7.909  0.00  0.00    +0.000 A 
ATOM     16 CL   UNL     1      46.764   0.030   7.678  0.00  0.00    +0.000 Cl
ATOM     17  C   UNL     1      45.403   2.049   8.851  0.00  0.00    +0.000 A 
ENDBRANCH  10  11
ENDBRANCH   9  10
ENDBRANCH   8   9
ENDBRANCH   5   8
ENDBRANCH   1   2
BRANCH   1  20
ATOM     18  C   UNL     1      49.841   6.333  16.727  0.00  0.00    +0.000 C 
ATOM     19  O   UNL     1      48.994   6.865  17.439  0.00  0.00    +0.000 OA
ATOM     20  N   UNL     1      49.911   6.605  15.388  0.00  0.00    +0.000 N 
ATOM     21  H   UNL     1      50.572   6.112  14.804  0.00  0.00    +0.000 HD
BRANCH  18  29
ATOM     22  C   UNL     1      50.053   2.897  16.913  0.00  0.00    +0.000 A 
ATOM     23  N   UNL     1      50.429   1.608  17.035  0.00  0.00    +0.000 NA
ATOM     24  C   UNL     1      51.623   1.349  17.573  0.00  0.00    +0.000 A 
ATOM     25  N   UNL     1      52.504   2.234  18.031  0.00  0.00    +0.000 NA
ATOM     26  C   UNL     1      52.095   3.506  17.884  0.00  0.00    +0.000 A 
ATOM     27  S   UNL     1      53.086   4.771  18.430  0.00  0.00    +0.000 S 
ATOM     28  C   UNL     1      51.973   5.939  17.895  0.00  0.00    +0.000 A 
ATOM     29  C   UNL     1      50.842   5.404  17.287  0.00  0.00    +0.000 A 
ATOM     30  C   UNL     1      50.901   3.943  17.318  0.00  0.00    +0.000 A 
BRANCH  22  32
ATOM     31  C   UNL     1      47.766   3.201  17.374  0.00  0.00    +0.000 C 
ATOM     32  O   UNL     1      48.804   3.174  16.399  0.00  0.00    +0.000 OA
ENDBRANCH  22  32
ENDBRANCH  18  29
ENDBRANCH   1  20
TORSDOF 8
ENDMDL
MODEL 3
REMARK VINA RESULT:    -7.663      1.833      2.815
REMARK INTER + INTRA:         -12.235
REMARK INTER:                 -11.393
REMARK INTRA:                  -0.842
REMARK UNBOUND:                -0.988
REMARK  Name = 
REMARK  9 active torsions:
REMARK  status: ('A' for Active; 'I' for Inactive)
REMARK    1  A    between atoms: C_1  and  O_2
REMARK    2  A    between atoms: O_2  and  C_3
REMARK    3  A    between atoms: C_10  and  C_11
REMARK    4  A    between atoms: N_13  and  C_14
REMARK    5  A    between atoms: C_14  and  C_15
REMARK    6  A    between atoms: C_18  and  C_19
REMARK    7  A    between atoms: C_19  and  O_20
REMARK    8  A    between atoms: O_20  and  C_21
REMARK    9  A    between atoms: C_21  and  C_22
REMARK                            x       y       z     vdW  Elec       q    Type
REMARK                         _______ _______ _______ _____ _____    ______ ____
ROOT
ATOM      1  C   UNL     1      48.265   6.456  14.125  0.00  0.00    +0.000 C 
ENDROOT
BRANCH   1   2
ATOM      2  C   UNL     1      46.902   6.195  13.530  0.00  0.00    +0.000 A 
ATOM      3  C   UNL     1      46.245   4.978  13.754  0.00  0.00    +0.000 A 
ATOM      4  C   UNL     1      45.016   4.708  13.141  0.00  0.00    +0.000 A 
ATOM      5  C   UNL     1      44.424   5.642  12.280  0.00  0.00    +0.000 A 
ATOM      6  C   UNL     1      45.073   6.866  12.073  0.00  0.00    +0.000 A 
ATOM      7  C   UNL     1      46.298   7.139  12.689  0.00  0.00    +0.000 A 
BRANCH   5   8
ATOM      8  C   UNL     1      43.138   5.321  11.560  0.00  0.00    +0.000 C 
BRANCH   8   9
ATOM      9  O   UNL     1      43.429   4.768  10.281  0.00  0.00    +0.000 OA
BRANCH   9  10
ATOM     10  C   UNL     1      43.939   3.440  10.386  0.00  0.00    +0.000 C 
BRANCH  10  11
ATOM     11  C   UNL     1      44.938   3.231   9.286  0.00  0.00    +0.000 A 
ATOM     12  C   UNL     1      45.459   4.302   8.565  0.00  0.00    +0.000 A 
ATOM     13  N   UNL     1      46.362   4.177   7.566  0.00  0.00    +0.000 NA
ATOM     14  C   UNL     1      46.775   2.918   7.277  0.00  0.00    +0.000 A 
ATOM     15  C   UNL     1      46.315   1.787   7.931  0.00  0.00    +0.000 A 
ATOM     16 CL   UNL     1      46.882   0.225   7.502  0.00  0.00    +0.000 Cl
ATOM     17  C   UNL     1      45.380   1.947   8.946  0.00  0.00    +0.000 A 
ENDBRANCH  10  11
ENDBRANCH   9  10
ENDBRANCH   8   9
ENDBRANCH   5   8
ENDBRANCH   1   2
BRANCH   1  20
ATOM     18  C   UNL     1      48.526   5.812  16.491  0.00  0.00    +0.000 C 
ATOM     19  O   UNL     1      48.977   4.713  16.176  0.00  0.00    +0.000 OA
ATOM     20  N   UNL     1      48.162   6.725  15.540  0.00  0.00    +0.000 N 
ATOM     21  H   UNL     1      47.853   7.647  15.816  0.00  0.00    +0.000 HD
BRANCH  18  29
ATOM     22  C   UNL     1      47.866   8.790  18.098  0.00  0.00    +0.000 A 
ATOM     23  N   UNL     1      47.519   9.774  18.952  0.00  0.00    +0.000 NA
ATOM     24  C   UNL     1      47.344   9.458  20.238  0.00  0.00    +0.000 A 
ATOM     25  N   UNL     1      47.492   8.260  20.796  0.00  0.00    +0.000 NA
ATOM     26  C   UNL     1      47.830   7.307  19.910  0.00  0.00    +0.000 A 
ATOM     27  S   UNL     1      48.078   5.716  20.448  0.00  0.00    +0.000 S 
ATOM     28  C   UNL     1      48.405   5.181  18.868  0.00  0.00    +0.000 A 
ATOM     29  C   UNL     1      48.325   6.182  17.905  0.00  0.00    +0.000 A 
ATOM     30  C   UNL     1      48.018   7.463  18.540  0.00  0.00    +0.000 A 
BRANCH  22  32
ATOM     31  C   UNL     1      49.236   9.932  16.565  0.00  0.00    +0.000 C 
ATOM     32  O   UNL     1      48.091   9.112  16.776  0.00  0.00    +0.000 OA
ENDBRANCH  22  32
ENDBRANCH  18  29
ENDBRANCH   1  20
TORSDOF 8
ENDMDL
MODEL 4
REMARK VINA RESULT:    -7.584      1.546      2.221
REMARK INTER + INTRA:         -12.119
REMARK INTER:                 -10.775
REMARK INTRA:                  -1.344
REMARK UNBOUND:                -0.988
REMARK  Name = 
REMARK  9 active torsions:
REMARK  status: ('A' for Active; 'I' for Inactive)
REMARK    1  A    between atoms: C_1  and  O_2
REMARK    2  A    between atoms: O_2  and  C_3
REMARK    3  A    between atoms: C_10  and  C_11
REMARK    4  A    between atoms: N_13  and  C_14
REMARK    5  A    between atoms: C_14  and  C_15
REMARK    6  A    between atoms: C_18  and  C_19
REMARK    7  A    between atoms: C_19  and  O_20
REMARK    8  A    between atoms: O_20  and  C_21
REMARK    9  A    between atoms: C_21  and  C_22
REMARK                            x       y       z     vdW  Elec       q    Type
REMARK                         _______ _______ _______ _____ _____    ______ ____
ROOT
ATOM      1  C   UNL     1      47.856   4.803  14.880  0.00  0.00    +0.000 C 
ENDROOT
BRANCH   1   2
ATOM      2  C   UNL     1      46.827   4.811  13.775  0.00  0.00    +0.000 A 
ATOM      3  C   UNL     1      46.328   6.020  13.273  0.00  0.00    +0.000 A 
ATOM      4  C   UNL     1      45.320   6.026  12.302  0.00  0.00    +0.000 A 
ATOM      5  C   UNL     1      44.779   4.825  11.822  0.00  0.00    +0.000 A 
ATOM      6  C   UNL     1      45.293   3.618  12.312  0.00  0.00    +0.000 A 
ATOM      7  C   UNL     1      46.304   3.610  13.278  0.00  0.00    +0.000 A 
BRANCH   5   8
ATOM      8  C   UNL     1      43.641   4.832  10.833  0.00  0.00    +0.000 C 
BRANCH   8   9
ATOM      9  O   UNL     1      43.838   3.805   9.867  0.00  0.00    +0.000 OA
BRANCH   9  10
ATOM     10  C   UNL     1      44.565   4.279   8.736  0.00  0.00    +0.000 C 
BRANCH  10  11
ATOM     11  C   UNL     1      45.403   3.153   8.209  0.00  0.00    +0.000 A 
ATOM     12  C   UNL     1      45.405   1.902   8.818  0.00  0.00    +0.000 A 
ATOM     13  N   UNL     1      46.137   0.848   8.389  0.00  0.00    +0.000 NA
ATOM     14  C   UNL     1      46.900   1.050   7.287  0.00  0.00    +0.000 A 
ATOM     15  C   UNL     1      46.973   2.257   6.611  0.00  0.00    +0.000 A 
ATOM     16 CL   UNL     1      47.969   2.436   5.225  0.00  0.00    +0.000 Cl
ATOM     17  C   UNL     1      46.217   3.324   7.082  0.00  0.00    +0.000 A 
ENDBRANCH  10  11
ENDBRANCH   9  10
ENDBRANCH   8   9
ENDBRANCH   5   8
ENDBRANCH   1   2
BRANCH   1  20
ATOM     18  C   UNL     1      48.864   6.892  15.717  0.00  0.00    +0.000 C 
ATOM     19  O   UNL     1      49.916   6.660  15.127  0.00  0.00    +0.000 OA
ATOM     20  N   UNL     1      47.803   6.032  15.637  0.00  0.00    +0.000 N 
ATOM     21  H   UNL     1      46.924   6.269  16.077  0.00  0.00    +0.000 HD
BRANCH  18  29
ATOM     22  C   UNL     1      47.771   7.391  18.949  0.00  0.00    +0.000 A 
ATOM     23  N   UNL     1      47.489   7.849  20.185  0.00  0.00    +0.000 NA
ATOM     24  C   UNL     1      47.669   9.150  20.430  0.00  0.00    +0.000 A 
ATOM     25  N   UNL     1      48.089  10.075  19.572  0.00  0.00    +0.000 NA
ATOM     26  C   UNL     1      48.366   9.576  18.356  0.00  0.00    +0.000 A 
ATOM     27  S   UNL     1      48.900  10.618  17.126  0.00  0.00    +0.000 S 
ATOM     28  C   UNL     1      49.046   9.328  16.029  0.00  0.00    +0.000 A 
ATOM     29  C   UNL     1      48.709   8.090  16.566  0.00  0.00    +0.000 A 
ATOM     30  C   UNL     1      48.264   8.249  17.950  0.00  0.00    +0.000 A 
BRANCH  22  32
ATOM     31  C   UNL     1      48.339   5.164  19.452  0.00  0.00    +0.000 C 
ATOM     32  O   UNL     1      47.549   6.058  18.674  0.00  0.00    +0.000 OA
ENDBRANCH  22  32
ENDBRANCH  18  29
ENDBRANCH   1  20
TORSDOF 8
ENDMDL
MODEL 5
REMARK VINA RESULT:    -7.579      2.173      3.800
REMARK INTER + INTRA:         -12.112
REMARK INTER:                 -10.778
REMARK INTRA:                  -1.335
REMARK UNBOUND:                -0.988
REMARK  Name = 
REMARK  9 active torsions:
REMARK  status: ('A' for Active; 'I' for Inactive)
REMARK    1  A    between atoms: C_1  and  O_2
REMARK    2  A    between atoms: O_2  and  C_3
REMARK    3  A    between atoms: C_10  and  C_11
REMARK    4  A    between atoms: N_13  and  C_14
REMARK    5  A    between atoms: C_14  and  C_15
REMARK    6  A    between atoms: C_18  and  C_19
REMARK    7  A    between atoms: C_19  and  O_20
REMARK    8  A    between atoms: O_20  and  C_21
REMARK    9  A    between atoms: C_21  and  C_22
REMARK                            x       y       z     vdW  Elec       q    Type
REMARK                         _______ _______ _______ _____ _____    ______ ____
ROOT
ATOM      1  C   UNL     1      47.378   4.617  14.909  0.00  0.00    +0.000 C 
ENDROOT
BRANCH   1   2
ATOM      2  C   UNL     1      46.407   4.572  13.753  0.00  0.00    +0.000 A 
ATOM      3  C   UNL     1      45.817   5.747  13.269  0.00  0.00    +0.000 A 
ATOM      4  C   UNL     1      44.861   5.697  12.248  0.00  0.00    +0.000 A 
ATOM      5  C   UNL     1      44.464   4.470  11.698  0.00  0.00    +0.000 A 
ATOM      6  C   UNL     1      45.069   3.298  12.170  0.00  0.00    +0.000 A 
ATOM      7  C   UNL     1      46.028   3.347  13.187  0.00  0.00    +0.000 A 
BRANCH   5   8
ATOM      8  C   UNL     1      43.379   4.409  10.652  0.00  0.00    +0.000 C 
BRANCH   8   9
ATOM      9  O   UNL     1      43.761   3.509   9.617  0.00  0.00    +0.000 OA
BRANCH   9  10
ATOM     10  C   UNL     1      44.674   4.114   8.705  0.00  0.00    +0.000 C 
BRANCH  10  11
ATOM     11  C   UNL     1      45.537   3.037   8.118  0.00  0.00    +0.000 A 
ATOM     12  C   UNL     1      45.614   1.773   8.696  0.00  0.00    +0.000 A 
ATOM     13  N   UNL     1      46.372   0.761   8.213  0.00  0.00    +0.000 NA
ATOM     14  C   UNL     1      47.082   1.021   7.088  0.00  0.00    +0.000 A 
ATOM     15  C   UNL     1      47.077   2.246   6.439  0.00  0.00    +0.000 A 
ATOM     16 CL   UNL     1      48.009   2.498   5.020  0.00  0.00    +0.000 Cl
ATOM     17  C   UNL     1      46.297   3.268   6.965  0.00  0.00    +0.000 A 
ENDBRANCH  10  11
ENDBRANCH   9  10
ENDBRANCH   8   9
ENDBRANCH   5   8
ENDBRANCH   1   2
BRANCH   1  20
ATOM     18  C   UNL     1      48.860   6.267  15.986  0.00  0.00    +0.000 C 
ATOM     19  O   UNL     1      49.505   5.378  16.535  0.00  0.00    +0.000 OA
ATOM     20  N   UNL     1      47.806   5.972  15.164  0.00  0.00    +0.000 N 
ATOM     21  H   UNL     1      47.327   6.712  14.670  0.00  0.00    +0.000 HD
BRANCH  18  29
ATOM     22  C   UNL     1      48.770   9.069  13.978  0.00  0.00    +0.000 A 
ATOM     23  N   UNL     1      48.734  10.312  13.456  0.00  0.00    +0.000 NA
ATOM     24  C   UNL     1      49.034  11.338  14.257  0.00  0.00    +0.000 A 
ATOM     25  N   UNL     1      49.389  11.278  15.537  0.00  0.00    +0.000 NA
ATOM     26  C   UNL     1      49.404  10.024  16.019  0.00  0.00    +0.000 A 
ATOM     27  S   UNL     1      49.852   9.755  17.635  0.00  0.00    +0.000 S 
ATOM     28  C   UNL     1      49.603   8.081  17.476  0.00  0.00    +0.000 A 
ATOM     29  C   UNL     1      49.170   7.692  16.213  0.00  0.00    +0.000 A 
ATOM     30  C   UNL     1      49.090   8.856  15.331  0.00  0.00    +0.000 A 
BRANCH  22  32
ATOM     31  C   UNL     1      49.061   8.121  11.845  0.00  0.00    +0.000 C 
ATOM     32  O   UNL     1      48.504   7.998  13.150  0.00  0.00    +0.000 OA
ENDBRANCH  22  32
ENDBRANCH  18  29
ENDBRANCH   1  20
TORSDOF 8
ENDMDL
MODEL 6
REMARK VINA RESULT:    -7.531      1.682      2.915
REMARK INTER + INTRA:         -12.041
REMARK INTER:                 -10.942
REMARK INTRA:                  -1.099
REMARK UNBOUND:                -0.988
REMARK  Name = 
REMARK  9 active torsions:
REMARK  status: ('A' for Active; 'I' for Inactive)
REMARK    1  A    between atoms: C_1  and  O_2
REMARK    2  A    between atoms: O_2  and  C_3
REMARK    3  A    between atoms: C_10  and  C_11
REMARK    4  A    between atoms: N_13  and  C_14
REMARK    5  A    between atoms: C_14  and  C_15
REMARK    6  A    between atoms: C_18  and  C_19
REMARK    7  A    between atoms: C_19  and  O_20
REMARK    8  A    between atoms: O_20  and  C_21
REMARK    9  A    between atoms: C_21  and  C_22
REMARK                            x       y       z     vdW  Elec       q    Type
REMARK                         _______ _______ _______ _____ _____    ______ ____
ROOT
ATOM      1  C   UNL     1      47.517   3.739  15.442  0.00  0.00    +0.000 C 
ENDROOT
BRANCH   1   2
ATOM      2  C   UNL     1      46.921   4.221  14.142  0.00  0.00    +0.000 A 
ATOM      3  C   UNL     1      47.006   5.570  13.774  0.00  0.00    +0.000 A 
ATOM      4  C   UNL     1      46.388   6.031  12.605  0.00  0.00    +0.000 A 
ATOM      5  C   UNL     1      45.661   5.156  11.787  0.00  0.00    +0.000 A 
ATOM      6  C   UNL     1      45.593   3.804  12.147  0.00  0.00    +0.000 A 
ATOM      7  C   UNL     1      46.214   3.341  13.312  0.00  0.00    +0.000 A 
BRANCH   5   8
ATOM      8  C   UNL     1      44.931   5.666  10.569  0.00  0.00    +0.000 C 
BRANCH   8   9
ATOM      9  O   UNL     1      45.537   5.142   9.392  0.00  0.00    +0.000 OA
BRANCH   9  10
ATOM     10  C   UNL     1      44.672   4.233   8.715  0.00  0.00    +0.000 C 
BRANCH  10  11
ATOM     11  C   UNL     1      45.504   3.114   8.162  0.00  0.00    +0.000 A 
ATOM     12  C   UNL     1      45.510   1.854   8.752  0.00  0.00    +0.000 A 
ATOM     13  N   UNL     1      46.237   0.806   8.300  0.00  0.00    +0.000 NA
ATOM     14  C   UNL     1      46.990   1.025   7.193  0.00  0.00    +0.000 A 
ATOM     15  C   UNL     1      47.057   2.243   6.535  0.00  0.00    +0.000 A 
ATOM     16 CL   UNL     1      48.039   2.443   5.143  0.00  0.00    +0.000 Cl
ATOM     17  C   UNL     1      46.307   3.302   7.030  0.00  0.00    +0.000 A 
ENDBRANCH  10  11
ENDBRANCH   9  10
ENDBRANCH   8   9
ENDBRANCH   5   8
ENDBRANCH   1   2
BRANCH   1  20
ATOM     18  C   UNL     1      48.458   5.390  17.014  0.00  0.00    +0.000 C 
ATOM     19  O   UNL     1      49.601   5.152  16.632  0.00  0.00    +0.000 OA
ATOM     20  N   UNL     1      47.381   4.743  16.471  0.00  0.00    +0.000 N 
ATOM     21  H   UNL     1      46.444   4.997  16.752  0.00  0.00    +0.000 HD
BRANCH  18  29
ATOM     22  C   UNL     1      48.424   8.835  17.166  0.00  0.00    +0.000 A 
ATOM     23  N   UNL     1      48.251  10.135  17.478  0.00  0.00    +0.000 NA
ATOM     24  C   UNL     1      47.850  10.437  18.716  0.00  0.00    +0.000 A 
ATOM     25  N   UNL     1      47.610   9.586  19.710  0.00  0.00    +0.000 NA
ATOM     26  C   UNL     1      47.786   8.302  19.355  0.00  0.00    +0.000 A 
ATOM     27  S   UNL     1      47.541   7.077  20.505  0.00  0.00    +0.000 S 
ATOM     28  C   UNL     1      47.898   5.868  19.364  0.00  0.00    +0.000 A 
ATOM     29  C   UNL     1      48.197   6.358  18.097  0.00  0.00    +0.000 A 
ATOM     30  C   UNL     1      48.168   7.820  18.107  0.00  0.00    +0.000 A 
BRANCH  22  32
ATOM     31  C   UNL     1      48.000   8.903  14.854  0.00  0.00    +0.000 C 
ATOM     32  O   UNL     1      48.879   8.514  15.905  0.00  0.00    +0.000 OA
ENDBRANCH  22  32
ENDBRANCH  18  29
ENDBRANCH   1  20
TORSDOF 8
ENDMDL
MODEL 7
REMARK VINA RESULT:    -7.203      3.259      5.321
REMARK INTER + INTRA:         -11.559
REMARK INTER:                 -10.261
REMARK INTRA:                  -1.298
REMARK UNBOUND:                -0.988
REMARK  Name = 
REMARK  9 active torsions:
REMARK  status: ('A' for Active; 'I' for Inactive)
REMARK    1  A    between atoms: C_1  and  O_2
REMARK    2  A    between atoms: O_2  and  C_3
REMARK    3  A    between atoms: C_10  and  C_11
REMARK    4  A    between atoms: N_13  and  C_14
REMARK    5  A    between atoms: C_14  and  C_15
REMARK    6  A    between atoms: C_18  and  C_19
REMARK    7  A    between atoms: C_19  and  O_20
REMARK    8  A    between atoms: O_20  and  C_21
REMARK    9  A    between atoms: C_21  and  C_22
REMARK                            x       y       z     vdW  Elec       q    Type
REMARK                         _______ _______ _______ _____ _____    ______ ____
ROOT
ATOM      1  C   UNL     1      47.849   5.832  14.454  0.00  0.00    +0.000 C 
ENDROOT
BRANCH   1   2
ATOM      2  C   UNL     1      46.748   5.447  13.496  0.00  0.00    +0.000 A 
ATOM      3  C   UNL     1      46.035   6.429  12.796  0.00  0.00    +0.000 A 
ATOM      4  C   UNL     1      44.964   6.076  11.965  0.00  0.00    +0.000 A 
ATOM      5  C   UNL     1      44.575   4.736  11.828  0.00  0.00    +0.000 A 
ATOM      6  C   UNL     1      45.302   3.755  12.514  0.00  0.00    +0.000 A 
ATOM      7  C   UNL     1      46.375   4.105  13.340  0.00  0.00    +0.000 A 
BRANCH   5   8
ATOM      8  C   UNL     1      43.375   4.363  10.994  0.00  0.00    +0.000 C 
BRANCH   8   9
ATOM      9  O   UNL     1      43.754   3.413  10.005  0.00  0.00    +0.000 OA
BRANCH   9  10
ATOM     10  C   UNL     1      44.430   4.032   8.912  0.00  0.00    +0.000 C 
BRANCH  10  11
ATOM     11  C   UNL     1      45.331   3.014   8.279  0.00  0.00    +0.000 A 
ATOM     12  C   UNL     1      45.459   1.731   8.802  0.00  0.00    +0.000 A 
ATOM     13  N   UNL     1      46.254   0.771   8.274  0.00  0.00    +0.000 NA
ATOM     14  C   UNL     1      46.950   1.106   7.160  0.00  0.00    +0.000 A 
ATOM     15  C   UNL     1      46.897   2.357   6.565  0.00  0.00    +0.000 A 
ATOM     16 CL   UNL     1      47.814   2.705   5.158  0.00  0.00    +0.000 Cl
ATOM     17  C   UNL     1      46.079   3.324   7.136  0.00  0.00    +0.000 A 
ENDBRANCH  10  11
ENDBRANCH   9  10
ENDBRANCH   8   9
ENDBRANCH   5   8
ENDBRANCH   1   2
BRANCH   1  20
ATOM     18  C   UNL     1      49.237   7.870  14.440  0.00  0.00    +0.000 C 
ATOM     19  O   UNL     1      48.878   8.163  15.577  0.00  0.00    +0.000 OA
ATOM     20  N   UNL     1      48.783   6.736  13.824  0.00  0.00    +0.000 N 
ATOM     21  H   UNL     1      49.137   6.477  12.913  0.00  0.00    +0.000 HD
BRANCH  18  29
ATOM     22  C   UNL     1      48.823   9.902  11.684  0.00  0.00    +0.000 A 
ATOM     23  N   UNL     1      48.918  10.823  10.704  0.00  0.00    +0.000 NA
ATOM     24  C   UNL     1      50.090  11.441  10.533  0.00  0.00    +0.000 A 
ATOM     25  N   UNL     1      51.209  11.239  11.222  0.00  0.00    +0.000 NA
ATOM     26  C   UNL     1      51.070  10.321  12.193  0.00  0.00    +0.000 A 
ATOM     27  S   UNL     1      52.405   9.922  13.164  0.00  0.00    +0.000 S 
ATOM     28  C   UNL     1      51.478   8.826  14.074  0.00  0.00    +0.000 A 
ATOM     29  C   UNL     1      50.147   8.744  13.674  0.00  0.00    +0.000 A 
ATOM     30  C   UNL     1      49.917   9.614  12.521  0.00  0.00    +0.000 A 
BRANCH  22  32
ATOM     31  C   UNL     1      46.533  10.063  12.194  0.00  0.00    +0.000 C 
ATOM     32  O   UNL     1      47.631   9.227  11.842  0.00  0.00    +0.000 OA
ENDBRANCH  22  32
ENDBRANCH  18  29
ENDBRANCH   1  20
TORSDOF 8
ENDMDL
MODEL 8
REMARK VINA RESULT:    -6.908      5.093      7.202
REMARK INTER + INTRA:         -11.127
REMARK INTER:                 -10.052
REMARK INTRA:                  -1.075
REMARK UNBOUND:                -0.988
REMARK  Name = 
REMARK  9 active torsions:
REMARK  status: ('A' for Active; 'I' for Inactive)
REMARK    1  A    between atoms: C_1  and  O_2
REMARK    2  A    between atoms: O_2  and  C_3
REMARK    3  A    between atoms: C_10  and  C_11
REMARK    4  A    between atoms: N_13  and  C_14
REMARK    5  A    between atoms: C_14  and  C_15
REMARK    6  A    between atoms: C_18  and  C_19
REMARK    7  A    between atoms: C_19  and  O_20
REMARK    8  A    between atoms: O_20  and  C_21
REMARK    9  A    between atoms: C_21  and  C_22
REMARK                            x       y       z     vdW  Elec       q    Type
REMARK                         _______ _______ _______ _____ _____    ______ ____
ROOT
ATOM      1  C   UNL     1      49.935   7.454  12.920  0.00  0.00    +0.000 C 
ENDROOT
BRANCH   1   2
ATOM      2  C   UNL     1      48.523   6.954  12.728  0.00  0.00    +0.000 A 
ATOM      3  C   UNL     1      47.975   6.011  13.607  0.00  0.00    +0.000 A 
ATOM      4  C   UNL     1      46.694   5.491  13.386  0.00  0.00    +0.000 A 
ATOM      5  C   UNL     1      45.940   5.892  12.275  0.00  0.00    +0.000 A 
ATOM      6  C   UNL     1      46.483   6.849  11.408  0.00  0.00    +0.000 A 
ATOM      7  C   UNL     1      47.760   7.373  11.631  0.00  0.00    +0.000 A 
BRANCH   5   8
ATOM      8  C   UNL     1      44.592   5.276  11.994  0.00  0.00    +0.000 C 
BRANCH   8   9
ATOM      9  O   UNL     1      44.751   3.899  11.668  0.00  0.00    +0.000 OA
BRANCH   9  10
ATOM     10  C   UNL     1      43.979   3.535  10.527  0.00  0.00    +0.000 C 
BRANCH  10  11
ATOM     11  C   UNL     1      44.915   3.301   9.379  0.00  0.00    +0.000 A 
ATOM     12  C   UNL     1      45.363   4.350   8.582  0.00  0.00    +0.000 A 
ATOM     13  N   UNL     1      46.209   4.203   7.536  0.00  0.00    +0.000 NA
ATOM     14  C   UNL     1      46.637   2.943   7.277  0.00  0.00    +0.000 A 
ATOM     15  C   UNL     1      46.247   1.831   8.007  0.00  0.00    +0.000 A 
ATOM     16 CL   UNL     1      46.829   0.266   7.612  0.00  0.00    +0.000 Cl
ATOM     17  C   UNL     1      45.370   2.014   9.069  0.00  0.00    +0.000 A 
ENDBRANCH  10  11
ENDBRANCH   9  10
ENDBRANCH   8   9
ENDBRANCH   5   8
ENDBRANCH   1   2
BRANCH   1  20
ATOM     18  C   UNL     1      51.826   8.228  11.539  0.00  0.00    +0.000 C 
ATOM     19  O   UNL     1      52.546   8.338  12.528  0.00  0.00    +0.000 OA
ATOM     20  N   UNL     1      50.535   7.791  11.649  0.00  0.00    +0.000 N 
ATOM     21  H   UNL     1      49.976   7.645  10.819  0.00  0.00    +0.000 HD
BRANCH  18  29
ATOM     22  C   UNL     1      53.321   6.454   8.988  0.00  0.00    +0.000 A 
ATOM     23  N   UNL     1      53.816   5.994   7.821  0.00  0.00    +0.000 NA
ATOM     24  C   UNL     1      53.935   6.854   6.806  0.00  0.00    +0.000 A 
ATOM     25  N   UNL     1      53.630   8.148   6.813  0.00  0.00    +0.000 NA
ATOM     26  C   UNL     1      53.133   8.563   7.990  0.00  0.00    +0.000 A 
ATOM     27  S   UNL     1      52.704  10.194   8.188  0.00  0.00    +0.000 S 
ATOM     28  C   UNL     1      52.183   9.916   9.781  0.00  0.00    +0.000 A 
ATOM     29  C   UNL     1      52.311   8.593  10.194  0.00  0.00    +0.000 A 
ATOM     30  C   UNL     1      52.917   7.794   9.129  0.00  0.00    +0.000 A 
BRANCH  22  32
ATOM     31  C   UNL     1      54.493   5.091  10.505  0.00  0.00    +0.000 C 
ATOM     32  O   UNL     1      53.235   5.585  10.056  0.00  0.00    +0.000 OA
ENDBRANCH  22  32
ENDBRANCH  18  29
ENDBRANCH   1  20
TORSDOF 8
ENDMDL
MODEL 9
REMARK VINA RESULT:    -6.851      3.487      8.795
REMARK INTER + INTRA:         -11.043
REMARK INTER:                  -9.414
REMARK INTRA:                  -1.629
REMARK UNBOUND:                -0.988
REMARK  Name = 
REMARK  9 active torsions:
REMARK  status: ('A' for Active; 'I' for Inactive)
REMARK    1  A    between atoms: C_1  and  O_2
REMARK    2  A    between atoms: O_2  and  C_3
REMARK    3  A    between atoms: C_10  and  C_11
REMARK    4  A    between atoms: N_13  and  C_14
REMARK    5  A    between atoms: C_14  and  C_15
REMARK    6  A    between atoms: C_18  and  C_19
REMARK    7  A    between atoms: C_19  and  O_20
REMARK    8  A    between atoms: O_20  and  C_21
REMARK    9  A    between atoms: C_21  and  C_22
REMARK                            x       y       z     vdW  Elec       q    Type
REMARK                         _______ _______ _______ _____ _____    ______ ____
ROOT
ATOM      1  C   UNL     1      48.003   7.871  11.725  0.00  0.00    +0.000 C 
ENDROOT
BRANCH   1   2
ATOM      2  C   UNL     1      48.552   8.078  13.115  0.00  0.00    +0.000 A 
ATOM      3  C   UNL     1      49.453   7.160  13.671  0.00  0.00    +0.000 A 
ATOM      4  C   UNL     1      49.903   7.312  14.988  0.00  0.00    +0.000 A 
ATOM      5  C   UNL     1      49.451   8.375  15.782  0.00  0.00    +0.000 A 
ATOM      6  C   UNL     1      48.565   9.301  15.218  0.00  0.00    +0.000 A 
ATOM      7  C   UNL     1      48.119   9.154  13.901  0.00  0.00    +0.000 A 
BRANCH   5   8
ATOM      8  C   UNL     1      49.876   8.495  17.224  0.00  0.00    +0.000 C 
BRANCH   8   9
ATOM      9  O   UNL     1      49.885   7.208  17.832  0.00  0.00    +0.000 OA
BRANCH   9  10
ATOM     10  C   UNL     1      48.583   6.820  18.262  0.00  0.00    +0.000 C 
BRANCH  10  11
ATOM     11  C   UNL     1      48.371   5.383  17.888  0.00  0.00    +0.000 A 
ATOM     12  C   UNL     1      47.093   4.853  17.738  0.00  0.00    +0.000 A 
ATOM     13  N   UNL     1      46.838   3.567  17.401  0.00  0.00    +0.000 NA
ATOM     14  C   UNL     1      47.916   2.772  17.192  0.00  0.00    +0.000 A 
ATOM     15  C   UNL     1      49.227   3.201  17.320  0.00  0.00    +0.000 A 
ATOM     16 CL   UNL     1      50.539   2.130  17.045  0.00  0.00    +0.000 Cl
ATOM     17  C   UNL     1      49.456   4.524  17.678  0.00  0.00    +0.000 A 
ENDBRANCH  10  11
ENDBRANCH   9  10
ENDBRANCH   8   9
ENDBRANCH   5   8
ENDBRANCH   1   2
BRANCH   1  20
ATOM     18  C   UNL     1      45.745   6.881  11.800  0.00  0.00    +0.000 C 
ATOM     19  O   UNL     1      45.227   7.988  11.914  0.00  0.00    +0.000 OA
ATOM     20  N   UNL     1      47.102   6.742  11.693  0.00  0.00    +0.000 N 
ATOM     21  H   UNL     1      47.507   5.830  11.536  0.00  0.00    +0.000 HD
BRANCH  18  29
ATOM     22  C   UNL     1      45.284   4.321   9.537  0.00  0.00    +0.000 A 
ATOM     23  N   UNL     1      45.001   3.171   8.893  0.00  0.00    +0.000 NA
ATOM     24  C   UNL     1      44.216   2.282   9.509  0.00  0.00    +0.000 A 
ATOM     25  N   UNL     1      43.653   2.406  10.707  0.00  0.00    +0.000 NA
ATOM     26  C   UNL     1      43.966   3.562  11.317  0.00  0.00    +0.000 A 
ATOM     27  S   UNL     1      43.320   3.900  12.851  0.00  0.00    +0.000 S 
ATOM     28  C   UNL     1      44.147   5.383  12.927  0.00  0.00    +0.000 A 
ATOM     29  C   UNL     1      44.932   5.649  11.809  0.00  0.00    +0.000 A 
ATOM     30  C   UNL     1      44.789   4.573  10.829  0.00  0.00    +0.000 A 
BRANCH  22  32
ATOM     31  C   UNL     1      46.739   4.769   7.744  0.00  0.00    +0.000 C 
ATOM     32  O   UNL     1      46.057   5.264   8.893  0.00  0.00    +0.000 OA
ENDBRANCH  22  32
ENDBRANCH  18  29
ENDBRANCH   1  20
TORSDOF 8
ENDMDL
