MODEL 1
REMARK VINA RESULT:    -8.668      0.000      0.000
REMARK INTER + INTRA:         -13.671
REMARK INTER:                 -12.215
REMARK INTRA:                  -1.456
REMARK UNBOUND:                -1.456
REMARK  Name = 
REMARK  8 active torsions:
REMARK  status: ('A' for Active; 'I' for Inactive)
REMARK    1  A    between atoms: C_1  and  C_2
REMARK    2  A    between atoms: C_2  and  N_3
REMARK    3  A    between atoms: C_2  and  C_25
REMARK    4  A    between atoms: N_3  and  C_4
REMARK    5  A    between atoms: C_4  and  C_5
REMARK    6  A    between atoms: C_8  and  C_9
REMARK    7  A    between atoms: C_9  and  N_10
REMARK    8  A    between atoms: C_11  and  C_13
REMARK                            x       y       z     vdW  Elec       q    Type
REMARK                         _______ _______ _______ _____ _____    ______ ____
ROOT
ATOM      1  C   UNL     1      44.568   5.646  10.949  0.00  0.00    +0.000 A 
ATOM      2  C   UNL     1      45.891   5.868  10.537  0.00  0.00    +0.000 A 
ATOM      3  C   UNL     1      46.756   6.651  11.308  0.00  0.00    +0.000 A 
ATOM      4  C   UNL     1      46.319   7.229  12.504  0.00  0.00    +0.000 A 
ATOM      5  C   UNL     1      44.987   7.041  12.897  0.00  0.00    +0.000 A 
ATOM      6  C   UNL     1      44.124   6.251  12.133  0.00  0.00    +0.000 A 
ENDROOT
BRANCH   1   7
ATOM      7  C   UNL     1      43.633   4.773  10.137  0.00  0.00    +0.000 C 
BRANCH   7   8
ATOM      8  N   UNL     1      44.264   4.350   8.891  0.00  0.00    +0.000 NA
ATOM      9  H   UNL     1      43.713   4.695   8.107  0.00  0.00    +0.000 HD
BRANCH   8  11
ATOM     10  C   UNL     1      44.518   2.164  10.079  0.00  0.00    +0.000 C 
ATOM     11  C   UNL     1      44.405   2.896   8.737  0.00  0.00    +0.000 C 
BRANCH  11  12
ATOM     12  C   UNL     1      45.638   2.616   7.883  0.00  0.00    +0.000 A 
ATOM     13  C   UNL     1      46.353   1.418   8.019  0.00  0.00    +0.000 A 
ATOM     14  C   UNL     1      47.450   1.150   7.198  0.00  0.00    +0.000 A 
ATOM     15  C   UNL     1      47.848   2.074   6.232  0.00  0.00    +0.000 A 
ATOM     16  C   UNL     1      47.154   3.273   6.092  0.00  0.00    +0.000 A 
ATOM     17  C   UNL     1      46.058   3.541   6.911  0.00  0.00    +0.000 A 
ENDBRANCH  11  12
ENDBRANCH   8  11
ENDBRANCH   7   8
ENDBRANCH   1   7
BRANCH   4  18
ATOM     18  C   UNL     1      47.243   8.076  13.335  0.00  0.00    +0.000 C 
BRANCH  18  19
ATOM     19  N   UNL     1      47.582   7.412  14.567  0.00  0.00    +0.000 N 
ATOM     20  C   UNL     1      48.834   6.893  14.773  0.00  0.00    +0.000 C 
ATOM     21  O   UNL     1      49.731   7.011  13.941  0.00  0.00    +0.000 OA
ATOM     22  H   UNL     1      46.813   7.119  15.160  0.00  0.00    +0.000 HD
BRANCH  20  23
ATOM     23  C   UNL     1      49.070   6.239  16.065  0.00  0.00    +0.000 A 
ATOM     24  C   UNL     1      50.042   6.744  16.919  0.00  0.00    +0.000 A 
ATOM     25  S   UNL     1      50.157   5.903  18.398  0.00  0.00    +0.000 S 
ATOM     26  C   UNL     1      48.947   4.803  17.928  0.00  0.00    +0.000 A 
ATOM     27  N   UNL     1      48.573   3.786  18.750  0.00  0.00    +0.000 NA
ATOM     28  C   UNL     1      47.667   3.010  18.260  0.00  0.00    +0.000 A 
ATOM     29  N   UNL     1      47.095   3.162  17.023  0.00  0.00    +0.000 N 
ATOM     30  C   UNL     1      47.424   4.188  16.169  0.00  0.00    +0.000 A 
ATOM     31  O   UNL     1      46.868   4.313  15.082  0.00  0.00    +0.000 OA
ATOM     32  C   UNL     1      48.448   5.085  16.669  0.00  0.00    +0.000 A 
ATOM     33  H   UNL     1      46.386   2.522  16.700  0.00  0.00    +0.000 HD
ENDBRANCH  20  23
ENDBRANCH  18  19
ENDBRANCH   4  18
TORSDOF 7
ENDMDL
MODEL 2
REMARK VINA RESULT:    -7.783      2.048      2.675
REMARK INTER + INTRA:         -12.424
REMARK INTER:                 -11.360
REMARK INTRA:                  -1.065
REMARK UNBOUND:                -1.456
REMARK  Name = 
REMARK  8 active torsions:
REMARK  status: ('A' for Active; 'I' for Inactive)
REMARK    1  A    between atoms: C_1  and  C_2
REMARK    2  A    between atoms: C_2  and  N_3
REMARK    3  A    between atoms: C_2  and  C_25
REMARK    4  A    between atoms: N_3  and  C_4
REMARK    5  A    between atoms: C_4  and  C_5
REMARK    6  A    between atoms: C_8  and  C_9
REMARK    7  A    between atoms: C_9  and  N_10
REMARK    8  A    between atoms: C_11  and  C_13
REMARK                            x       y       z     vdW  Elec       q    Type
REMARK                         _______ _______ _______ _____ _____    ______ ____
ROOT
ATOM      1  C   UNL     1      45.264   6.325  11.514  0.00  0.00    +0.000 A 
ATOM      2  C   UNL     1      45.132   7.692  11.802  0.00  0.00    +0.000 A 
ATOM      3  C   UNL     1      46.034   8.331  12.658  0.00  0.00    +0.000 A 
ATOM      4  C   UNL     1      47.084   7.619  13.247  0.00  0.00    +0.000 A 
ATOM      5  C   UNL     1      47.194   6.246  12.992  0.00  0.00    +0.000 A 
ATOM      6  C   UNL     1      46.300   5.608  12.128  0.00  0.00    +0.000 A 
ENDROOT
BRANCH   1   7
ATOM      7  C   UNL     1      44.310   5.631  10.563  0.00  0.00    +0.000 C 
BRANCH   7   8
ATOM      8  N   UNL     1      45.038   4.967   9.487  0.00  0.00    +0.000 NA
ATOM      9  H   UNL     1      45.021   5.562   8.659  0.00  0.00    +0.000 HD
BRANCH   8  11
ATOM     10  C   UNL     1      44.140   2.786  10.317  0.00  0.00    +0.000 C 
ATOM     11  C   UNL     1      44.508   3.651   9.106  0.00  0.00    +0.000 C 
BRANCH  11  12
ATOM     12  C   UNL     1      45.549   2.938   8.250  0.00  0.00    +0.000 A 
ATOM     13  C   UNL     1      46.277   3.631   7.273  0.00  0.00    +0.000 A 
ATOM     14  C   UNL     1      47.264   2.981   6.529  0.00  0.00    +0.000 A 
ATOM     15  C   UNL     1      47.535   1.630   6.750  0.00  0.00    +0.000 A 
ATOM     16  C   UNL     1      46.814   0.926   7.709  0.00  0.00    +0.000 A 
ATOM     17  C   UNL     1      45.829   1.575   8.453  0.00  0.00    +0.000 A 
ENDBRANCH  11  12
ENDBRANCH   8  11
ENDBRANCH   7   8
ENDBRANCH   1   7
BRANCH   4  18
ATOM     18  C   UNL     1      48.055   8.300  14.173  0.00  0.00    +0.000 C 
BRANCH  18  19
ATOM     19  N   UNL     1      48.003   7.719  15.490  0.00  0.00    +0.000 N 
ATOM     20  C   UNL     1      48.998   6.893  15.941  0.00  0.00    +0.000 C 
ATOM     21  O   UNL     1      49.996   6.649  15.266  0.00  0.00    +0.000 OA
ATOM     22  H   UNL     1      47.106   7.732  15.964  0.00  0.00    +0.000 HD
BRANCH  20  23
ATOM     23  C   UNL     1      48.844   6.359  17.299  0.00  0.00    +0.000 A 
ATOM     24  C   UNL     1      49.191   5.039  17.559  0.00  0.00    +0.000 A 
ATOM     25  S   UNL     1      49.002   4.590  19.192  0.00  0.00    +0.000 S 
ATOM     26  C   UNL     1      48.400   6.129  19.601  0.00  0.00    +0.000 A 
ATOM     27  N   UNL     1      48.014   6.409  20.874  0.00  0.00    +0.000 NA
ATOM     28  C   UNL     1      47.551   7.602  21.041  0.00  0.00    +0.000 A 
ATOM     29  N   UNL     1      47.444   8.542  20.049  0.00  0.00    +0.000 N 
ATOM     30  C   UNL     1      47.843   8.312  18.754  0.00  0.00    +0.000 A 
ATOM     31  O   UNL     1      47.764   9.187  17.899  0.00  0.00    +0.000 OA
ATOM     32  C   UNL     1      48.363   6.980  18.511  0.00  0.00    +0.000 A 
ATOM     33  H   UNL     1      47.077   9.461  20.246  0.00  0.00    +0.000 HD
ENDBRANCH  20  23
ENDBRANCH  18  19
ENDBRANCH   4  18
TORSDOF 7
ENDMDL
MODEL 3
REMARK VINA RESULT:    -7.355      3.100      4.277
REMARK INTER + INTRA:         -11.821
REMARK INTER:                 -10.587
REMARK INTRA:                  -1.234
REMARK UNBOUND:                -1.456
REMARK  Name = 
REMARK  8 active torsions:
REMARK  status: ('A' for Active; 'I' for Inactive)
REMARK    1  A    between atoms: C_1  and  C_2
REMARK    2  A    between atoms: C_2  and  N_3
REMARK    3  A    between atoms: C_2  and  C_25
REMARK    4  A    between atoms: N_3  and  C_4
REMARK    5  A    between atoms: C_4  and  C_5
REMARK    6  A    between atoms: C_8  and  C_9
REMARK    7  A    between atoms: C_9  and  N_10
REMARK    8  A    between atoms: C_11  and  C_13
REMARK                            x       y       z     vdW  Elec       q    Type
REMARK                         _______ _______ _______ _____ _____    ______ ____
ROOT
ATOM      1  C   UNL     1      46.872   4.642  14.120  0.00  0.00    +0.000 A 
ATOM      2  C   UNL     1      47.009   3.928  15.319  0.00  0.00    +0.000 A 
ATOM      3  C   UNL     1      47.765   4.446  16.376  0.00  0.00    +0.000 A 
ATOM      4  C   UNL     1      48.400   5.687  16.256  0.00  0.00    +0.000 A 
ATOM      5  C   UNL     1      48.297   6.383  15.045  0.00  0.00    +0.000 A 
ATOM      6  C   UNL     1      47.534   5.871  13.992  0.00  0.00    +0.000 A 
ENDROOT
BRANCH   1   7
ATOM      7  C   UNL     1      46.030   4.103  12.981  0.00  0.00    +0.000 C 
BRANCH   7   8
ATOM      8  N   UNL     1      45.774   5.139  11.986  0.00  0.00    +0.000 NA
ATOM      9  H   UNL     1      45.623   6.026  12.463  0.00  0.00    +0.000 HD
BRANCH   8  11
ATOM     10  C   UNL     1      43.483   4.146  11.847  0.00  0.00    +0.000 C 
ATOM     11  C   UNL     1      44.612   4.888  11.123  0.00  0.00    +0.000 C 
BRANCH  11  12
ATOM     12  C   UNL     1      45.073   4.085   9.910  0.00  0.00    +0.000 A 
ATOM     13  C   UNL     1      45.708   4.713   8.829  0.00  0.00    +0.000 A 
ATOM     14  C   UNL     1      46.171   3.962   7.747  0.00  0.00    +0.000 A 
ATOM     15  C   UNL     1      46.005   2.577   7.728  0.00  0.00    +0.000 A 
ATOM     16  C   UNL     1      45.366   1.942   8.789  0.00  0.00    +0.000 A 
ATOM     17  C   UNL     1      44.904   2.690   9.871  0.00  0.00    +0.000 A 
ENDBRANCH  11  12
ENDBRANCH   8  11
ENDBRANCH   7   8
ENDBRANCH   1   7
BRANCH   4  18
ATOM     18  C   UNL     1      49.219   6.247  17.387  0.00  0.00    +0.000 C 
BRANCH  18  19
ATOM     19  N   UNL     1      50.215   5.301  17.819  0.00  0.00    +0.000 N 
ATOM     20  C   UNL     1      51.489   5.332  17.314  0.00  0.00    +0.000 C 
ATOM     21  O   UNL     1      51.850   6.190  16.512  0.00  0.00    +0.000 OA
ATOM     22  H   UNL     1      49.886   4.472  18.302  0.00  0.00    +0.000 HD
BRANCH  20  23
ATOM     23  C   UNL     1      52.424   4.323  17.826  0.00  0.00    +0.000 A 
ATOM     24  C   UNL     1      53.617   4.728  18.409  0.00  0.00    +0.000 A 
ATOM     25  S   UNL     1      54.565   3.439  18.997  0.00  0.00    +0.000 S 
ATOM     26  C   UNL     1      53.438   2.289  18.447  0.00  0.00    +0.000 A 
ATOM     27  N   UNL     1      53.662   0.959  18.615  0.00  0.00    +0.000 NA
ATOM     28  C   UNL     1      52.743   0.196  18.127  0.00  0.00    +0.000 A 
ATOM     29  N   UNL     1      51.615   0.646  17.489  0.00  0.00    +0.000 N 
ATOM     30  C   UNL     1      51.335   1.980  17.318  0.00  0.00    +0.000 A 
ATOM     31  O   UNL     1      50.299   2.347  16.772  0.00  0.00    +0.000 OA
ATOM     32  C   UNL     1      52.344   2.881  17.841  0.00  0.00    +0.000 A 
ATOM     33  H   UNL     1      50.930  -0.004  17.134  0.00  0.00    +0.000 HD
ENDBRANCH  20  23
ENDBRANCH  18  19
ENDBRANCH   4  18
TORSDOF 7
ENDMDL
MODEL 4
REMARK VINA RESULT:    -7.285      1.990      2.669
REMARK INTER + INTRA:         -11.722
REMARK INTER:                 -10.107
REMARK INTRA:                  -1.615
REMARK UNBOUND:                -1.456
REMARK  Name = 
REMARK  8 active torsions:
REMARK  status: ('A' for Active; 'I' for Inactive)
REMARK    1  A    between atoms: C_1  and  C_2
REMARK    2  A    between atoms: C_2  and  N_3
REMARK    3  A    between atoms: C_2  and  C_25
REMARK    4  A    between atoms: N_3  and  C_4
REMARK    5  A    between atoms: C_4  and  C_5
REMARK    6  A    between atoms: C_8  and  C_9
REMARK    7  A    between atoms: C_9  and  N_10
REMARK    8  A    between atoms: C_11  and  C_13
REMARK                            x       y       z     vdW  Elec       q    Type
REMARK                         _______ _______ _______ _____ _____    ______ ____
ROOT
ATOM      1  C   UNL     1      45.174   6.805  11.808  0.00  0.00    +0.000 A 
ATOM      2  C   UNL     1      45.088   8.179  12.083  0.00  0.00    +0.000 A 
ATOM      3  C   UNL     1      46.244   8.951  12.235  0.00  0.00    +0.000 A 
ATOM      4  C   UNL     1      47.510   8.368  12.118  0.00  0.00    +0.000 A 
ATOM      5  C   UNL     1      47.599   6.990  11.883  0.00  0.00    +0.000 A 
ATOM      6  C   UNL     1      46.445   6.219  11.720  0.00  0.00    +0.000 A 
ENDROOT
BRANCH   1   7
ATOM      7  C   UNL     1      43.928   5.968  11.610  0.00  0.00    +0.000 C 
BRANCH   7   8
ATOM      8  N   UNL     1      43.886   5.404  10.265  0.00  0.00    +0.000 NA
ATOM      9  H   UNL     1      43.083   5.789   9.770  0.00  0.00    +0.000 HD
BRANCH   8  11
ATOM     10  C   UNL     1      43.955   3.284  11.591  0.00  0.00    +0.000 C 
ATOM     11  C   UNL     1      43.786   3.939  10.215  0.00  0.00    +0.000 C 
BRANCH  11  12
ATOM     12  C   UNL     1      44.845   3.413   9.251  0.00  0.00    +0.000 A 
ATOM     13  C   UNL     1      45.141   2.044   9.182  0.00  0.00    +0.000 A 
ATOM     14  C   UNL     1      46.076   1.567   8.261  0.00  0.00    +0.000 A 
ATOM     15  C   UNL     1      46.727   2.449   7.399  0.00  0.00    +0.000 A 
ATOM     16  C   UNL     1      46.452   3.812   7.464  0.00  0.00    +0.000 A 
ATOM     17  C   UNL     1      45.518   4.290   8.382  0.00  0.00    +0.000 A 
ENDBRANCH  11  12
ENDBRANCH   8  11
ENDBRANCH   7   8
ENDBRANCH   1   7
BRANCH   4  18
ATOM     18  C   UNL     1      48.757   9.192  12.286  0.00  0.00    +0.000 C 
BRANCH  18  19
ATOM     19  N   UNL     1      49.431   8.862  13.515  0.00  0.00    +0.000 N 
ATOM     20  C   UNL     1      50.687   8.316  13.512  0.00  0.00    +0.000 C 
ATOM     21  O   UNL     1      51.311   8.128  12.470  0.00  0.00    +0.000 OA
ATOM     22  H   UNL     1      48.860   8.806  14.353  0.00  0.00    +0.000 HD
BRANCH  20  23
ATOM     23  C   UNL     1      51.279   8.020  14.822  0.00  0.00    +0.000 A 
ATOM     24  C   UNL     1      52.490   8.603  15.172  0.00  0.00    +0.000 A 
ATOM     25  S   UNL     1      53.015   8.199  16.743  0.00  0.00    +0.000 S 
ATOM     26  C   UNL     1      51.668   7.189  16.991  0.00  0.00    +0.000 A 
ATOM     27  N   UNL     1      51.519   6.502  18.155  0.00  0.00    +0.000 NA
ATOM     28  C   UNL     1      50.470   5.752  18.201  0.00  0.00    +0.000 A 
ATOM     29  N   UNL     1      49.552   5.632  17.188  0.00  0.00    +0.000 N 
ATOM     30  C   UNL     1      49.650   6.325  16.005  0.00  0.00    +0.000 A 
ATOM     31  O   UNL     1      48.793   6.219  15.134  0.00  0.00    +0.000 OA
ATOM     32  C   UNL     1      50.819   7.176  15.899  0.00  0.00    +0.000 A 
ATOM     33  H   UNL     1      48.749   5.031  17.290  0.00  0.00    +0.000 HD
ENDBRANCH  20  23
ENDBRANCH  18  19
ENDBRANCH   4  18
TORSDOF 7
ENDMDL
MODEL 5
REMARK VINA RESULT:    -7.255      2.992      8.526
REMARK INTER + INTRA:         -11.680
REMARK INTER:                  -9.817
REMARK INTRA:                  -1.863
REMARK UNBOUND:                -1.456
REMARK  Name = 
REMARK  8 active torsions:
REMARK  status: ('A' for Active; 'I' for Inactive)
REMARK    1  A    between atoms: C_1  and  C_2
REMARK    2  A    between atoms: C_2  and  N_3
REMARK    3  A    between atoms: C_2  and  C_25
REMARK    4  A    between atoms: N_3  and  C_4
REMARK    5  A    between atoms: C_4  and  C_5
REMARK    6  A    between atoms: C_8  and  C_9
REMARK    7  A    between atoms: C_9  and  N_10
REMARK    8  A    between atoms: C_11  and  C_13
REMARK                            x       y       z     vdW  Elec       q    Type
REMARK                         _______ _______ _______ _____ _____    ______ ____
ROOT
ATOM      1  C   UNL     1      48.963   7.850  16.162  0.00  0.00    +0.000 A 
ATOM      2  C   UNL     1      48.374   9.010  15.635  0.00  0.00    +0.000 A 
ATOM      3  C   UNL     1      47.821   9.008  14.350  0.00  0.00    +0.000 A 
ATOM      4  C   UNL     1      47.845   7.851  13.566  0.00  0.00    +0.000 A 
ATOM      5  C   UNL     1      48.468   6.704  14.074  0.00  0.00    +0.000 A 
ATOM      6  C   UNL     1      49.012   6.700  15.362  0.00  0.00    +0.000 A 
ENDROOT
BRANCH   1   7
ATOM      7  C   UNL     1      49.537   7.834  17.564  0.00  0.00    +0.000 C 
BRANCH   7   8
ATOM      8  N   UNL     1      48.534   7.402  18.533  0.00  0.00    +0.000 NA
ATOM      9  H   UNL     1      48.365   8.159  19.194  0.00  0.00    +0.000 HD
BRANCH   8  11
ATOM     10  C   UNL     1      50.344   6.244  19.812  0.00  0.00    +0.000 C 
ATOM     11  C   UNL     1      48.899   6.206  19.303  0.00  0.00    +0.000 C 
BRANCH  11  12
ATOM     12  C   UNL     1      48.686   4.978  18.422  0.00  0.00    +0.000 A 
ATOM     13  C   UNL     1      49.740   4.095  18.150  0.00  0.00    +0.000 A 
ATOM     14  C   UNL     1      49.524   2.948  17.384  0.00  0.00    +0.000 A 
ATOM     15  C   UNL     1      48.254   2.669  16.879  0.00  0.00    +0.000 A 
ATOM     16  C   UNL     1      47.200   3.542  17.132  0.00  0.00    +0.000 A 
ATOM     17  C   UNL     1      47.415   4.687  17.897  0.00  0.00    +0.000 A 
ENDBRANCH  11  12
ENDBRANCH   8  11
ENDBRANCH   7   8
ENDBRANCH   1   7
BRANCH   4  18
ATOM     18  C   UNL     1      47.257   7.844  12.181  0.00  0.00    +0.000 C 
BRANCH  18  19
ATOM     19  N   UNL     1      46.641   6.575  11.890  0.00  0.00    +0.000 N 
ATOM     20  C   UNL     1      45.283   6.460  11.755  0.00  0.00    +0.000 C 
ATOM     21  O   UNL     1      44.537   7.433  11.830  0.00  0.00    +0.000 OA
ATOM     22  H   UNL     1      47.205   5.745  12.038  0.00  0.00    +0.000 HD
BRANCH  20  23
ATOM     23  C   UNL     1      44.763   5.120  11.456  0.00  0.00    +0.000 A 
ATOM     24  C   UNL     1      44.026   4.441  12.418  0.00  0.00    +0.000 A 
ATOM     25  S   UNL     1      43.454   2.923  11.896  0.00  0.00    +0.000 S 
ATOM     26  C   UNL     1      44.215   3.096  10.383  0.00  0.00    +0.000 A 
ATOM     27  N   UNL     1      44.137   2.111   9.449  0.00  0.00    +0.000 NA
ATOM     28  C   UNL     1      44.782   2.358   8.359  0.00  0.00    +0.000 A 
ATOM     29  N   UNL     1      45.493   3.506   8.117  0.00  0.00    +0.000 N 
ATOM     30  C   UNL     1      45.579   4.536   9.022  0.00  0.00    +0.000 A 
ATOM     31  O   UNL     1      46.197   5.563   8.759  0.00  0.00    +0.000 OA
ATOM     32  C   UNL     1      44.879   4.304  10.270  0.00  0.00    +0.000 A 
ATOM     33  H   UNL     1      45.972   3.640   7.239  0.00  0.00    +0.000 HD
ENDBRANCH  20  23
ENDBRANCH  18  19
ENDBRANCH   4  18
TORSDOF 7
ENDMDL
MODEL 6
REMARK VINA RESULT:    -7.123      5.041      9.250
REMARK INTER + INTRA:         -11.494
REMARK INTER:                 -10.330
REMARK INTRA:                  -1.164
REMARK UNBOUND:                -1.456
REMARK  Name = 
REMARK  8 active torsions:
REMARK  status: ('A' for Active; 'I' for Inactive)
REMARK    1  A    between atoms: C_1  and  C_2
REMARK    2  A    between atoms: C_2  and  N_3
REMARK    3  A    between atoms: C_2  and  C_25
REMARK    4  A    between atoms: N_3  and  C_4
REMARK    5  A    between atoms: C_4  and  C_5
REMARK    6  A    between atoms: C_8  and  C_9
REMARK    7  A    between atoms: C_9  and  N_10
REMARK    8  A    between atoms: C_11  and  C_13
REMARK                            x       y       z     vdW  Elec       q    Type
REMARK                         _______ _______ _______ _____ _____    ______ ____
ROOT
ATOM      1  C   UNL     1      51.207   2.267  17.415  0.00  0.00    +0.000 A 
ATOM      2  C   UNL     1      51.774   3.533  17.626  0.00  0.00    +0.000 A 
ATOM      3  C   UNL     1      50.983   4.686  17.587  0.00  0.00    +0.000 A 
ATOM      4  C   UNL     1      49.610   4.599  17.334  0.00  0.00    +0.000 A 
ATOM      5  C   UNL     1      49.049   3.341  17.083  0.00  0.00    +0.000 A 
ATOM      6  C   UNL     1      49.836   2.187  17.133  0.00  0.00    +0.000 A 
ENDROOT
BRANCH   1   7
ATOM      7  C   UNL     1      52.050   1.011  17.487  0.00  0.00    +0.000 C 
BRANCH   7   8
ATOM      8  N   UNL     1      53.012   1.090  18.581  0.00  0.00    +0.000 NA
ATOM      9  H   UNL     1      52.967   2.021  18.994  0.00  0.00    +0.000 HD
BRANCH   8  11
ATOM     10  C   UNL     1      54.884   1.755  17.062  0.00  0.00    +0.000 C 
ATOM     11  C   UNL     1      54.406   0.837  18.193  0.00  0.00    +0.000 C 
BRANCH  11  12
ATOM     12  C   UNL     1      54.534  -0.623  17.771  0.00  0.00    +0.000 A 
ATOM     13  C   UNL     1      54.893  -0.967  16.460  0.00  0.00    +0.000 A 
ATOM     14  C   UNL     1      55.057  -2.305  16.097  0.00  0.00    +0.000 A 
ATOM     15  C   UNL     1      54.864  -3.317  17.037  0.00  0.00    +0.000 A 
ATOM     16  C   UNL     1      54.496  -2.993  18.340  0.00  0.00    +0.000 A 
ATOM     17  C   UNL     1      54.333  -1.656  18.703  0.00  0.00    +0.000 A 
ENDBRANCH  11  12
ENDBRANCH   8  11
ENDBRANCH   7   8
ENDBRANCH   1   7
BRANCH   4  18
ATOM     18  C   UNL     1      48.755   5.836  17.285  0.00  0.00    +0.000 C 
BRANCH  18  19
ATOM     19  N   UNL     1      47.883   5.813  16.139  0.00  0.00    +0.000 N 
ATOM     20  C   UNL     1      48.309   6.254  14.914  0.00  0.00    +0.000 C 
ATOM     21  O   UNL     1      49.460   6.641  14.727  0.00  0.00    +0.000 OA
ATOM     22  H   UNL     1      46.890   5.706  16.318  0.00  0.00    +0.000 HD
BRANCH  20  23
ATOM     23  C   UNL     1      47.338   6.183  13.815  0.00  0.00    +0.000 A 
ATOM     24  C   UNL     1      46.959   7.349  13.162  0.00  0.00    +0.000 A 
ATOM     25  S   UNL     1      45.866   7.090  11.880  0.00  0.00    +0.000 S 
ATOM     26  C   UNL     1      45.820   5.416  12.186  0.00  0.00    +0.000 A 
ATOM     27  N   UNL     1      45.034   4.594  11.441  0.00  0.00    +0.000 NA
ATOM     28  C   UNL     1      45.071   3.354  11.797  0.00  0.00    +0.000 A 
ATOM     29  N   UNL     1      45.829   2.861  12.828  0.00  0.00    +0.000 N 
ATOM     30  C   UNL     1      46.656   3.650  13.592  0.00  0.00    +0.000 A 
ATOM     31  O   UNL     1      47.345   3.171  14.486  0.00  0.00    +0.000 OA
ATOM     32  C   UNL     1      46.643   5.057  13.239  0.00  0.00    +0.000 A 
ATOM     33  H   UNL     1      45.817   1.878  13.053  0.00  0.00    +0.000 HD
ENDBRANCH  20  23
ENDBRANCH  18  19
ENDBRANCH   4  18
TORSDOF 7
ENDMDL
MODEL 7
REMARK VINA RESULT:    -6.985      3.257      5.391
REMARK INTER + INTRA:         -11.300
REMARK INTER:                  -9.961
REMARK INTRA:                  -1.339
REMARK UNBOUND:                -1.456
REMARK  Name = 
REMARK  8 active torsions:
REMARK  status: ('A' for Active; 'I' for Inactive)
REMARK    1  A    between atoms: C_1  and  C_2
REMARK    2  A    between atoms: C_2  and  N_3
REMARK    3  A    between atoms: C_2  and  C_25
REMARK    4  A    between atoms: N_3  and  C_4
REMARK    5  A    between atoms: C_4  and  C_5
REMARK    6  A    between atoms: C_8  and  C_9
REMARK    7  A    between atoms: C_9  and  N_10
REMARK    8  A    between atoms: C_11  and  C_13
REMARK                            x       y       z     vdW  Elec       q    Type
REMARK                         _______ _______ _______ _____ _____    ______ ____
ROOT
ATOM      1  C   UNL     1      47.643   6.060  14.407  0.00  0.00    +0.000 A 
ATOM      2  C   UNL     1      47.022   4.804  14.340  0.00  0.00    +0.000 A 
ATOM      3  C   UNL     1      47.146   3.889  15.391  0.00  0.00    +0.000 A 
ATOM      4  C   UNL     1      47.896   4.208  16.528  0.00  0.00    +0.000 A 
ATOM      5  C   UNL     1      48.550   5.445  16.579  0.00  0.00    +0.000 A 
ATOM      6  C   UNL     1      48.417   6.365  15.535  0.00  0.00    +0.000 A 
ENDROOT
BRANCH   1   7
ATOM      7  C   UNL     1      47.487   7.069  13.288  0.00  0.00    +0.000 C 
BRANCH   7   8
ATOM      8  N   UNL     1      47.309   6.401  12.003  0.00  0.00    +0.000 NA
ATOM      9  H   UNL     1      48.065   6.678  11.378  0.00  0.00    +0.000 HD
BRANCH   8  11
ATOM     10  C   UNL     1      44.973   7.249  12.282  0.00  0.00    +0.000 C 
ATOM     11  C   UNL     1      46.038   6.695  11.328  0.00  0.00    +0.000 C 
BRANCH  11  12
ATOM     12  C   UNL     1      45.533   5.417  10.666  0.00  0.00    +0.000 A 
ATOM     13  C   UNL     1      44.857   4.439  11.409  0.00  0.00    +0.000 A 
ATOM     14  C   UNL     1      44.355   3.296  10.784  0.00  0.00    +0.000 A 
ATOM     15  C   UNL     1      44.522   3.114   9.411  0.00  0.00    +0.000 A 
ATOM     16  C   UNL     1      45.201   4.071   8.662  0.00  0.00    +0.000 A 
ATOM     17  C   UNL     1      45.702   5.214   9.285  0.00  0.00    +0.000 A 
ENDBRANCH  11  12
ENDBRANCH   8  11
ENDBRANCH   7   8
ENDBRANCH   1   7
BRANCH   4  18
ATOM     18  C   UNL     1      48.038   3.226  17.659  0.00  0.00    +0.000 C 
BRANCH  18  19
ATOM     19  N   UNL     1      49.426   2.971  17.946  0.00  0.00    +0.000 N 
ATOM     20  C   UNL     1      50.187   2.179  17.127  0.00  0.00    +0.000 C 
ATOM     21  O   UNL     1      49.736   1.692  16.092  0.00  0.00    +0.000 OA
ATOM     22  H   UNL     1      49.748   3.177  18.886  0.00  0.00    +0.000 HD
BRANCH  20  23
ATOM     23  C   UNL     1      51.590   1.987  17.514  0.00  0.00    +0.000 A 
ATOM     24  C   UNL     1      52.083   0.700  17.682  0.00  0.00    +0.000 A 
ATOM     25  S   UNL     1      53.740   0.649  18.081  0.00  0.00    +0.000 S 
ATOM     26  C   UNL     1      53.844   2.348  18.094  0.00  0.00    +0.000 A 
ATOM     27  N   UNL     1      55.014   2.971  18.396  0.00  0.00    +0.000 NA
ATOM     28  C   UNL     1      54.947   4.260  18.398  0.00  0.00    +0.000 A 
ATOM     29  N   UNL     1      53.815   4.982  18.118  0.00  0.00    +0.000 N 
ATOM     30  C   UNL     1      52.618   4.396  17.784  0.00  0.00    +0.000 A 
ATOM     31  O   UNL     1      51.633   5.073  17.508  0.00  0.00    +0.000 OA
ATOM     32  C   UNL     1      52.637   2.946  17.778  0.00  0.00    +0.000 A 
ATOM     33  H   UNL     1      53.831   5.990  18.131  0.00  0.00    +0.000 HD
ENDBRANCH  20  23
ENDBRANCH  18  19
ENDBRANCH   4  18
TORSDOF 7
ENDMDL
MODEL 8
REMARK VINA RESULT:    -6.898      3.334      8.218
REMARK INTER + INTRA:         -11.177
REMARK INTER:                  -9.621
REMARK INTRA:                  -1.555
REMARK UNBOUND:                -1.456
REMARK  Name = 
REMARK  8 active torsions:
REMARK  status: ('A' for Active; 'I' for Inactive)
REMARK    1  A    between atoms: C_1  and  C_2
REMARK    2  A    between atoms: C_2  and  N_3
REMARK    3  A    between atoms: C_2  and  C_25
REMARK    4  A    between atoms: N_3  and  C_4
REMARK    5  A    between atoms: C_4  and  C_5
REMARK    6  A    between atoms: C_8  and  C_9
REMARK    7  A    between atoms: C_9  and  N_10
REMARK    8  A    between atoms: C_11  and  C_13
REMARK                            x       y       z     vdW  Elec       q    Type
REMARK                         _______ _______ _______ _____ _____    ______ ____
ROOT
ATOM      1  C   UNL     1      50.314   7.016  15.779  0.00  0.00    +0.000 A 
ATOM      2  C   UNL     1      50.946   7.757  14.769  0.00  0.00    +0.000 A 
ATOM      3  C   UNL     1      50.253   8.116  13.608  0.00  0.00    +0.000 A 
ATOM      4  C   UNL     1      48.918   7.742  13.431  0.00  0.00    +0.000 A 
ATOM      5  C   UNL     1      48.297   6.968  14.420  0.00  0.00    +0.000 A 
ATOM      6  C   UNL     1      48.984   6.617  15.585  0.00  0.00    +0.000 A 
ENDROOT
BRANCH   1   7
ATOM      7  C   UNL     1      51.046   6.649  17.054  0.00  0.00    +0.000 C 
BRANCH   7   8
ATOM      8  N   UNL     1      50.128   6.598  18.186  0.00  0.00    +0.000 NA
ATOM      9  H   UNL     1      50.312   7.392  18.798  0.00  0.00    +0.000 HD
BRANCH   8  11
ATOM     10  C   UNL     1      51.647   5.084  19.474  0.00  0.00    +0.000 C 
ATOM     11  C   UNL     1      50.219   5.376  18.996  0.00  0.00    +0.000 C 
BRANCH  11  12
ATOM     12  C   UNL     1      49.695   4.206  18.170  0.00  0.00    +0.000 A 
ATOM     13  C   UNL     1      48.340   4.119  17.820  0.00  0.00    +0.000 A 
ATOM     14  C   UNL     1      47.879   3.071  17.021  0.00  0.00    +0.000 A 
ATOM     15  C   UNL     1      48.764   2.096  16.562  0.00  0.00    +0.000 A 
ATOM     16  C   UNL     1      50.110   2.162  16.909  0.00  0.00    +0.000 A 
ATOM     17  C   UNL     1      50.572   3.209  17.706  0.00  0.00    +0.000 A 
ENDBRANCH  11  12
ENDBRANCH   8  11
ENDBRANCH   7   8
ENDBRANCH   1   7
BRANCH   4  18
ATOM     18  C   UNL     1      48.169   8.120  12.182  0.00  0.00    +0.000 C 
BRANCH  18  19
ATOM     19  N   UNL     1      47.515   6.974  11.606  0.00  0.00    +0.000 N 
ATOM     20  C   UNL     1      46.164   6.967  11.380  0.00  0.00    +0.000 C 
ATOM     21  O   UNL     1      45.461   7.948  11.613  0.00  0.00    +0.000 OA
ATOM     22  H   UNL     1      48.028   6.099  11.612  0.00  0.00    +0.000 HD
BRANCH  20  23
ATOM     23  C   UNL     1      45.602   5.747  10.788  0.00  0.00    +0.000 A 
ATOM     24  C   UNL     1      45.808   5.483   9.440  0.00  0.00    +0.000 A 
ATOM     25  S   UNL     1      45.136   4.005   8.921  0.00  0.00    +0.000 S 
ATOM     26  C   UNL     1      44.501   3.689  10.468  0.00  0.00    +0.000 A 
ATOM     27  N   UNL     1      43.774   2.565  10.705  0.00  0.00    +0.000 NA
ATOM     28  C   UNL     1      43.328   2.463  11.912  0.00  0.00    +0.000 A 
ATOM     29  N   UNL     1      43.550   3.382  12.905  0.00  0.00    +0.000 N 
ATOM     30  C   UNL     1      44.298   4.520  12.718  0.00  0.00    +0.000 A 
ATOM     31  O   UNL     1      44.503   5.304  13.638  0.00  0.00    +0.000 OA
ATOM     32  C   UNL     1      44.814   4.688  11.373  0.00  0.00    +0.000 A 
ATOM     33  H   UNL     1      43.177   3.240  13.831  0.00  0.00    +0.000 HD
ENDBRANCH  20  23
ENDBRANCH  18  19
ENDBRANCH   4  18
TORSDOF 7
ENDMDL
MODEL 9
REMARK VINA RESULT:    -6.804      1.947      2.225
REMARK INTER + INTRA:         -11.045
REMARK INTER:                 -10.040
REMARK INTRA:                  -1.004
REMARK UNBOUND:                -1.456
REMARK  Name = 
REMARK  8 active torsions:
REMARK  status: ('A' for Active; 'I' for Inactive)
REMARK    1  A    between atoms: C_1  and  C_2
REMARK    2  A    between atoms: C_2  and  N_3
REMARK    3  A    between atoms: C_2  and  C_25
REMARK    4  A    between atoms: N_3  and  C_4
REMARK    5  A    between atoms: C_4  and  C_5
REMARK    6  A    between atoms: C_8  and  C_9
REMARK    7  A    between atoms: C_9  and  N_10
REMARK    8  A    between atoms: C_11  and  C_13
REMARK                            x       y       z     vdW  Elec       q    Type
REMARK                         _______ _______ _______ _____ _____    ______ ____
ROOT
ATOM      1  C   UNL     1      45.420   6.420  11.425  0.00  0.00    +0.000 A 
ATOM      2  C   UNL     1      45.001   7.314  12.422  0.00  0.00    +0.000 A 
ATOM      3  C   UNL     1      45.935   8.012  13.194  0.00  0.00    +0.000 A 
ATOM      4  C   UNL     1      47.307   7.830  12.989  0.00  0.00    +0.000 A 
ATOM      5  C   UNL     1      47.728   6.908  12.022  0.00  0.00    +0.000 A 
ATOM      6  C   UNL     1      46.795   6.218  11.242  0.00  0.00    +0.000 A 
ENDROOT
BRANCH   1   7
ATOM      7  C   UNL     1      44.416   5.684  10.562  0.00  0.00    +0.000 C 
BRANCH   7   8
ATOM      8  N   UNL     1      45.071   5.049   9.424  0.00  0.00    +0.000 NA
ATOM      9  H   UNL     1      44.975   5.652   8.608  0.00  0.00    +0.000 HD
BRANCH   8  11
ATOM     10  C   UNL     1      44.132   2.901  10.296  0.00  0.00    +0.000 C 
ATOM     11  C   UNL     1      44.543   3.725   9.070  0.00  0.00    +0.000 C 
BRANCH  11  12
ATOM     12  C   UNL     1      45.604   2.978   8.268  0.00  0.00    +0.000 A 
ATOM     13  C   UNL     1      45.839   1.612   8.480  0.00  0.00    +0.000 A 
ATOM     14  C   UNL     1      46.777   0.926   7.706  0.00  0.00    +0.000 A 
ATOM     15  C   UNL     1      47.494   1.594   6.714  0.00  0.00    +0.000 A 
ATOM     16  C   UNL     1      47.280   2.952   6.499  0.00  0.00    +0.000 A 
ATOM     17  C   UNL     1      46.342   3.638   7.270  0.00  0.00    +0.000 A 
ENDBRANCH  11  12
ENDBRANCH   8  11
ENDBRANCH   7   8
ENDBRANCH   1   7
BRANCH   4  18
ATOM     18  C   UNL     1      48.317   8.573  13.820  0.00  0.00    +0.000 C 
BRANCH  18  19
ATOM     19  N   UNL     1      49.037   7.672  14.682  0.00  0.00    +0.000 N 
ATOM     20  C   UNL     1      49.712   8.130  15.782  0.00  0.00    +0.000 C 
ATOM     21  O   UNL     1      49.696   9.315  16.109  0.00  0.00    +0.000 OA
ATOM     22  H   UNL     1      49.240   6.747  14.316  0.00  0.00    +0.000 HD
BRANCH  20  23
ATOM     23  C   UNL     1      50.410   7.124  16.592  0.00  0.00    +0.000 A 
ATOM     24  C   UNL     1      51.658   6.666  16.187  0.00  0.00    +0.000 A 
ATOM     25  S   UNL     1      52.355   5.540  17.261  0.00  0.00    +0.000 S 
ATOM     26  C   UNL     1      50.991   5.585  18.278  0.00  0.00    +0.000 A 
ATOM     27  N   UNL     1      50.931   4.813  19.395  0.00  0.00    +0.000 NA
ATOM     28  C   UNL     1      49.830   4.922  20.061  0.00  0.00    +0.000 A 
ATOM     29  N   UNL     1      48.786   5.740  19.712  0.00  0.00    +0.000 N 
ATOM     30  C   UNL     1      48.813   6.555  18.605  0.00  0.00    +0.000 A 
ATOM     31  O   UNL     1      47.874   7.299  18.341  0.00  0.00    +0.000 OA
ATOM     32  C   UNL     1      50.026   6.462  17.816  0.00  0.00    +0.000 A 
ATOM     33  H   UNL     1      47.954   5.783  20.279  0.00  0.00    +0.000 HD
ENDBRANCH  20  23
ENDBRANCH  18  19
ENDBRANCH   4  18
TORSDOF 7
ENDMDL
