MODEL 1
REMARK VINA RESULT:   -10.172      0.000      0.000
REMARK INTER + INTRA:         -14.590
REMARK INTER:                 -13.740
REMARK INTRA:                  -0.850
REMARK UNBOUND:                -0.850
REMARK  Name = 
REMARK  6 active torsions:
REMARK  status: ('A' for Active; 'I' for Inactive)
REMARK    1  A    between atoms: C_2  and  C_4
REMARK    2  A    between atoms: N_8  and  C_9
REMARK    3  A    between atoms: C_9  and  C_10
REMARK    4  A    between atoms: C_10  and  C_13
REMARK    5  A    between atoms: C_17  and  O_18
REMARK    6  A    between atoms: O_18  and  C_19
REMARK                            x       y       z     vdW  Elec       q    Type
REMARK                         _______ _______ _______ _____ _____    ______ ____
ROOT
ATOM      1  C   UNL     1      43.503   5.615  12.176  0.00  0.00    +0.000 C 
ATOM      2  F   UNL     1      43.106   6.778  11.578  0.00  0.00    +0.000 F 
ATOM      3  F   UNL     1      42.680   5.473  13.259  0.00  0.00    +0.000 F 
ENDROOT
BRANCH   1   4
ATOM      4  C   UNL     1      44.950   5.665  12.601  0.00  0.00    +0.000 A 
ATOM      5  C   UNL     1      45.799   6.658  12.132  0.00  0.00    +0.000 A 
ATOM      6  N   UNL     1      47.105   6.750  12.467  0.00  0.00    +0.000 NA
ATOM      7  C   UNL     1      47.581   5.822  13.333  0.00  0.00    +0.000 A 
ATOM      8  C   UNL     1      46.813   4.805  13.880  0.00  0.00    +0.000 A 
ATOM      9  C   UNL     1      45.483   4.716  13.486  0.00  0.00    +0.000 A 
BRANCH   8  10
ATOM     10  O   UNL     1      47.433   3.928  14.729  0.00  0.00    +0.000 OA
BRANCH  10  11
ATOM     11  C   UNL     1      47.265   4.126  16.156  0.00  0.00    +0.000 C 
ATOM     12  C   UNL     1      48.332   5.048  16.794  0.00  0.00    +0.000 C 
ATOM     13  C   UNL     1      48.428   4.086  17.981  0.00  0.00    +0.000 C 
ATOM     14  C   UNL     1      47.756   3.002  17.121  0.00  0.00    +0.000 C 
ATOM     15  F   UNL     1      46.776   2.306  17.744  0.00  0.00    +0.000 F 
ATOM     16  F   UNL     1      48.592   2.086  16.582  0.00  0.00    +0.000 F 
ENDBRANCH  10  11
ENDBRANCH   8  10
ENDBRANCH   1   4
BRANCH   1  17
ATOM     17  C   UNL     1      43.235   4.448  11.187  0.00  0.00    +0.000 C 
BRANCH  17  22
ATOM     18  C   UNL     1      46.438   2.462   7.723  0.00  0.00    +0.000 A 
ATOM     19  C   UNL     1      45.602   1.813   8.627  0.00  0.00    +0.000 A 
ATOM     20  C   UNL     1      44.688   2.565   9.367  0.00  0.00    +0.000 A 
ATOM     21  C   UNL     1      44.635   3.946   9.206  0.00  0.00    +0.000 A 
ATOM     22  N   UNL     1      43.698   4.745   9.826  0.00  0.00    +0.000 N 
ATOM     23  N   UNL     1      45.464   4.586   8.358  0.00  0.00    +0.000 NA
ATOM     24  C   UNL     1      46.349   3.842   7.641  0.00  0.00    +0.000 A 
ATOM     25  H   UNL     1      43.931   5.721   9.640  0.00  0.00    +0.000 HD
BRANCH  18  27
ATOM     26  N   UNL     1      48.501   2.436   6.444  0.00  0.00    +0.000 N 
ATOM     27  C   UNL     1      47.396   1.743   6.859  0.00  0.00    +0.000 C 
ATOM     28  O   UNL     1      47.232   0.567   6.557  0.00  0.00    +0.000 OA
ATOM     29  H   UNL     1      49.206   1.901   5.952  0.00  0.00    +0.000 HD
ATOM     30  H   UNL     1      48.795   3.302   6.876  0.00  0.00    +0.000 HD
ENDBRANCH  18  27
ENDBRANCH  17  22
ENDBRANCH   1  17
TORSDOF 6
ENDMDL
MODEL 2
REMARK VINA RESULT:    -9.070      2.628      3.844
REMARK INTER + INTRA:         -13.101
REMARK INTER:                 -11.996
REMARK INTRA:                  -1.105
REMARK UNBOUND:                -0.850
REMARK  Name = 
REMARK  6 active torsions:
REMARK  status: ('A' for Active; 'I' for Inactive)
REMARK    1  A    between atoms: C_2  and  C_4
REMARK    2  A    between atoms: N_8  and  C_9
REMARK    3  A    between atoms: C_9  and  C_10
REMARK    4  A    between atoms: C_10  and  C_13
REMARK    5  A    between atoms: C_17  and  O_18
REMARK    6  A    between atoms: O_18  and  C_19
REMARK                            x       y       z     vdW  Elec       q    Type
REMARK                         _______ _______ _______ _____ _____    ______ ____
ROOT
ATOM      1  C   UNL     1      43.532   5.480  12.086  0.00  0.00    +0.000 C 
ATOM      2  F   UNL     1      43.389   6.704  11.495  0.00  0.00    +0.000 F 
ATOM      3  F   UNL     1      42.555   5.429  13.041  0.00  0.00    +0.000 F 
ENDROOT
BRANCH   1   4
ATOM      4  C   UNL     1      44.898   5.308  12.702  0.00  0.00    +0.000 A 
ATOM      5  C   UNL     1      45.148   4.299  13.622  0.00  0.00    +0.000 A 
ATOM      6  N   UNL     1      46.346   4.102  14.215  0.00  0.00    +0.000 NA
ATOM      7  C   UNL     1      47.353   4.934  13.852  0.00  0.00    +0.000 A 
ATOM      8  C   UNL     1      47.218   5.957  12.925  0.00  0.00    +0.000 A 
ATOM      9  C   UNL     1      45.963   6.157  12.361  0.00  0.00    +0.000 A 
BRANCH   8  10
ATOM     10  O   UNL     1      48.318   6.731  12.669  0.00  0.00    +0.000 OA
BRANCH  10  11
ATOM     11  C   UNL     1      48.161   7.865  11.778  0.00  0.00    +0.000 C 
ATOM     12  C   UNL     1      49.456   8.685  11.568  0.00  0.00    +0.000 C 
ATOM     13  C   UNL     1      48.638   9.974  11.684  0.00  0.00    +0.000 C 
ATOM     14  C   UNL     1      47.509   9.165  12.345  0.00  0.00    +0.000 C 
ATOM     15  F   UNL     1      46.266   9.437  11.883  0.00  0.00    +0.000 F 
ATOM     16  F   UNL     1      47.444   9.252  13.693  0.00  0.00    +0.000 F 
ENDBRANCH  10  11
ENDBRANCH   8  10
ENDBRANCH   1   4
BRANCH   1  17
ATOM     17  C   UNL     1      43.244   4.391  11.016  0.00  0.00    +0.000 C 
BRANCH  17  22
ATOM     18  C   UNL     1      46.612   2.678   7.564  0.00  0.00    +0.000 A 
ATOM     19  C   UNL     1      45.775   1.961   8.413  0.00  0.00    +0.000 A 
ATOM     20  C   UNL     1      44.814   2.646   9.158  0.00  0.00    +0.000 A 
ATOM     21  C   UNL     1      44.716   4.029   9.057  0.00  0.00    +0.000 A 
ATOM     22  N   UNL     1      43.734   4.766   9.684  0.00  0.00    +0.000 N 
ATOM     23  N   UNL     1      45.545   4.736   8.264  0.00  0.00    +0.000 NA
ATOM     24  C   UNL     1      46.476   4.056   7.541  0.00  0.00    +0.000 A 
ATOM     25  H   UNL     1      43.937   5.757   9.549  0.00  0.00    +0.000 HD
BRANCH  18  27
ATOM     26  N   UNL     1      48.099   2.769   5.647  0.00  0.00    +0.000 N 
ATOM     27  C   UNL     1      47.619   2.033   6.697  0.00  0.00    +0.000 C 
ATOM     28  O   UNL     1      48.037   0.905   6.927  0.00  0.00    +0.000 OA
ATOM     29  H   UNL     1      48.870   2.363   5.132  0.00  0.00    +0.000 HD
ATOM     30  H   UNL     1      47.975   3.770   5.582  0.00  0.00    +0.000 HD
ENDBRANCH  18  27
ENDBRANCH  17  22
ENDBRANCH   1  17
TORSDOF 6
ENDMDL
MODEL 3
REMARK VINA RESULT:    -8.423      2.272      2.671
REMARK INTER + INTRA:         -12.228
REMARK INTER:                 -11.385
REMARK INTRA:                  -0.843
REMARK UNBOUND:                -0.850
REMARK  Name = 
REMARK  6 active torsions:
REMARK  status: ('A' for Active; 'I' for Inactive)
REMARK    1  A    between atoms: C_2  and  C_4
REMARK    2  A    between atoms: N_8  and  C_9
REMARK    3  A    between atoms: C_9  and  C_10
REMARK    4  A    between atoms: C_10  and  C_13
REMARK    5  A    between atoms: C_17  and  O_18
REMARK    6  A    between atoms: O_18  and  C_19
REMARK                            x       y       z     vdW  Elec       q    Type
REMARK                         _______ _______ _______ _____ _____    ______ ____
ROOT
ATOM      1  C   UNL     1      43.100   5.263  12.124  0.00  0.00    +0.000 C 
ATOM      2  F   UNL     1      41.921   5.880  11.810  0.00  0.00    +0.000 F 
ATOM      3  F   UNL     1      42.907   4.746  13.375  0.00  0.00    +0.000 F 
ENDROOT
BRANCH   1   4
ATOM      4  C   UNL     1      44.260   6.226  12.110  0.00  0.00    +0.000 A 
ATOM      5  C   UNL     1      44.108   7.523  11.639  0.00  0.00    +0.000 A 
ATOM      6  N   UNL     1      45.111   8.428  11.591  0.00  0.00    +0.000 NA
ATOM      7  C   UNL     1      46.318   8.029  12.061  0.00  0.00    +0.000 A 
ATOM      8  C   UNL     1      46.572   6.766  12.576  0.00  0.00    +0.000 A 
ATOM      9  C   UNL     1      45.528   5.847  12.577  0.00  0.00    +0.000 A 
BRANCH   8  10
ATOM     10  O   UNL     1      47.845   6.496  12.999  0.00  0.00    +0.000 OA
BRANCH  10  11
ATOM     11  C   UNL     1      48.573   7.549  13.682  0.00  0.00    +0.000 C 
ATOM     12  C   UNL     1      50.102   7.511  13.447  0.00  0.00    +0.000 C 
ATOM     13  C   UNL     1      50.320   7.809  14.932  0.00  0.00    +0.000 C 
ATOM     14  C   UNL     1      48.870   7.374  15.204  0.00  0.00    +0.000 C 
ATOM     15  F   UNL     1      48.173   8.193  16.027  0.00  0.00    +0.000 F 
ATOM     16  F   UNL     1      48.721   6.122  15.694  0.00  0.00    +0.000 F 
ENDBRANCH  10  11
ENDBRANCH   8  10
ENDBRANCH   1   4
BRANCH   1  17
ATOM     17  C   UNL     1      43.312   4.092  11.126  0.00  0.00    +0.000 C 
BRANCH  17  22
ATOM     18  C   UNL     1      46.619   2.720   7.468  0.00  0.00    +0.000 A 
ATOM     19  C   UNL     1      45.854   1.921   8.312  0.00  0.00    +0.000 A 
ATOM     20  C   UNL     1      44.891   2.520   9.126  0.00  0.00    +0.000 A 
ATOM     21  C   UNL     1      44.720   3.900   9.096  0.00  0.00    +0.000 A 
ATOM     22  N   UNL     1      43.728   4.554   9.796  0.00  0.00    +0.000 N 
ATOM     23  N   UNL     1      45.480   4.685   8.308  0.00  0.00    +0.000 NA
ATOM     24  C   UNL     1      46.413   4.089   7.517  0.00  0.00    +0.000 A 
ATOM     25  H   UNL     1      43.876   5.559   9.701  0.00  0.00    +0.000 HD
BRANCH  18  27
ATOM     26  N   UNL     1      47.887   2.900   5.405  0.00  0.00    +0.000 N 
ATOM     27  C   UNL     1      47.621   2.169   6.532  0.00  0.00    +0.000 C 
ATOM     28  O   UNL     1      48.217   1.127   6.770  0.00  0.00    +0.000 OA
ATOM     29  H   UNL     1      48.656   2.575   4.832  0.00  0.00    +0.000 HD
ATOM     30  H   UNL     1      47.614   3.869   5.307  0.00  0.00    +0.000 HD
ENDBRANCH  18  27
ENDBRANCH  17  22
ENDBRANCH   1  17
TORSDOF 6
ENDMDL
MODEL 4
REMARK VINA RESULT:    -8.394      3.036      4.026
REMARK INTER + INTRA:         -12.188
REMARK INTER:                 -11.548
REMARK INTRA:                  -0.640
REMARK UNBOUND:                -0.850
REMARK  Name = 
REMARK  6 active torsions:
REMARK  status: ('A' for Active; 'I' for Inactive)
REMARK    1  A    between atoms: C_2  and  C_4
REMARK    2  A    between atoms: N_8  and  C_9
REMARK    3  A    between atoms: C_9  and  C_10
REMARK    4  A    between atoms: C_10  and  C_13
REMARK    5  A    between atoms: C_17  and  O_18
REMARK    6  A    between atoms: O_18  and  C_19
REMARK                            x       y       z     vdW  Elec       q    Type
REMARK                         _______ _______ _______ _____ _____    ______ ____
ROOT
ATOM      1  C   UNL     1      44.504   5.051  12.228  0.00  0.00    +0.000 C 
ATOM      2  F   UNL     1      43.966   4.709  13.437  0.00  0.00    +0.000 F 
ATOM      3  F   UNL     1      45.574   4.215  12.066  0.00  0.00    +0.000 F 
ENDROOT
BRANCH   1   4
ATOM      4  C   UNL     1      44.937   6.495  12.192  0.00  0.00    +0.000 A 
ATOM      5  C   UNL     1      44.208   7.444  11.488  0.00  0.00    +0.000 A 
ATOM      6  N   UNL     1      44.550   8.749  11.410  0.00  0.00    +0.000 NA
ATOM      7  C   UNL     1      45.658   9.133  12.090  0.00  0.00    +0.000 A 
ATOM      8  C   UNL     1      46.443   8.272  12.844  0.00  0.00    +0.000 A 
ATOM      9  C   UNL     1      46.085   6.929  12.873  0.00  0.00    +0.000 A 
BRANCH   8  10
ATOM     10  O   UNL     1      47.546   8.797  13.463  0.00  0.00    +0.000 OA
BRANCH  10  11
ATOM     11  C   UNL     1      48.836   8.199  13.179  0.00  0.00    +0.000 C 
ATOM     12  C   UNL     1      50.029   8.937  13.831  0.00  0.00    +0.000 C 
ATOM     13  C   UNL     1      50.819   8.773  12.529  0.00  0.00    +0.000 C 
ATOM     14  C   UNL     1      49.497   8.491  11.796  0.00  0.00    +0.000 C 
ATOM     15  F   UNL     1      49.532   7.443  10.939  0.00  0.00    +0.000 F 
ATOM     16  F   UNL     1      48.982   9.533  11.104  0.00  0.00    +0.000 F 
ENDBRANCH  10  11
ENDBRANCH   8  10
ENDBRANCH   1   4
BRANCH   1  17
ATOM     17  C   UNL     1      43.454   4.739  11.127  0.00  0.00    +0.000 C 
BRANCH  17  22
ATOM     18  C   UNL     1      46.527   2.500   7.699  0.00  0.00    +0.000 A 
ATOM     19  C   UNL     1      45.626   1.922   8.589  0.00  0.00    +0.000 A 
ATOM     20  C   UNL     1      44.768   2.746   9.319  0.00  0.00    +0.000 A 
ATOM     21  C   UNL     1      44.835   4.127   9.163  0.00  0.00    +0.000 A 
ATOM     22  N   UNL     1      43.961   5.000   9.774  0.00  0.00    +0.000 N 
ATOM     23  N   UNL     1      45.728   4.697   8.331  0.00  0.00    +0.000 NA
ATOM     24  C   UNL     1      46.557   3.882   7.623  0.00  0.00    +0.000 A 
ATOM     25  H   UNL     1      44.279   5.953   9.596  0.00  0.00    +0.000 HD
BRANCH  18  27
ATOM     26  N   UNL     1      48.573   2.322   6.405  0.00  0.00    +0.000 N 
ATOM     27  C   UNL     1      47.432   1.705   6.845  0.00  0.00    +0.000 C 
ATOM     28  O   UNL     1      47.197   0.534   6.574  0.00  0.00    +0.000 OA
ATOM     29  H   UNL     1      49.241   1.734   5.921  0.00  0.00    +0.000 HD
ATOM     30  H   UNL     1      48.921   3.179   6.813  0.00  0.00    +0.000 HD
ENDBRANCH  18  27
ENDBRANCH  17  22
ENDBRANCH   1  17
TORSDOF 6
ENDMDL
MODEL 5
REMARK VINA RESULT:    -8.213      3.461      8.346
REMARK INTER + INTRA:         -11.945
REMARK INTER:                 -11.571
REMARK INTRA:                  -0.374
REMARK UNBOUND:                -0.850
REMARK  Name = 
REMARK  6 active torsions:
REMARK  status: ('A' for Active; 'I' for Inactive)
REMARK    1  A    between atoms: C_2  and  C_4
REMARK    2  A    between atoms: N_8  and  C_9
REMARK    3  A    between atoms: C_9  and  C_10
REMARK    4  A    between atoms: C_10  and  C_13
REMARK    5  A    between atoms: C_17  and  O_18
REMARK    6  A    between atoms: O_18  and  C_19
REMARK                            x       y       z     vdW  Elec       q    Type
REMARK                         _______ _______ _______ _____ _____    ______ ____
ROOT
ATOM      1  C   UNL     1      45.947   6.579  12.290  0.00  0.00    +0.000 C 
ATOM      2  F   UNL     1      45.006   7.015  13.180  0.00  0.00    +0.000 F 
ATOM      3  F   UNL     1      46.544   7.715  11.820  0.00  0.00    +0.000 F 
ENDROOT
BRANCH   1   4
ATOM      4  C   UNL     1      45.332   5.787  11.164  0.00  0.00    +0.000 A 
ATOM      5  C   UNL     1      44.018   5.341  11.235  0.00  0.00    +0.000 A 
ATOM      6  N   UNL     1      43.416   4.619  10.265  0.00  0.00    +0.000 NA
ATOM      7  C   UNL     1      44.148   4.352   9.156  0.00  0.00    +0.000 A 
ATOM      8  C   UNL     1      45.459   4.770   8.972  0.00  0.00    +0.000 A 
ATOM      9  C   UNL     1      46.062   5.479  10.005  0.00  0.00    +0.000 A 
BRANCH   8  10
ATOM     10  O   UNL     1      46.082   4.411   7.808  0.00  0.00    +0.000 OA
BRANCH  10  11
ATOM     11  C   UNL     1      45.913   3.050   7.336  0.00  0.00    +0.000 C 
ATOM     12  C   UNL     1      46.021   1.980   8.449  0.00  0.00    +0.000 C 
ATOM     13  C   UNL     1      46.857   1.110   7.507  0.00  0.00    +0.000 C 
ATOM     14  C   UNL     1      47.124   2.353   6.641  0.00  0.00    +0.000 C 
ATOM     15  F   UNL     1      46.992   2.159   5.308  0.00  0.00    +0.000 F 
ATOM     16  F   UNL     1      48.328   2.942   6.825  0.00  0.00    +0.000 F 
ENDBRANCH  10  11
ENDBRANCH   8  10
ENDBRANCH   1   4
BRANCH   1  17
ATOM     17  C   UNL     1      47.000   5.746  13.070  0.00  0.00    +0.000 C 
BRANCH  17  22
ATOM     18  C   UNL     1      48.520   4.413  17.773  0.00  0.00    +0.000 A 
ATOM     19  C   UNL     1      48.855   5.535  17.021  0.00  0.00    +0.000 A 
ATOM     20  C   UNL     1      48.184   5.773  15.820  0.00  0.00    +0.000 A 
ATOM     21  C   UNL     1      47.208   4.884  15.384  0.00  0.00    +0.000 A 
ATOM     22  N   UNL     1      46.436   5.099  14.262  0.00  0.00    +0.000 N 
ATOM     23  N   UNL     1      46.902   3.777  16.087  0.00  0.00    +0.000 NA
ATOM     24  C   UNL     1      47.561   3.557  17.258  0.00  0.00    +0.000 A 
ATOM     25  H   UNL     1      45.876   4.263  14.090  0.00  0.00    +0.000 HD
BRANCH  18  27
ATOM     26  N   UNL     1      48.414   3.330  19.943  0.00  0.00    +0.000 N 
ATOM     27  C   UNL     1      49.136   4.111  19.081  0.00  0.00    +0.000 C 
ATOM     28  O   UNL     1      50.259   4.506  19.369  0.00  0.00    +0.000 OA
ATOM     29  H   UNL     1      48.892   3.033  20.785  0.00  0.00    +0.000 HD
ATOM     30  H   UNL     1      47.617   2.783  19.645  0.00  0.00    +0.000 HD
ENDBRANCH  18  27
ENDBRANCH  17  22
ENDBRANCH   1  17
TORSDOF 6
ENDMDL
MODEL 6
REMARK VINA RESULT:    -7.266      3.105      4.380
REMARK INTER + INTRA:         -10.665
REMARK INTER:                  -9.459
REMARK INTRA:                  -1.206
REMARK UNBOUND:                -0.850
REMARK  Name = 
REMARK  6 active torsions:
REMARK  status: ('A' for Active; 'I' for Inactive)
REMARK    1  A    between atoms: C_2  and  C_4
REMARK    2  A    between atoms: N_8  and  C_9
REMARK    3  A    between atoms: C_9  and  C_10
REMARK    4  A    between atoms: C_10  and  C_13
REMARK    5  A    between atoms: C_17  and  O_18
REMARK    6  A    between atoms: O_18  and  C_19
REMARK                            x       y       z     vdW  Elec       q    Type
REMARK                         _______ _______ _______ _____ _____    ______ ____
ROOT
ATOM      1  C   UNL     1      47.610   8.760  13.240  0.00  0.00    +0.000 C 
ATOM      2  F   UNL     1      48.139   8.084  12.176  0.00  0.00    +0.000 F 
ATOM      3  F   UNL     1      47.937  10.070  13.026  0.00  0.00    +0.000 F 
ENDROOT
BRANCH   1   4
ATOM      4  C   UNL     1      48.168   8.270  14.552  0.00  0.00    +0.000 A 
ATOM      5  C   UNL     1      48.306   9.127  15.636  0.00  0.00    +0.000 A 
ATOM      6  N   UNL     1      48.809   8.750  16.832  0.00  0.00    +0.000 NA
ATOM      7  C   UNL     1      49.166   7.449  16.964  0.00  0.00    +0.000 A 
ATOM      8  C   UNL     1      49.046   6.505  15.954  0.00  0.00    +0.000 A 
ATOM      9  C   UNL     1      48.560   6.933  14.724  0.00  0.00    +0.000 A 
BRANCH   8  10
ATOM     10  O   UNL     1      49.463   5.230  16.224  0.00  0.00    +0.000 OA
BRANCH  10  11
ATOM     11  C   UNL     1      48.834   4.526  17.325  0.00  0.00    +0.000 C 
ATOM     12  C   UNL     1      49.041   2.992  17.292  0.00  0.00    +0.000 C 
ATOM     13  C   UNL     1      47.572   2.803  17.682  0.00  0.00    +0.000 C 
ATOM     14  C   UNL     1      47.299   4.253  17.246  0.00  0.00    +0.000 C 
ATOM     15  F   UNL     1      46.539   4.973  18.103  0.00  0.00    +0.000 F 
ATOM     16  F   UNL     1      46.737   4.396  16.023  0.00  0.00    +0.000 F 
ENDBRANCH  10  11
ENDBRANCH   8  10
ENDBRANCH   1   4
BRANCH   1  17
ATOM     17  C   UNL     1      46.064   8.615  13.183  0.00  0.00    +0.000 C 
BRANCH  17  22
ATOM     18  C   UNL     1      44.341   4.159  11.344  0.00  0.00    +0.000 A 
ATOM     19  C   UNL     1      44.125   4.744  12.588  0.00  0.00    +0.000 A 
ATOM     20  C   UNL     1      44.562   6.051  12.809  0.00  0.00    +0.000 A 
ATOM     21  C   UNL     1      45.220   6.742  11.797  0.00  0.00    +0.000 A 
ATOM     22  N   UNL     1      45.596   8.064  11.905  0.00  0.00    +0.000 N 
ATOM     23  N   UNL     1      45.465   6.171  10.602  0.00  0.00    +0.000 NA
ATOM     24  C   UNL     1      45.032   4.898  10.398  0.00  0.00    +0.000 A 
ATOM     25  H   UNL     1      46.153   8.309  11.085  0.00  0.00    +0.000 HD
BRANCH  18  27
ATOM     26  N   UNL     1      44.511   2.155   9.984  0.00  0.00    +0.000 N 
ATOM     27  C   UNL     1      43.864   2.804  11.002  0.00  0.00    +0.000 C 
ATOM     28  O   UNL     1      42.958   2.264  11.625  0.00  0.00    +0.000 OA
ATOM     29  H   UNL     1      44.256   1.187   9.837  0.00  0.00    +0.000 HD
ATOM     30  H   UNL     1      45.410   2.456   9.631  0.00  0.00    +0.000 HD
ENDBRANCH  18  27
ENDBRANCH  17  22
ENDBRANCH   1  17
TORSDOF 6
ENDMDL
