MODEL 1
REMARK VINA RESULT:    -7.597      0.000      0.000
REMARK INTER + INTRA:         -12.235
REMARK INTER:                 -11.150
REMARK INTRA:                  -1.085
REMARK UNBOUND:                -1.085
REMARK  Name = 
REMARK  9 active torsions:
REMARK  status: ('A' for Active; 'I' for Inactive)
REMARK    1  A    between atoms: C_2  and  C_22
REMARK    2  A    between atoms: N_3  and  CA_4
REMARK    3  A    between atoms: CA_4  and  C_5
REMARK    4  A    between atoms: CA_4  and  C_7
REMARK    5  A    between atoms: C_5  and  O_6
REMARK    6  A    between atoms: C_10  and  C_11
REMARK    7  A    between atoms: C_11  and  O_12
REMARK    8  A    between atoms: C_11  and  C_13
REMARK    9  A    between atoms: C_13  and  N_14
REMARK                            x       y       z     vdW  Elec       q    Type
REMARK                         _______ _______ _______ _____ _____    ______ ____
ROOT
ATOM      1  CA  UNL     1      46.563   7.495  12.677  0.00  0.00    +0.000 C 
ENDROOT
BRANCH   1   2
ATOM      2  C   UNL     1      45.983   6.383  11.821  0.00  0.00    +0.000 A 
ATOM      3  C   UNL     1      45.211   5.404  12.461  0.00  0.00    +0.000 A 
ATOM      4  C   UNL     1      44.594   4.385  11.734  0.00  0.00    +0.000 A 
ATOM      5  C   UNL     1      44.757   4.338  10.355  0.00  0.00    +0.000 A 
ATOM      6  N   UNL     1      45.506   5.263   9.697  0.00  0.00    +0.000 NA
ATOM      7  C   UNL     1      46.092   6.261  10.439  0.00  0.00    +0.000 A 
BRANCH   5   8
ATOM      8  C   UNL     1      44.117   3.185   9.564  0.00  0.00    +0.000 C 
BRANCH   8   9
ATOM      9  O   UNL     1      44.176   1.967  10.317  0.00  0.00    +0.000 OA
ATOM     10  H   UNL     1      44.453   2.246  11.218  0.00  0.00    +0.000 HD
ENDBRANCH   8   9
BRANCH   8  11
ATOM     11  C   UNL     1      44.780   2.973   8.176  0.00  0.00    +0.000 C 
BRANCH  11  12
ATOM     12  N   UNL     1      46.237   2.760   8.041  0.00  0.00    +0.000 NA
ATOM     13  C   UNL     1      46.931   3.567   7.033  0.00  0.00    +0.000 C 
ATOM     14  C   UNL     1      47.072   2.887   5.664  0.00  0.00    +0.000 C 
ATOM     15  O   UNL     1      47.750   1.634   5.795  0.00  0.00    +0.000 OA
ATOM     16  C   UNL     1      46.994   0.754   6.639  0.00  0.00    +0.000 C 
ATOM     17  C   UNL     1      46.718   1.369   8.026  0.00  0.00    +0.000 C 
ENDBRANCH  11  12
ENDBRANCH   8  11
ENDBRANCH   5   8
ENDBRANCH   1   2
BRANCH   1  20
ATOM     18  O   UNL     1      49.178   6.748  13.339  0.00  0.00    +0.000 OA
ATOM     19  C   UNL     1      48.319   6.661  14.212  0.00  0.00    +0.000 C 
ATOM     20  N   UNL     1      46.998   6.944  13.956  0.00  0.00    +0.000 N 
ATOM     21  H   UNL     1      46.325   6.936  14.715  0.00  0.00    +0.000 HD
BRANCH  19  22
ATOM     22  C   UNL     1      48.659   6.236  15.573  0.00  0.00    +0.000 A 
ATOM     23  C   UNL     1      49.394   7.080  16.395  0.00  0.00    +0.000 A 
ATOM     24  S   UNL     1      49.624   6.474  17.972  0.00  0.00    +0.000 S 
ATOM     25  C   UNL     1      48.704   5.086  17.627  0.00  0.00    +0.000 A 
ATOM     26  N   UNL     1      48.423   4.175  18.596  0.00  0.00    +0.000 NA
ATOM     27  C   UNL     1      47.688   3.189  18.205  0.00  0.00    +0.000 A 
ATOM     28  N   UNL     1      47.238   3.012  16.921  0.00  0.00    +0.000 N 
ATOM     29  C   UNL     1      47.527   3.887  15.900  0.00  0.00    +0.000 A 
ATOM     30  O   UNL     1      47.162   3.676  14.745  0.00  0.00    +0.000 OA
ATOM     31  C   UNL     1      48.294   5.046  16.306  0.00  0.00    +0.000 A 
ATOM     32  H   UNL     1      46.697   2.195  16.677  0.00  0.00    +0.000 HD
ENDBRANCH  19  22
ENDBRANCH   1  20
BRANCH   1  33
ATOM     33  C   UNL     1      45.737   8.786  12.899  0.00  0.00    +0.000 C 
BRANCH  33  34
ATOM     34  O   UNL     1      44.520   8.805  12.155  0.00  0.00    +0.000 OA
ATOM     35  H   UNL     1      44.760   8.765  11.209  0.00  0.00    +0.000 HD
ENDBRANCH  33  34
ENDBRANCH   1  33
TORSDOF 9
ENDMDL
MODEL 2
REMARK VINA RESULT:    -7.405      1.139      1.632
REMARK INTER + INTRA:         -11.954
REMARK INTER:                 -10.717
REMARK INTRA:                  -1.237
REMARK UNBOUND:                -1.085
REMARK  Name = 
REMARK  9 active torsions:
REMARK  status: ('A' for Active; 'I' for Inactive)
REMARK    1  A    between atoms: C_2  and  C_22
REMARK    2  A    between atoms: N_3  and  CA_4
REMARK    3  A    between atoms: CA_4  and  C_5
REMARK    4  A    between atoms: CA_4  and  C_7
REMARK    5  A    between atoms: C_5  and  O_6
REMARK    6  A    between atoms: C_10  and  C_11
REMARK    7  A    between atoms: C_11  and  O_12
REMARK    8  A    between atoms: C_11  and  C_13
REMARK    9  A    between atoms: C_13  and  N_14
REMARK                            x       y       z     vdW  Elec       q    Type
REMARK                         _______ _______ _______ _____ _____    ______ ____
ROOT
ATOM      1  CA  UNL     1      47.108   7.683  13.102  0.00  0.00    +0.000 C 
ENDROOT
BRANCH   1   2
ATOM      2  C   UNL     1      46.263   6.589  12.473  0.00  0.00    +0.000 A 
ATOM      3  C   UNL     1      46.230   6.514  11.074  0.00  0.00    +0.000 A 
ATOM      4  C   UNL     1      45.527   5.500  10.423  0.00  0.00    +0.000 A 
ATOM      5  C   UNL     1      44.843   4.554  11.178  0.00  0.00    +0.000 A 
ATOM      6  N   UNL     1      44.842   4.597  12.538  0.00  0.00    +0.000 NA
ATOM      7  C   UNL     1      45.553   5.602  13.149  0.00  0.00    +0.000 A 
BRANCH   5   8
ATOM      8  C   UNL     1      44.028   3.468  10.457  0.00  0.00    +0.000 C 
BRANCH   8   9
ATOM      9  O   UNL     1      43.061   2.894  11.346  0.00  0.00    +0.000 OA
ATOM     10  H   UNL     1      43.571   2.245  11.880  0.00  0.00    +0.000 HD
ENDBRANCH   8   9
BRANCH   8  11
ATOM     11  C   UNL     1      44.921   2.346   9.862  0.00  0.00    +0.000 C 
BRANCH  11  12
ATOM     12  N   UNL     1      45.037   2.145   8.402  0.00  0.00    +0.000 NA
ATOM     13  C   UNL     1      45.937   1.077   7.952  0.00  0.00    +0.000 C 
ATOM     14  C   UNL     1      47.364   1.544   7.635  0.00  0.00    +0.000 C 
ATOM     15  O   UNL     1      47.344   2.576   6.645  0.00  0.00    +0.000 OA
ATOM     16  C   UNL     1      46.617   3.711   7.134  0.00  0.00    +0.000 C 
ATOM     17  C   UNL     1      45.182   3.345   7.564  0.00  0.00    +0.000 C 
ENDBRANCH  11  12
ENDBRANCH   8  11
ENDBRANCH   5   8
ENDBRANCH   1   2
BRANCH   1  20
ATOM     18  O   UNL     1      49.727   7.013  13.827  0.00  0.00    +0.000 OA
ATOM     19  C   UNL     1      48.869   7.003  14.705  0.00  0.00    +0.000 C 
ATOM     20  N   UNL     1      47.547   7.255  14.426  0.00  0.00    +0.000 N 
ATOM     21  H   UNL     1      46.875   7.314  15.183  0.00  0.00    +0.000 HD
BRANCH  19  22
ATOM     22  C   UNL     1      49.212   6.707  16.099  0.00  0.00    +0.000 A 
ATOM     23  C   UNL     1      49.921   7.639  16.847  0.00  0.00    +0.000 A 
ATOM     24  S   UNL     1      50.157   7.178  18.471  0.00  0.00    +0.000 S 
ATOM     25  C   UNL     1      49.276   5.741  18.245  0.00  0.00    +0.000 A 
ATOM     26  N   UNL     1      49.014   4.911  19.289  0.00  0.00    +0.000 NA
ATOM     27  C   UNL     1      48.308   3.875  18.983  0.00  0.00    +0.000 A 
ATOM     28  N   UNL     1      47.869   3.575  17.718  0.00  0.00    +0.000 N 
ATOM     29  C   UNL     1      48.141   4.366  16.625  0.00  0.00    +0.000 A 
ATOM     30  O   UNL     1      47.789   4.046  15.492  0.00  0.00    +0.000 OA
ATOM     31  C   UNL     1      48.875   5.576  16.931  0.00  0.00    +0.000 A 
ATOM     32  H   UNL     1      47.352   2.726  17.544  0.00  0.00    +0.000 HD
ENDBRANCH  19  22
ENDBRANCH   1  20
BRANCH   1  33
ATOM     33  C   UNL     1      46.552   9.127  13.160  0.00  0.00    +0.000 C 
BRANCH  33  34
ATOM     34  O   UNL     1      45.127   9.180  13.097  0.00  0.00    +0.000 OA
ATOM     35  H   UNL     1      44.787   8.467  13.671  0.00  0.00    +0.000 HD
ENDBRANCH  33  34
ENDBRANCH   1  33
TORSDOF 9
ENDMDL
MODEL 3
REMARK VINA RESULT:    -7.382      2.348      3.175
REMARK INTER + INTRA:         -11.919
REMARK INTER:                 -10.512
REMARK INTRA:                  -1.407
REMARK UNBOUND:                -1.085
REMARK  Name = 
REMARK  9 active torsions:
REMARK  status: ('A' for Active; 'I' for Inactive)
REMARK    1  A    between atoms: C_2  and  C_22
REMARK    2  A    between atoms: N_3  and  CA_4
REMARK    3  A    between atoms: CA_4  and  C_5
REMARK    4  A    between atoms: CA_4  and  C_7
REMARK    5  A    between atoms: C_5  and  O_6
REMARK    6  A    between atoms: C_10  and  C_11
REMARK    7  A    between atoms: C_11  and  O_12
REMARK    8  A    between atoms: C_11  and  C_13
REMARK    9  A    between atoms: C_13  and  N_14
REMARK                            x       y       z     vdW  Elec       q    Type
REMARK                         _______ _______ _______ _____ _____    ______ ____
ROOT
ATOM      1  CA  UNL     1      47.965   6.889  14.011  0.00  0.00    +0.000 C 
ENDROOT
BRANCH   1   2
ATOM      2  C   UNL     1      46.892   6.167  13.213  0.00  0.00    +0.000 A 
ATOM      3  C   UNL     1      46.709   6.546  11.877  0.00  0.00    +0.000 A 
ATOM      4  C   UNL     1      45.786   5.888  11.062  0.00  0.00    +0.000 A 
ATOM      5  C   UNL     1      45.034   4.846  11.590  0.00  0.00    +0.000 A 
ATOM      6  N   UNL     1      45.174   4.454  12.885  0.00  0.00    +0.000 NA
ATOM      7  C   UNL     1      46.099   5.114  13.659  0.00  0.00    +0.000 A 
BRANCH   5   8
ATOM      8  C   UNL     1      43.982   4.157  10.704  0.00  0.00    +0.000 C 
BRANCH   8   9
ATOM      9  O   UNL     1      42.748   4.006  11.417  0.00  0.00    +0.000 OA
ATOM     10  H   UNL     1      42.171   4.720  11.067  0.00  0.00    +0.000 HD
ENDBRANCH   8   9
BRANCH   8  11
ATOM     11  C   UNL     1      44.455   2.774  10.180  0.00  0.00    +0.000 C 
BRANCH  11  12
ATOM     12  N   UNL     1      44.545   2.488   8.732  0.00  0.00    +0.000 NA
ATOM     13  C   UNL     1      45.262   1.269   8.344  0.00  0.00    +0.000 C 
ATOM     14  C   UNL     1      46.748   1.483   8.024  0.00  0.00    +0.000 C 
ATOM     15  O   UNL     1      46.901   2.456   6.987  0.00  0.00    +0.000 OA
ATOM     16  C   UNL     1      46.365   3.717   7.414  0.00  0.00    +0.000 C 
ATOM     17  C   UNL     1      44.887   3.608   7.842  0.00  0.00    +0.000 C 
ENDBRANCH  11  12
ENDBRANCH   8  11
ENDBRANCH   5   8
ENDBRANCH   1   2
BRANCH   1  20
ATOM     18  O   UNL     1      50.145   6.331  15.676  0.00  0.00    +0.000 OA
ATOM     19  C   UNL     1      49.020   6.277  16.166  0.00  0.00    +0.000 C 
ATOM     20  N   UNL     1      47.891   6.472  15.407  0.00  0.00    +0.000 N 
ATOM     21  H   UNL     1      46.982   6.497  15.855  0.00  0.00    +0.000 HD
BRANCH  19  22
ATOM     22  C   UNL     1      48.826   5.988  17.590  0.00  0.00    +0.000 A 
ATOM     23  C   UNL     1      49.192   4.748  18.098  0.00  0.00    +0.000 A 
ATOM     24  S   UNL     1      48.986   4.608  19.784  0.00  0.00    +0.000 S 
ATOM     25  C   UNL     1      48.450   6.218  19.903  0.00  0.00    +0.000 A 
ATOM     26  N   UNL     1      48.189   6.780  21.113  0.00  0.00    +0.000 NA
ATOM     27  C   UNL     1      47.823   8.016  21.059  0.00  0.00    +0.000 A 
ATOM     28  N   UNL     1      47.660   8.733  19.900  0.00  0.00    +0.000 N 
ATOM     29  C   UNL     1      47.876   8.196  18.652  0.00  0.00    +0.000 A 
ATOM     30  O   UNL     1      47.665   8.839  17.626  0.00  0.00    +0.000 OA
ATOM     31  C   UNL     1      48.353   6.829  18.665  0.00  0.00    +0.000 A 
ATOM     32  H   UNL     1      47.334   9.687  19.932  0.00  0.00    +0.000 HD
ENDBRANCH  19  22
ENDBRANCH   1  20
BRANCH   1  33
ATOM     33  C   UNL     1      48.069   8.430  13.913  0.00  0.00    +0.000 C 
BRANCH  33  34
ATOM     34  O   UNL     1      47.143   9.108  14.760  0.00  0.00    +0.000 OA
ATOM     35  H   UNL     1      46.608   8.424  15.207  0.00  0.00    +0.000 HD
ENDBRANCH  33  34
ENDBRANCH   1  33
TORSDOF 9
ENDMDL
MODEL 4
REMARK VINA RESULT:    -7.080      3.986      6.294
REMARK INTER + INTRA:         -11.476
REMARK INTER:                 -10.145
REMARK INTRA:                  -1.331
REMARK UNBOUND:                -1.085
REMARK  Name = 
REMARK  9 active torsions:
REMARK  status: ('A' for Active; 'I' for Inactive)
REMARK    1  A    between atoms: C_2  and  C_22
REMARK    2  A    between atoms: N_3  and  CA_4
REMARK    3  A    between atoms: CA_4  and  C_5
REMARK    4  A    between atoms: CA_4  and  C_7
REMARK    5  A    between atoms: C_5  and  O_6
REMARK    6  A    between atoms: C_10  and  C_11
REMARK    7  A    between atoms: C_11  and  O_12
REMARK    8  A    between atoms: C_11  and  C_13
REMARK    9  A    between atoms: C_13  and  N_14
REMARK                            x       y       z     vdW  Elec       q    Type
REMARK                         _______ _______ _______ _____ _____    ______ ____
ROOT
ATOM      1  CA  UNL     1      48.907   4.254  17.762  0.00  0.00    +0.000 C 
ENDROOT
BRANCH   1   2
ATOM      2  C   UNL     1      48.164   4.564  16.474  0.00  0.00    +0.000 A 
ATOM      3  C   UNL     1      48.475   5.761  15.815  0.00  0.00    +0.000 A 
ATOM      4  C   UNL     1      47.881   6.087  14.595  0.00  0.00    +0.000 A 
ATOM      5  C   UNL     1      46.960   5.211  14.032  0.00  0.00    +0.000 A 
ATOM      6  N   UNL     1      46.624   4.043  14.644  0.00  0.00    +0.000 NA
ATOM      7  C   UNL     1      47.235   3.746  15.838  0.00  0.00    +0.000 A 
BRANCH   5   8
ATOM      8  C   UNL     1      46.270   5.597  12.713  0.00  0.00    +0.000 C 
BRANCH   8   9
ATOM      9  O   UNL     1      47.110   6.467  11.943  0.00  0.00    +0.000 OA
ATOM     10  H   UNL     1      47.131   7.306  12.454  0.00  0.00    +0.000 HD
ENDBRANCH   8   9
BRANCH   8  11
ATOM     11  C   UNL     1      44.888   6.268  12.936  0.00  0.00    +0.000 C 
BRANCH  11  12
ATOM     12  N   UNL     1      43.635   5.622  12.489  0.00  0.00    +0.000 NA
ATOM     13  C   UNL     1      43.288   4.346  13.123  0.00  0.00    +0.000 C 
ATOM     14  C   UNL     1      43.774   3.107  12.358  0.00  0.00    +0.000 C 
ATOM     15  O   UNL     1      43.261   3.111  11.023  0.00  0.00    +0.000 OA
ATOM     16  C   UNL     1      43.737   4.267  10.318  0.00  0.00    +0.000 C 
ATOM     17  C   UNL     1      43.376   5.580  11.041  0.00  0.00    +0.000 C 
ENDBRANCH  11  12
ENDBRANCH   8  11
ENDBRANCH   5   8
ENDBRANCH   1   2
BRANCH   1  20
ATOM     18  O   UNL     1      51.142   4.798  19.358  0.00  0.00    +0.000 OA
ATOM     19  C   UNL     1      51.317   4.156  18.326  0.00  0.00    +0.000 C 
ATOM     20  N   UNL     1      50.288   3.900  17.451  0.00  0.00    +0.000 N 
ATOM     21  H   UNL     1      50.447   3.304  16.647  0.00  0.00    +0.000 HD
BRANCH  19  22
ATOM     22  C   UNL     1      52.641   3.640  17.968  0.00  0.00    +0.000 A 
ATOM     23  C   UNL     1      53.733   4.499  17.948  0.00  0.00    +0.000 A 
ATOM     24  S   UNL     1      55.211   3.723  17.602  0.00  0.00    +0.000 S 
ATOM     25  C   UNL     1      54.451   2.203  17.519  0.00  0.00    +0.000 A 
ATOM     26  N   UNL     1      55.178   1.068  17.343  0.00  0.00    +0.000 NA
ATOM     27  C   UNL     1      54.478  -0.017  17.332  0.00  0.00    +0.000 A 
ATOM     28  N   UNL     1      53.112  -0.066  17.446  0.00  0.00    +0.000 N 
ATOM     29  C   UNL     1      52.332   1.058  17.589  0.00  0.00    +0.000 A 
ATOM     30  O   UNL     1      51.106   0.993  17.628  0.00  0.00    +0.000 OA
ATOM     31  C   UNL     1      53.079   2.296  17.673  0.00  0.00    +0.000 A 
ATOM     32  H   UNL     1      52.626  -0.949  17.391  0.00  0.00    +0.000 HD
ENDBRANCH  19  22
ENDBRANCH   1  20
BRANCH   1  33
ATOM     33  C   UNL     1      48.300   3.235  18.757  0.00  0.00    +0.000 C 
BRANCH  33  34
ATOM     34  O   UNL     1      48.482   3.611  20.122  0.00  0.00    +0.000 OA
ATOM     35  H   UNL     1      47.595   3.661  20.527  0.00  0.00    +0.000 HD
ENDBRANCH  33  34
ENDBRANCH   1  33
TORSDOF 9
ENDMDL
MODEL 5
REMARK VINA RESULT:    -6.711      3.506      7.934
REMARK INTER + INTRA:         -10.934
REMARK INTER:                  -9.778
REMARK INTRA:                  -1.156
REMARK UNBOUND:                -1.085
REMARK  Name = 
REMARK  9 active torsions:
REMARK  status: ('A' for Active; 'I' for Inactive)
REMARK    1  A    between atoms: C_2  and  C_22
REMARK    2  A    between atoms: N_3  and  CA_4
REMARK    3  A    between atoms: CA_4  and  C_5
REMARK    4  A    between atoms: CA_4  and  C_7
REMARK    5  A    between atoms: C_5  and  O_6
REMARK    6  A    between atoms: C_10  and  C_11
REMARK    7  A    between atoms: C_11  and  O_12
REMARK    8  A    between atoms: C_11  and  C_13
REMARK    9  A    between atoms: C_13  and  N_14
REMARK                            x       y       z     vdW  Elec       q    Type
REMARK                         _______ _______ _______ _____ _____    ______ ____
ROOT
ATOM      1  CA  UNL     1      48.417   7.960  12.378  0.00  0.00    +0.000 C 
ENDROOT
BRANCH   1   2
ATOM      2  C   UNL     1      48.987   7.534  13.720  0.00  0.00    +0.000 A 
ATOM      3  C   UNL     1      48.175   6.754  14.554  0.00  0.00    +0.000 A 
ATOM      4  C   UNL     1      48.649   6.272  15.775  0.00  0.00    +0.000 A 
ATOM      5  C   UNL     1      49.946   6.579  16.170  0.00  0.00    +0.000 A 
ATOM      6  N   UNL     1      50.763   7.341  15.394  0.00  0.00    +0.000 NA
ATOM      7  C   UNL     1      50.270   7.791  14.192  0.00  0.00    +0.000 A 
BRANCH   5   8
ATOM      8  C   UNL     1      50.448   6.089  17.538  0.00  0.00    +0.000 C 
BRANCH   8   9
ATOM      9  O   UNL     1      51.658   6.767  17.900  0.00  0.00    +0.000 OA
ATOM     10  H   UNL     1      52.042   7.060  17.045  0.00  0.00    +0.000 HD
ENDBRANCH   8   9
BRANCH   8  11
ATOM     11  C   UNL     1      50.678   4.554  17.576  0.00  0.00    +0.000 C 
BRANCH  11  12
ATOM     12  N   UNL     1      49.661   3.635  18.130  0.00  0.00    +0.000 NA
ATOM     13  C   UNL     1      49.197   2.556  17.251  0.00  0.00    +0.000 C 
ATOM     14  C   UNL     1      47.932   2.893  16.449  0.00  0.00    +0.000 C 
ATOM     15  O   UNL     1      46.865   3.258  17.330  0.00  0.00    +0.000 OA
ATOM     16  C   UNL     1      47.226   4.428  18.078  0.00  0.00    +0.000 C 
ATOM     17  C   UNL     1      48.537   4.235  18.866  0.00  0.00    +0.000 C 
ENDBRANCH  11  12
ENDBRANCH   8  11
ENDBRANCH   5   8
ENDBRANCH   1   2
BRANCH   1  20
ATOM     18  O   UNL     1      45.650   7.926  11.954  0.00  0.00    +0.000 OA
ATOM     19  C   UNL     1      46.299   6.954  11.579  0.00  0.00    +0.000 C 
ATOM     20  N   UNL     1      47.651   6.858  11.806  0.00  0.00    +0.000 N 
ATOM     21  H   UNL     1      48.173   6.079  11.418  0.00  0.00    +0.000 HD
BRANCH  19  22
ATOM     22  C   UNL     1      45.658   5.837  10.880  0.00  0.00    +0.000 A 
ATOM     23  C   UNL     1      45.939   5.611   9.538  0.00  0.00    +0.000 A 
ATOM     24  S   UNL     1      45.185   4.221   8.903  0.00  0.00    +0.000 S 
ATOM     25  C   UNL     1      44.497   3.843  10.412  0.00  0.00    +0.000 A 
ATOM     26  N   UNL     1      43.790   2.695  10.590  0.00  0.00    +0.000 NA
ATOM     27  C   UNL     1      43.354   2.518  11.792  0.00  0.00    +0.000 A 
ATOM     28  N   UNL     1      43.531   3.403  12.825  0.00  0.00    +0.000 N 
ATOM     29  C   UNL     1      44.208   4.593  12.683  0.00  0.00    +0.000 A 
ATOM     30  O   UNL     1      44.302   5.397  13.608  0.00  0.00    +0.000 OA
ATOM     31  C   UNL     1      44.773   4.805  11.367  0.00  0.00    +0.000 A 
ATOM     32  H   UNL     1      43.129   3.217  13.732  0.00  0.00    +0.000 HD
ENDBRANCH  19  22
ENDBRANCH   1  20
BRANCH   1  33
ATOM     33  C   UNL     1      49.362   8.570  11.315  0.00  0.00    +0.000 C 
BRANCH  33  34
ATOM     34  O   UNL     1      49.196   9.979  11.162  0.00  0.00    +0.000 OA
ATOM     35  H   UNL     1      50.008  10.403  11.498  0.00  0.00    +0.000 HD
ENDBRANCH  33  34
ENDBRANCH   1  33
TORSDOF 9
ENDMDL
MODEL 6
REMARK VINA RESULT:    -6.475      3.682      6.282
REMARK INTER + INTRA:         -10.589
REMARK INTER:                  -9.158
REMARK INTRA:                  -1.431
REMARK UNBOUND:                -1.085
REMARK  Name = 
REMARK  9 active torsions:
REMARK  status: ('A' for Active; 'I' for Inactive)
REMARK    1  A    between atoms: C_2  and  C_22
REMARK    2  A    between atoms: N_3  and  CA_4
REMARK    3  A    between atoms: CA_4  and  C_5
REMARK    4  A    between atoms: CA_4  and  C_7
REMARK    5  A    between atoms: C_5  and  O_6
REMARK    6  A    between atoms: C_10  and  C_11
REMARK    7  A    between atoms: C_11  and  O_12
REMARK    8  A    between atoms: C_11  and  C_13
REMARK    9  A    between atoms: C_13  and  N_14
REMARK                            x       y       z     vdW  Elec       q    Type
REMARK                         _______ _______ _______ _____ _____    ______ ____
ROOT
ATOM      1  CA  UNL     1      48.867   4.580  17.686  0.00  0.00    +0.000 C 
ENDROOT
BRANCH   1   2
ATOM      2  C   UNL     1      48.109   4.826  16.392  0.00  0.00    +0.000 A 
ATOM      3  C   UNL     1      48.475   5.939  15.625  0.00  0.00    +0.000 A 
ATOM      4  C   UNL     1      47.869   6.197  14.395  0.00  0.00    +0.000 A 
ATOM      5  C   UNL     1      46.881   5.338  13.931  0.00  0.00    +0.000 A 
ATOM      6  N   UNL     1      46.489   4.251  14.649  0.00  0.00    +0.000 NA
ATOM      7  C   UNL     1      47.114   4.018  15.851  0.00  0.00    +0.000 A 
BRANCH   5   8
ATOM      8  C   UNL     1      46.179   5.654  12.599  0.00  0.00    +0.000 C 
BRANCH   8   9
ATOM      9  O   UNL     1      46.992   6.520  11.797  0.00  0.00    +0.000 OA
ATOM     10  H   UNL     1      46.364   7.182  11.433  0.00  0.00    +0.000 HD
ENDBRANCH   8   9
BRANCH   8  11
ATOM     11  C   UNL     1      44.777   6.290  12.798  0.00  0.00    +0.000 C 
BRANCH  11  12
ATOM     12  N   UNL     1      43.548   5.607  12.340  0.00  0.00    +0.000 NA
ATOM     13  C   UNL     1      43.165   4.387  13.058  0.00  0.00    +0.000 C 
ATOM     14  C   UNL     1      43.687   3.089  12.425  0.00  0.00    +0.000 C 
ATOM     15  O   UNL     1      43.245   2.982  11.069  0.00  0.00    +0.000 OA
ATOM     16  C   UNL     1      43.760   4.076  10.298  0.00  0.00    +0.000 C 
ATOM     17  C   UNL     1      43.365   5.445  10.889  0.00  0.00    +0.000 C 
ENDBRANCH  11  12
ENDBRANCH   8  11
ENDBRANCH   5   8
ENDBRANCH   1   2
BRANCH   1  20
ATOM     18  O   UNL     1      50.758   5.699  19.420  0.00  0.00    +0.000 OA
ATOM     19  C   UNL     1      51.164   5.201  18.373  0.00  0.00    +0.000 C 
ATOM     20  N   UNL     1      50.300   4.689  17.435  0.00  0.00    +0.000 N 
ATOM     21  H   UNL     1      50.668   4.217  16.616  0.00  0.00    +0.000 HD
BRANCH  19  22
ATOM     22  C   UNL     1      52.595   5.141  18.066  0.00  0.00    +0.000 A 
ATOM     23  C   UNL     1      53.437   4.363  18.851  0.00  0.00    +0.000 A 
ATOM     24  S   UNL     1      55.051   4.330  18.304  0.00  0.00    +0.000 S 
ATOM     25  C   UNL     1      54.671   5.313  16.968  0.00  0.00    +0.000 A 
ATOM     26  N   UNL     1      55.606   5.597  16.023  0.00  0.00    +0.000 NA
ATOM     27  C   UNL     1      55.173   6.325  15.048  0.00  0.00    +0.000 A 
ATOM     28  N   UNL     1      53.899   6.824  14.952  0.00  0.00    +0.000 N 
ATOM     29  C   UNL     1      52.931   6.593  15.902  0.00  0.00    +0.000 A 
ATOM     30  O   UNL     1      51.815   7.101  15.824  0.00  0.00    +0.000 OA
ATOM     31  C   UNL     1      53.351   5.726  16.983  0.00  0.00    +0.000 A 
ATOM     32  H   UNL     1      53.641   7.419  14.179  0.00  0.00    +0.000 HD
ENDBRANCH  19  22
ENDBRANCH   1  20
BRANCH   1  33
ATOM     33  C   UNL     1      48.558   3.307  18.511  0.00  0.00    +0.000 C 
BRANCH  33  34
ATOM     34  O   UNL     1      48.510   3.551  19.916  0.00  0.00    +0.000 OA
ATOM     35  H   UNL     1      48.339   4.505  20.038  0.00  0.00    +0.000 HD
ENDBRANCH  33  34
ENDBRANCH   1  33
TORSDOF 9
ENDMDL
MODEL 7
REMARK VINA RESULT:    -6.372      2.491      3.880
REMARK INTER + INTRA:         -10.438
REMARK INTER:                  -9.292
REMARK INTRA:                  -1.145
REMARK UNBOUND:                -1.085
REMARK  Name = 
REMARK  9 active torsions:
REMARK  status: ('A' for Active; 'I' for Inactive)
REMARK    1  A    between atoms: C_2  and  C_22
REMARK    2  A    between atoms: N_3  and  CA_4
REMARK    3  A    between atoms: CA_4  and  C_5
REMARK    4  A    between atoms: CA_4  and  C_7
REMARK    5  A    between atoms: C_5  and  O_6
REMARK    6  A    between atoms: C_10  and  C_11
REMARK    7  A    between atoms: C_11  and  O_12
REMARK    8  A    between atoms: C_11  and  C_13
REMARK    9  A    between atoms: C_13  and  N_14
REMARK                            x       y       z     vdW  Elec       q    Type
REMARK                         _______ _______ _______ _____ _____    ______ ____
ROOT
ATOM      1  CA  UNL     1      49.305   8.302  13.614  0.00  0.00    +0.000 C 
ENDROOT
BRANCH   1   2
ATOM      2  C   UNL     1      47.939   8.069  12.991  0.00  0.00    +0.000 A 
ATOM      3  C   UNL     1      47.793   6.969  12.135  0.00  0.00    +0.000 A 
ATOM      4  C   UNL     1      46.555   6.653  11.573  0.00  0.00    +0.000 A 
ATOM      5  C   UNL     1      45.454   7.449  11.863  0.00  0.00    +0.000 A 
ATOM      6  N   UNL     1      45.555   8.532  12.681  0.00  0.00    +0.000 NA
ATOM      7  C   UNL     1      46.786   8.810  13.228  0.00  0.00    +0.000 A 
BRANCH   5   8
ATOM      8  C   UNL     1      44.103   7.128  11.202  0.00  0.00    +0.000 C 
BRANCH   8   9
ATOM      9  O   UNL     1      43.332   8.325  11.031  0.00  0.00    +0.000 OA
ATOM     10  H   UNL     1      43.843   9.018  11.505  0.00  0.00    +0.000 HD
ENDBRANCH   8   9
BRANCH   8  11
ATOM     11  C   UNL     1      43.278   6.085  12.004  0.00  0.00    +0.000 C 
BRANCH  11  12
ATOM     12  N   UNL     1      43.174   4.679  11.560  0.00  0.00    +0.000 NA
ATOM     13  C   UNL     1      43.681   3.657  12.482  0.00  0.00    +0.000 C 
ATOM     14  C   UNL     1      45.140   3.248  12.231  0.00  0.00    +0.000 C 
ATOM     15  O   UNL     1      45.304   2.779  10.890  0.00  0.00    +0.000 OA
ATOM     16  C   UNL     1      44.984   3.826   9.962  0.00  0.00    +0.000 C 
ATOM     17  C   UNL     1      43.559   4.378  10.173  0.00  0.00    +0.000 C 
ENDBRANCH  11  12
ENDBRANCH   8  11
ENDBRANCH   5   8
ENDBRANCH   1   2
BRANCH   1  20
ATOM     18  O   UNL     1      48.456   8.620  16.262  0.00  0.00    +0.000 OA
ATOM     19  C   UNL     1      49.004   7.563  15.958  0.00  0.00    +0.000 C 
ATOM     20  N   UNL     1      49.511   7.349  14.699  0.00  0.00    +0.000 N 
ATOM     21  H   UNL     1      49.889   6.440  14.457  0.00  0.00    +0.000 HD
BRANCH  19  22
ATOM     22  C   UNL     1      49.158   6.480  16.933  0.00  0.00    +0.000 A 
ATOM     23  C   UNL     1      49.929   6.682  18.072  0.00  0.00    +0.000 A 
ATOM     24  S   UNL     1      49.930   5.357  19.144  0.00  0.00    +0.000 S 
ATOM     25  C   UNL     1      48.858   4.487  18.150  0.00  0.00    +0.000 A 
ATOM     26  N   UNL     1      48.367   3.281  18.540  0.00  0.00    +0.000 NA
ATOM     27  C   UNL     1      47.539   2.747  17.706  0.00  0.00    +0.000 A 
ATOM     28  N   UNL     1      47.184   3.295  16.499  0.00  0.00    +0.000 N 
ATOM     29  C   UNL     1      47.683   4.495  16.047  0.00  0.00    +0.000 A 
ATOM     30  O   UNL     1      47.398   4.936  14.936  0.00  0.00    +0.000 OA
ATOM     31  C   UNL     1      48.567   5.164  16.979  0.00  0.00    +0.000 A 
ATOM     32  H   UNL     1      46.558   2.803  15.879  0.00  0.00    +0.000 HD
ENDBRANCH  19  22
ENDBRANCH   1  20
BRANCH   1  33
ATOM     33  C   UNL     1      49.694   9.730  14.069  0.00  0.00    +0.000 C 
BRANCH  33  34
ATOM     34  O   UNL     1      50.998   9.797  14.643  0.00  0.00    +0.000 OA
ATOM     35  H   UNL     1      51.459  10.550  14.225  0.00  0.00    +0.000 HD
ENDBRANCH  33  34
ENDBRANCH   1  33
TORSDOF 9
ENDMDL
MODEL 8
REMARK VINA RESULT:    -6.335      4.236      5.688
REMARK INTER + INTRA:         -10.383
REMARK INTER:                  -8.943
REMARK INTRA:                  -1.440
REMARK UNBOUND:                -1.085
REMARK  Name = 
REMARK  9 active torsions:
REMARK  status: ('A' for Active; 'I' for Inactive)
REMARK    1  A    between atoms: C_2  and  C_22
REMARK    2  A    between atoms: N_3  and  CA_4
REMARK    3  A    between atoms: CA_4  and  C_5
REMARK    4  A    between atoms: CA_4  and  C_7
REMARK    5  A    between atoms: C_5  and  O_6
REMARK    6  A    between atoms: C_10  and  C_11
REMARK    7  A    between atoms: C_11  and  O_12
REMARK    8  A    between atoms: C_11  and  C_13
REMARK    9  A    between atoms: C_13  and  N_14
REMARK                            x       y       z     vdW  Elec       q    Type
REMARK                         _______ _______ _______ _____ _____    ______ ____
ROOT
ATOM      1  CA  UNL     1      48.904   7.312  13.799  0.00  0.00    +0.000 C 
ENDROOT
BRANCH   1   2
ATOM      2  C   UNL     1      47.758   6.484  13.245  0.00  0.00    +0.000 A 
ATOM      3  C   UNL     1      47.242   5.462  14.054  0.00  0.00    +0.000 A 
ATOM      4  C   UNL     1      46.150   4.698  13.641  0.00  0.00    +0.000 A 
ATOM      5  C   UNL     1      45.572   4.952  12.403  0.00  0.00    +0.000 A 
ATOM      6  N   UNL     1      46.048   5.928  11.583  0.00  0.00    +0.000 NA
ATOM      7  C   UNL     1      47.117   6.670  12.024  0.00  0.00    +0.000 A 
BRANCH   5   8
ATOM      8  C   UNL     1      44.401   4.074  11.929  0.00  0.00    +0.000 C 
BRANCH   8   9
ATOM      9  O   UNL     1      43.682   3.548  13.052  0.00  0.00    +0.000 OA
ATOM     10  H   UNL     1      42.768   3.891  12.943  0.00  0.00    +0.000 HD
ENDBRANCH   8   9
BRANCH   8  11
ATOM     11  C   UNL     1      44.860   2.910  11.011  0.00  0.00    +0.000 C 
BRANCH  11  12
ATOM     12  N   UNL     1      44.487   2.862   9.581  0.00  0.00    +0.000 NA
ATOM     13  C   UNL     1      44.901   1.672   8.830  0.00  0.00    +0.000 C 
ATOM     14  C   UNL     1      46.244   1.819   8.101  0.00  0.00    +0.000 C 
ATOM     15  O   UNL     1      46.209   2.936   7.209  0.00  0.00    +0.000 OA
ATOM     16  C   UNL     1      45.984   4.146   7.946  0.00  0.00    +0.000 C 
ATOM     17  C   UNL     1      44.693   4.085   8.788  0.00  0.00    +0.000 C 
ENDBRANCH  11  12
ENDBRANCH   8  11
ENDBRANCH   5   8
ENDBRANCH   1   2
BRANCH   1  20
ATOM     18  O   UNL     1      49.750   9.147  11.862  0.00  0.00    +0.000 OA
ATOM     19  C   UNL     1      50.443   8.150  12.048  0.00  0.00    +0.000 C 
ATOM     20  N   UNL     1      50.068   7.166  12.932  0.00  0.00    +0.000 N 
ATOM     21  H   UNL     1      50.697   6.393  13.120  0.00  0.00    +0.000 HD
BRANCH  19  22
ATOM     22  C   UNL     1      51.701   7.954  11.324  0.00  0.00    +0.000 A 
ATOM     23  C   UNL     1      51.679   7.717   9.955  0.00  0.00    +0.000 A 
ATOM     24  S   UNL     1      53.228   7.602   9.253  0.00  0.00    +0.000 S 
ATOM     25  C   UNL     1      53.983   7.917  10.744  0.00  0.00    +0.000 A 
ATOM     26  N   UNL     1      55.333   8.054  10.828  0.00  0.00    +0.000 NA
ATOM     27  C   UNL     1      55.768   8.325  12.013  0.00  0.00    +0.000 A 
ATOM     28  N   UNL     1      54.979   8.435  13.129  0.00  0.00    +0.000 N 
ATOM     29  C   UNL     1      53.613   8.268  13.099  0.00  0.00    +0.000 A 
ATOM     30  O   UNL     1      52.934   8.312  14.122  0.00  0.00    +0.000 OA
ATOM     31  C   UNL     1      53.070   8.029  11.778  0.00  0.00    +0.000 A 
ATOM     32  H   UNL     1      55.392   8.611  14.033  0.00  0.00    +0.000 HD
ENDBRANCH  19  22
ENDBRANCH   1  20
BRANCH   1  33
ATOM     33  C   UNL     1      49.311   7.142  15.282  0.00  0.00    +0.000 C 
BRANCH  33  34
ATOM     34  O   UNL     1      50.655   6.692  15.445  0.00  0.00    +0.000 OA
ATOM     35  H   UNL     1      50.788   5.952  14.822  0.00  0.00    +0.000 HD
ENDBRANCH  33  34
ENDBRANCH   1  33
TORSDOF 9
ENDMDL
MODEL 9
REMARK VINA RESULT:    -6.275      3.446      9.294
REMARK INTER + INTRA:         -10.295
REMARK INTER:                  -8.772
REMARK INTRA:                  -1.524
REMARK UNBOUND:                -1.085
REMARK  Name = 
REMARK  9 active torsions:
REMARK  status: ('A' for Active; 'I' for Inactive)
REMARK    1  A    between atoms: C_2  and  C_22
REMARK    2  A    between atoms: N_3  and  CA_4
REMARK    3  A    between atoms: CA_4  and  C_5
REMARK    4  A    between atoms: CA_4  and  C_7
REMARK    5  A    between atoms: C_5  and  O_6
REMARK    6  A    between atoms: C_10  and  C_11
REMARK    7  A    between atoms: C_11  and  O_12
REMARK    8  A    between atoms: C_11  and  C_13
REMARK    9  A    between atoms: C_13  and  N_14
REMARK                            x       y       z     vdW  Elec       q    Type
REMARK                         _______ _______ _______ _____ _____    ______ ____
ROOT
ATOM      1  CA  UNL     1      48.193   4.549  16.280  0.00  0.00    +0.000 C 
ENDROOT
BRANCH   1   2
ATOM      2  C   UNL     1      48.551   5.675  17.234  0.00  0.00    +0.000 A 
ATOM      3  C   UNL     1      49.855   6.184  17.181  0.00  0.00    +0.000 A 
ATOM      4  C   UNL     1      50.243   7.258  17.982  0.00  0.00    +0.000 A 
ATOM      5  C   UNL     1      49.320   7.825  18.852  0.00  0.00    +0.000 A 
ATOM      6  N   UNL     1      48.046   7.354  18.942  0.00  0.00    +0.000 NA
ATOM      7  C   UNL     1      47.692   6.302  18.132  0.00  0.00    +0.000 A 
BRANCH   5   8
ATOM      8  C   UNL     1      49.764   8.976  19.771  0.00  0.00    +0.000 C 
BRANCH   8   9
ATOM      9  O   UNL     1      49.780   8.548  21.139  0.00  0.00    +0.000 OA
ATOM     10  H   UNL     1      50.734   8.495  21.370  0.00  0.00    +0.000 HD
ENDBRANCH   8   9
BRANCH   8  11
ATOM     11  C   UNL     1      48.868  10.235  19.628  0.00  0.00    +0.000 C 
BRANCH  11  12
ATOM     12  N   UNL     1      49.112  11.240  18.572  0.00  0.00    +0.000 NA
ATOM     13  C   UNL     1      48.241  11.182  17.392  0.00  0.00    +0.000 C 
ATOM     14  C   UNL     1      48.806  10.354  16.229  0.00  0.00    +0.000 C 
ATOM     15  O   UNL     1      50.084  10.857  15.832  0.00  0.00    +0.000 OA
ATOM     16  C   UNL     1      51.011  10.756  16.923  0.00  0.00    +0.000 C 
ATOM     17  C   UNL     1      50.509  11.488  18.185  0.00  0.00    +0.000 C 
ENDBRANCH  11  12
ENDBRANCH   8  11
ENDBRANCH   5   8
ENDBRANCH   1   2
BRANCH   1  20
ATOM     18  O   UNL     1      48.642   5.938  13.891  0.00  0.00    +0.000 OA
ATOM     19  C   UNL     1      47.485   5.634  14.169  0.00  0.00    +0.000 C 
ATOM     20  N   UNL     1      47.166   5.011  15.352  0.00  0.00    +0.000 N 
ATOM     21  H   UNL     1      46.214   4.706  15.519  0.00  0.00    +0.000 HD
BRANCH  19  22
ATOM     22  C   UNL     1      46.381   5.937  13.255  0.00  0.00    +0.000 A 
ATOM     23  C   UNL     1      46.088   7.258  12.940  0.00  0.00    +0.000 A 
ATOM     24  S   UNL     1      44.838   7.431  11.795  0.00  0.00    +0.000 S 
ATOM     25  C   UNL     1      44.678   5.744  11.640  0.00  0.00    +0.000 A 
ATOM     26  N   UNL     1      43.826   5.205  10.729  0.00  0.00    +0.000 NA
ATOM     27  C   UNL     1      43.829   3.914  10.695  0.00  0.00    +0.000 A 
ATOM     28  N   UNL     1      44.582   3.113  11.516  0.00  0.00    +0.000 N 
ATOM     29  C   UNL     1      45.430   3.614  12.477  0.00  0.00    +0.000 A 
ATOM     30  O   UNL     1      46.048   2.877  13.241  0.00  0.00    +0.000 OA
ATOM     31  C   UNL     1      45.510   5.060  12.507  0.00  0.00    +0.000 A 
ATOM     32  H   UNL     1      44.506   2.108  11.459  0.00  0.00    +0.000 HD
ENDBRANCH  19  22
ENDBRANCH   1  20
BRANCH   1  33
ATOM     33  C   UNL     1      47.815   3.162  16.855  0.00  0.00    +0.000 C 
BRANCH  33  34
ATOM     34  O   UNL     1      46.496   3.123  17.397  0.00  0.00    +0.000 OA
ATOM     35  H   UNL     1      46.535   3.539  18.280  0.00  0.00    +0.000 HD
ENDBRANCH  33  34
ENDBRANCH   1  33
TORSDOF 9
ENDMDL
