MODEL 1
REMARK VINA RESULT:    -7.424      0.000      0.000
REMARK INTER + INTRA:          -9.381
REMARK INTER:                  -9.377
REMARK INTRA:                  -0.003
REMARK UNBOUND:                -0.003
REMARK  Name = 
REMARK  5 active torsions:
REMARK  status: ('A' for Active; 'I' for Inactive)
REMARK    1  A    between atoms: N_1  and  C_2
REMARK    2  A    between atoms: C_2  and  C_3
REMARK    3  A    between atoms: N_6  and  C_7
REMARK    4  A    between atoms: C_7  and  N_8
REMARK    5  A    between atoms: C_13  and  C_14
REMARK                            x       y       z     vdW  Elec       q    Type
REMARK                         _______ _______ _______ _____ _____    ______ ____
ROOT
ATOM      1  N   UNL     1      44.045   4.348  10.579  0.00  0.00    +0.000 N 
ATOM      2  C   UNL     1      43.527   3.157  11.008  0.00  0.00    +0.000 A 
ATOM      3  N   UNL     1      44.014   2.143  10.328  0.00  0.00    +0.000 NA
ATOM      4  C   UNL     1      44.887   2.697   9.423  0.00  0.00    +0.000 A 
ATOM      5  C   UNL     1      45.630   2.077   8.420  0.00  0.00    +0.000 A 
ATOM      6  C   UNL     1      46.398   2.929   7.640  0.00  0.00    +0.000 A 
ATOM      7  N   UNL     1      46.506   4.281   7.819  0.00  0.00    +0.000 NA
ATOM      8  C   UNL     1      45.794   4.866   8.807  0.00  0.00    +0.000 A 
ATOM      9  C   UNL     1      44.958   4.077   9.585  0.00  0.00    +0.000 A 
ENDROOT
BRANCH   6  10
ATOM     10  C   UNL     1      47.138   2.365   6.464  0.00  0.00    +0.000 C 
ATOM     11  N   UNL     1      47.093   3.120   5.324  0.00  0.00    +0.000 N 
ATOM     12  O   UNL     1      47.726   1.291   6.498  0.00  0.00    +0.000 OA
ATOM     13  H   UNL     1      46.556   3.982   5.317  0.00  0.00    +0.000 HD
ATOM     14  H   UNL     1      47.510   2.766   4.476  0.00  0.00    +0.000 HD
ENDBRANCH   6  10
BRANCH   1  15
ATOM     15  C   UNL     1      43.548   5.664  10.960  0.00  0.00    +0.000 C 
BRANCH  15  19
ATOM     16  C   UNL     1      46.909   7.175  13.191  0.00  0.00    +0.000 C 
ATOM     17  C   UNL     1      46.262   5.856  13.633  0.00  0.00    +0.000 C 
ATOM     18  C   UNL     1      45.346   5.258  12.559  0.00  0.00    +0.000 C 
ATOM     19  N   UNL     1      44.319   6.204  12.093  0.00  0.00    +0.000 NA
ATOM     20  C   UNL     1      44.902   7.493  11.673  0.00  0.00    +0.000 C 
ATOM     21  C   UNL     1      45.787   8.122  12.749  0.00  0.00    +0.000 C 
BRANCH  16  22
ATOM     22  C   UNL     1      47.975   6.939  12.101  0.00  0.00    +0.000 C 
BRANCH  22  23
ATOM     23  N   UNL     1      49.272   6.603  12.678  0.00  0.00    +0.000 NA
ATOM     24  H   UNL     1      49.771   5.969  12.055  0.00  0.00    +0.000 HD
ATOM     25  H   UNL     1      49.133   6.087  13.548  0.00  0.00    +0.000 HD
ENDBRANCH  22  23
ENDBRANCH  16  22
ENDBRANCH  15  19
ENDBRANCH   1  15
TORSDOF 5
ENDMDL
MODEL 2
REMARK VINA RESULT:    -6.349      1.356      2.006
REMARK INTER + INTRA:          -8.023
REMARK INTER:                  -8.552
REMARK INTRA:                   0.529
REMARK UNBOUND:                -0.003
REMARK  Name = 
REMARK  5 active torsions:
REMARK  status: ('A' for Active; 'I' for Inactive)
REMARK    1  A    between atoms: N_1  and  C_2
REMARK    2  A    between atoms: C_2  and  C_3
REMARK    3  A    between atoms: N_6  and  C_7
REMARK    4  A    between atoms: C_7  and  N_8
REMARK    5  A    between atoms: C_13  and  C_14
REMARK                            x       y       z     vdW  Elec       q    Type
REMARK                         _______ _______ _______ _____ _____    ______ ____
ROOT
ATOM      1  N   UNL     1      44.541   4.734  10.228  0.00  0.00    +0.000 N 
ATOM      2  C   UNL     1      45.179   5.806   9.666  0.00  0.00    +0.000 A 
ATOM      3  N   UNL     1      45.987   5.437   8.697  0.00  0.00    +0.000 NA
ATOM      4  C   UNL     1      45.868   4.071   8.624  0.00  0.00    +0.000 A 
ATOM      5  C   UNL     1      46.548   3.168   7.808  0.00  0.00    +0.000 A 
ATOM      6  C   UNL     1      46.224   1.834   8.003  0.00  0.00    +0.000 A 
ATOM      7  N   UNL     1      45.278   1.371   8.877  0.00  0.00    +0.000 NA
ATOM      8  C   UNL     1      44.614   2.259   9.649  0.00  0.00    +0.000 A 
ATOM      9  C   UNL     1      44.935   3.605   9.546  0.00  0.00    +0.000 A 
ENDROOT
BRANCH   6  10
ATOM     10  C   UNL     1      46.989   0.785   7.253  0.00  0.00    +0.000 C 
ATOM     11  N   UNL     1      46.750  -0.506   7.640  0.00  0.00    +0.000 N 
ATOM     12  O   UNL     1      47.796   1.050   6.370  0.00  0.00    +0.000 OA
ATOM     13  H   UNL     1      46.112  -0.687   8.408  0.00  0.00    +0.000 HD
ATOM     14  H   UNL     1      47.283  -1.256   7.225  0.00  0.00    +0.000 HD
ENDBRANCH   6  10
BRANCH   1  15
ATOM     15  C   UNL     1      43.765   4.772  11.460  0.00  0.00    +0.000 C 
BRANCH  15  19
ATOM     16  C   UNL     1      47.081   6.620  13.496  0.00  0.00    +0.000 C 
ATOM     17  C   UNL     1      46.658   5.203  13.908  0.00  0.00    +0.000 C 
ATOM     18  C   UNL     1      45.737   4.539  12.878  0.00  0.00    +0.000 C 
ATOM     19  N   UNL     1      44.555   5.356  12.557  0.00  0.00    +0.000 NA
ATOM     20  C   UNL     1      44.922   6.733  12.170  0.00  0.00    +0.000 C 
ATOM     21  C   UNL     1      45.808   7.424  13.206  0.00  0.00    +0.000 C 
BRANCH  16  22
ATOM     22  C   UNL     1      48.067   6.586  12.310  0.00  0.00    +0.000 C 
BRANCH  22  23
ATOM     23  N   UNL     1      49.453   6.681  12.757  0.00  0.00    +0.000 NA
ATOM     24  H   UNL     1      49.919   5.786  12.619  0.00  0.00    +0.000 HD
ATOM     25  H   UNL     1      49.473   6.855  13.762  0.00  0.00    +0.000 HD
ENDBRANCH  22  23
ENDBRANCH  16  22
ENDBRANCH  15  19
ENDBRANCH   1  15
TORSDOF 5
ENDMDL
MODEL 3
REMARK VINA RESULT:    -6.144      1.886      2.711
REMARK INTER + INTRA:          -7.764
REMARK INTER:                  -8.361
REMARK INTRA:                   0.597
REMARK UNBOUND:                -0.003
REMARK  Name = 
REMARK  5 active torsions:
REMARK  status: ('A' for Active; 'I' for Inactive)
REMARK    1  A    between atoms: N_1  and  C_2
REMARK    2  A    between atoms: C_2  and  C_3
REMARK    3  A    between atoms: N_6  and  C_7
REMARK    4  A    between atoms: C_7  and  N_8
REMARK    5  A    between atoms: C_13  and  C_14
REMARK                            x       y       z     vdW  Elec       q    Type
REMARK                         _______ _______ _______ _____ _____    ______ ____
ROOT
ATOM      1  N   UNL     1      44.172   2.989   9.777  0.00  0.00    +0.000 N 
ATOM      2  C   UNL     1      43.857   4.283   9.466  0.00  0.00    +0.000 A 
ATOM      3  N   UNL     1      44.535   4.712   8.425  0.00  0.00    +0.000 NA
ATOM      4  C   UNL     1      45.321   3.653   8.042  0.00  0.00    +0.000 A 
ATOM      5  C   UNL     1      46.276   3.583   7.029  0.00  0.00    +0.000 A 
ATOM      6  C   UNL     1      46.933   2.367   6.917  0.00  0.00    +0.000 A 
ATOM      7  N   UNL     1      46.677   1.258   7.677  0.00  0.00    +0.000 NA
ATOM      8  C   UNL     1      45.736   1.335   8.644  0.00  0.00    +0.000 A 
ATOM      9  C   UNL     1      45.084   2.543   8.847  0.00  0.00    +0.000 A 
ENDROOT
BRANCH   6  10
ATOM     10  C   UNL     1      48.058   2.238   5.933  0.00  0.00    +0.000 C 
ATOM     11  N   UNL     1      49.264   2.727   6.353  0.00  0.00    +0.000 N 
ATOM     12  O   UNL     1      47.915   1.755   4.816  0.00  0.00    +0.000 OA
ATOM     13  H   UNL     1      49.336   3.165   7.266  0.00  0.00    +0.000 HD
ATOM     14  H   UNL     1      50.047   2.735   5.715  0.00  0.00    +0.000 HD
ENDBRANCH   6  10
BRANCH   1  15
ATOM     15  C   UNL     1      43.776   2.300  10.998  0.00  0.00    +0.000 C 
BRANCH  15  19
ATOM     16  C   UNL     1      44.769   5.798  13.307  0.00  0.00    +0.000 C 
ATOM     17  C   UNL     1      45.651   4.549  13.440  0.00  0.00    +0.000 C 
ATOM     18  C   UNL     1      45.416   3.536  12.315  0.00  0.00    +0.000 C 
ATOM     19  N   UNL     1      44.001   3.154  12.176  0.00  0.00    +0.000 NA
ATOM     20  C   UNL     1      43.118   4.331  12.060  0.00  0.00    +0.000 C 
ATOM     21  C   UNL     1      43.312   5.333  13.198  0.00  0.00    +0.000 C 
BRANCH  16  22
ATOM     22  C   UNL     1      45.221   6.678  12.123  0.00  0.00    +0.000 C 
BRANCH  22  23
ATOM     23  N   UNL     1      44.319   7.806  11.915  0.00  0.00    +0.000 NA
ATOM     24  H   UNL     1      43.816   7.685  11.037  0.00  0.00    +0.000 HD
ATOM     25  H   UNL     1      44.866   8.661  11.808  0.00  0.00    +0.000 HD
ENDBRANCH  22  23
ENDBRANCH  16  22
ENDBRANCH  15  19
ENDBRANCH   1  15
TORSDOF 5
ENDMDL
MODEL 4
REMARK VINA RESULT:    -5.961      3.848      5.701
REMARK INTER + INTRA:          -7.532
REMARK INTER:                  -7.092
REMARK INTRA:                  -0.440
REMARK UNBOUND:                -0.003
REMARK  Name = 
REMARK  5 active torsions:
REMARK  status: ('A' for Active; 'I' for Inactive)
REMARK    1  A    between atoms: N_1  and  C_2
REMARK    2  A    between atoms: C_2  and  C_3
REMARK    3  A    between atoms: N_6  and  C_7
REMARK    4  A    between atoms: C_7  and  N_8
REMARK    5  A    between atoms: C_13  and  C_14
REMARK                            x       y       z     vdW  Elec       q    Type
REMARK                         _______ _______ _______ _____ _____    ______ ____
ROOT
ATOM      1  N   UNL     1      47.439   6.472  13.754  0.00  0.00    +0.000 N 
ATOM      2  C   UNL     1      47.038   7.604  13.099  0.00  0.00    +0.000 A 
ATOM      3  N   UNL     1      46.081   7.352  12.234  0.00  0.00    +0.000 NA
ATOM      4  C   UNL     1      45.848   6.002  12.333  0.00  0.00    +0.000 A 
ATOM      5  C   UNL     1      44.976   5.200  11.598  0.00  0.00    +0.000 A 
ATOM      6  C   UNL     1      45.002   3.851  11.916  0.00  0.00    +0.000 A 
ATOM      7  N   UNL     1      45.764   3.287  12.903  0.00  0.00    +0.000 NA
ATOM      8  C   UNL     1      46.592   4.078  13.619  0.00  0.00    +0.000 A 
ATOM      9  C   UNL     1      46.658   5.429  13.309  0.00  0.00    +0.000 A 
ENDROOT
BRANCH   6  10
ATOM     10  C   UNL     1      44.183   2.897  11.098  0.00  0.00    +0.000 C 
ATOM     11  N   UNL     1      44.814   2.369  10.005  0.00  0.00    +0.000 N 
ATOM     12  O   UNL     1      43.019   2.620  11.362  0.00  0.00    +0.000 OA
ATOM     13  H   UNL     1      45.763   2.658   9.788  0.00  0.00    +0.000 HD
ATOM     14  H   UNL     1      44.299   1.775   9.372  0.00  0.00    +0.000 HD
ENDBRANCH   6  10
BRANCH   1  15
ATOM     15  C   UNL     1      48.622   6.366  14.597  0.00  0.00    +0.000 C 
BRANCH  15  19
ATOM     16  C   UNL     1      49.045   6.044  18.872  0.00  0.00    +0.000 C 
ATOM     17  C   UNL     1      48.163   5.026  18.138  0.00  0.00    +0.000 C 
ATOM     18  C   UNL     1      48.395   5.026  16.623  0.00  0.00    +0.000 C 
ATOM     19  N   UNL     1      48.248   6.361  16.022  0.00  0.00    +0.000 NA
ATOM     20  C   UNL     1      49.073   7.373  16.712  0.00  0.00    +0.000 C 
ATOM     21  C   UNL     1      48.823   7.414  18.219  0.00  0.00    +0.000 C 
BRANCH  16  22
ATOM     22  C   UNL     1      50.524   5.602  18.878  0.00  0.00    +0.000 C 
BRANCH  22  23
ATOM     23  N   UNL     1      50.670   4.216  19.310  0.00  0.00    +0.000 NA
ATOM     24  H   UNL     1      51.336   3.737  18.704  0.00  0.00    +0.000 HD
ATOM     25  H   UNL     1      49.782   3.728  19.190  0.00  0.00    +0.000 HD
ENDBRANCH  22  23
ENDBRANCH  16  22
ENDBRANCH  15  19
ENDBRANCH   1  15
TORSDOF 5
ENDMDL
MODEL 5
REMARK VINA RESULT:    -5.956      3.025      5.084
REMARK INTER + INTRA:          -7.525
REMARK INTER:                  -7.040
REMARK INTRA:                  -0.485
REMARK UNBOUND:                -0.003
REMARK  Name = 
REMARK  5 active torsions:
REMARK  status: ('A' for Active; 'I' for Inactive)
REMARK    1  A    between atoms: N_1  and  C_2
REMARK    2  A    between atoms: C_2  and  C_3
REMARK    3  A    between atoms: N_6  and  C_7
REMARK    4  A    between atoms: C_7  and  N_8
REMARK    5  A    between atoms: C_13  and  C_14
REMARK                            x       y       z     vdW  Elec       q    Type
REMARK                         _______ _______ _______ _____ _____    ______ ____
ROOT
ATOM      1  N   UNL     1      46.071   7.722  12.789  0.00  0.00    +0.000 N 
ATOM      2  C   UNL     1      45.267   8.534  12.037  0.00  0.00    +0.000 A 
ATOM      3  N   UNL     1      44.375   7.844  11.362  0.00  0.00    +0.000 NA
ATOM      4  C   UNL     1      44.605   6.531  11.692  0.00  0.00    +0.000 A 
ATOM      5  C   UNL     1      43.983   5.379  11.214  0.00  0.00    +0.000 A 
ATOM      6  C   UNL     1      44.475   4.186  11.722  0.00  0.00    +0.000 A 
ATOM      7  N   UNL     1      45.461   4.076  12.664  0.00  0.00    +0.000 NA
ATOM      8  C   UNL     1      46.044   5.202  13.132  0.00  0.00    +0.000 A 
ATOM      9  C   UNL     1      45.638   6.426  12.619  0.00  0.00    +0.000 A 
ENDROOT
BRANCH   6  10
ATOM     10  C   UNL     1      43.946   2.892  11.177  0.00  0.00    +0.000 C 
ATOM     11  N   UNL     1      44.589   2.415  10.068  0.00  0.00    +0.000 N 
ATOM     12  O   UNL     1      42.988   2.305  11.666  0.00  0.00    +0.000 OA
ATOM     13  H   UNL     1      45.348   2.952   9.661  0.00  0.00    +0.000 HD
ATOM     14  H   UNL     1      44.240   1.586   9.609  0.00  0.00    +0.000 HD
ENDBRANCH   6  10
BRANCH   1  15
ATOM     15  C   UNL     1      47.291   8.143  13.464  0.00  0.00    +0.000 C 
BRANCH  15  19
ATOM     16  C   UNL     1      51.177   9.049  11.838  0.00  0.00    +0.000 C 
ATOM     17  C   UNL     1      50.143  10.177  11.958  0.00  0.00    +0.000 C 
ATOM     18  C   UNL     1      48.971   9.811  12.874  0.00  0.00    +0.000 C 
ATOM     19  N   UNL     1      48.314   8.552  12.487  0.00  0.00    +0.000 NA
ATOM     20  C   UNL     1      49.279   7.444  12.347  0.00  0.00    +0.000 C 
ATOM     21  C   UNL     1      50.434   7.779  11.404  0.00  0.00    +0.000 C 
BRANCH  16  22
ATOM     22  C   UNL     1      51.970   8.875  13.150  0.00  0.00    +0.000 C 
BRANCH  22  23
ATOM     23  N   UNL     1      53.008   7.859  13.022  0.00  0.00    +0.000 NA
ATOM     24  H   UNL     1      52.623   6.944  13.253  0.00  0.00    +0.000 HD
ATOM     25  H   UNL     1      53.742   8.035  13.709  0.00  0.00    +0.000 HD
ENDBRANCH  22  23
ENDBRANCH  16  22
ENDBRANCH  15  19
ENDBRANCH   1  15
TORSDOF 5
ENDMDL
MODEL 6
REMARK VINA RESULT:    -5.771      4.792      8.435
REMARK INTER + INTRA:          -7.293
REMARK INTER:                  -6.787
REMARK INTRA:                  -0.506
REMARK UNBOUND:                -0.003
REMARK  Name = 
REMARK  5 active torsions:
REMARK  status: ('A' for Active; 'I' for Inactive)
REMARK    1  A    between atoms: N_1  and  C_2
REMARK    2  A    between atoms: C_2  and  C_3
REMARK    3  A    between atoms: N_6  and  C_7
REMARK    4  A    between atoms: C_7  and  N_8
REMARK    5  A    between atoms: C_13  and  C_14
REMARK                            x       y       z     vdW  Elec       q    Type
REMARK                         _______ _______ _______ _____ _____    ______ ____
ROOT
ATOM      1  N   UNL     1      48.193   6.197  14.414  0.00  0.00    +0.000 N 
ATOM      2  C   UNL     1      48.617   7.495  14.491  0.00  0.00    +0.000 A 
ATOM      3  N   UNL     1      48.865   7.852  15.732  0.00  0.00    +0.000 NA
ATOM      4  C   UNL     1      48.594   6.740  16.492  0.00  0.00    +0.000 A 
ATOM      5  C   UNL     1      48.633   6.586  17.876  0.00  0.00    +0.000 A 
ATOM      6  C   UNL     1      48.263   5.333  18.343  0.00  0.00    +0.000 A 
ATOM      7  N   UNL     1      47.925   4.266  17.557  0.00  0.00    +0.000 NA
ATOM      8  C   UNL     1      47.908   4.424  16.215  0.00  0.00    +0.000 A 
ATOM      9  C   UNL     1      48.210   5.672  15.686  0.00  0.00    +0.000 A 
ENDROOT
BRANCH   6  10
ATOM     10  C   UNL     1      48.163   5.111  19.823  0.00  0.00    +0.000 C 
ATOM     11  N   UNL     1      48.514   3.862  20.256  0.00  0.00    +0.000 N 
ATOM     12  O   UNL     1      47.769   5.972  20.602  0.00  0.00    +0.000 OA
ATOM     13  H   UNL     1      48.789   3.158  19.578  0.00  0.00    +0.000 HD
ATOM     14  H   UNL     1      48.403   3.624  21.230  0.00  0.00    +0.000 HD
ENDBRANCH   6  10
BRANCH   1  15
ATOM     15  C   UNL     1      47.622   5.571  13.229  0.00  0.00    +0.000 C 
BRANCH  15  19
ATOM     16  C   UNL     1      43.589   5.636  11.716  0.00  0.00    +0.000 C 
ATOM     17  C   UNL     1      44.546   6.769  11.320  0.00  0.00    +0.000 C 
ATOM     18  C   UNL     1      46.012   6.433  11.611  0.00  0.00    +0.000 C 
ATOM     19  N   UNL     1      46.241   6.032  13.009  0.00  0.00    +0.000 NA
ATOM     20  C   UNL     1      45.328   4.953  13.433  0.00  0.00    +0.000 C 
ATOM     21  C   UNL     1      43.857   5.290  13.186  0.00  0.00    +0.000 C 
BRANCH  16  22
ATOM     22  C   UNL     1      43.729   4.428  10.767  0.00  0.00    +0.000 C 
BRANCH  22  23
ATOM     23  N   UNL     1      43.004   3.264  11.266  0.00  0.00    +0.000 NA
ATOM     24  H   UNL     1      42.969   2.546  10.543  0.00  0.00    +0.000 HD
ATOM     25  H   UNL     1      42.034   3.522  11.451  0.00  0.00    +0.000 HD
ENDBRANCH  22  23
ENDBRANCH  16  22
ENDBRANCH  15  19
ENDBRANCH   1  15
TORSDOF 5
ENDMDL
MODEL 7
REMARK VINA RESULT:    -5.621      3.051      5.014
REMARK INTER + INTRA:          -7.102
REMARK INTER:                  -6.711
REMARK INTRA:                  -0.391
REMARK UNBOUND:                -0.003
REMARK  Name = 
REMARK  5 active torsions:
REMARK  status: ('A' for Active; 'I' for Inactive)
REMARK    1  A    between atoms: N_1  and  C_2
REMARK    2  A    between atoms: C_2  and  C_3
REMARK    3  A    between atoms: N_6  and  C_7
REMARK    4  A    between atoms: C_7  and  N_8
REMARK    5  A    between atoms: C_13  and  C_14
REMARK                            x       y       z     vdW  Elec       q    Type
REMARK                         _______ _______ _______ _____ _____    ______ ____
ROOT
ATOM      1  N   UNL     1      47.338   6.243  13.672  0.00  0.00    +0.000 N 
ATOM      2  C   UNL     1      47.628   5.412  14.719  0.00  0.00    +0.000 A 
ATOM      3  N   UNL     1      47.071   4.231  14.570  0.00  0.00    +0.000 NA
ATOM      4  C   UNL     1      46.395   4.294  13.376  0.00  0.00    +0.000 A 
ATOM      5  C   UNL     1      45.585   3.337  12.768  0.00  0.00    +0.000 A 
ATOM      6  C   UNL     1      45.009   3.725  11.568  0.00  0.00    +0.000 A 
ATOM      7  N   UNL     1      45.217   4.924  10.943  0.00  0.00    +0.000 NA
ATOM      8  C   UNL     1      46.019   5.836  11.536  0.00  0.00    +0.000 A 
ATOM      9  C   UNL     1      46.579   5.533  12.769  0.00  0.00    +0.000 A 
ENDROOT
BRANCH   6  10
ATOM     10  C   UNL     1      44.030   2.803  10.902  0.00  0.00    +0.000 C 
ATOM     11  N   UNL     1      44.474   2.205   9.755  0.00  0.00    +0.000 N 
ATOM     12  O   UNL     1      42.898   2.611  11.330  0.00  0.00    +0.000 OA
ATOM     13  H   UNL     1      45.400   2.424   9.403  0.00  0.00    +0.000 HD
ATOM     14  H   UNL     1      43.842   1.628   9.219  0.00  0.00    +0.000 HD
ENDBRANCH   6  10
BRANCH   1  15
ATOM     15  C   UNL     1      47.604   7.675  13.639  0.00  0.00    +0.000 C 
BRANCH  15  19
ATOM     16  C   UNL     1      50.991   9.607  11.808  0.00  0.00    +0.000 C 
ATOM     17  C   UNL     1      50.638   8.175  11.383  0.00  0.00    +0.000 C 
ATOM     18  C   UNL     1      49.230   7.759  11.821  0.00  0.00    +0.000 C 
ATOM     19  N   UNL     1      49.004   7.937  13.265  0.00  0.00    +0.000 NA
ATOM     20  C   UNL     1      49.347   9.300  13.716  0.00  0.00    +0.000 C 
ATOM     21  C   UNL     1      50.764   9.715  13.321  0.00  0.00    +0.000 C 
BRANCH  16  22
ATOM     22  C   UNL     1      50.192  10.646  10.994  0.00  0.00    +0.000 C 
BRANCH  22  23
ATOM     23  N   UNL     1      51.028  11.311  10.000  0.00  0.00    +0.000 NA
ATOM     24  H   UNL     1      51.443  12.149  10.407  0.00  0.00    +0.000 HD
ATOM     25  H   UNL     1      50.445  11.634   9.228  0.00  0.00    +0.000 HD
ENDBRANCH  22  23
ENDBRANCH  16  22
ENDBRANCH  15  19
ENDBRANCH   1  15
TORSDOF 5
ENDMDL
MODEL 8
REMARK VINA RESULT:    -5.511      3.109      6.949
REMARK INTER + INTRA:          -6.965
REMARK INTER:                  -6.808
REMARK INTRA:                  -0.156
REMARK UNBOUND:                -0.003
REMARK  Name = 
REMARK  5 active torsions:
REMARK  status: ('A' for Active; 'I' for Inactive)
REMARK    1  A    between atoms: N_1  and  C_2
REMARK    2  A    between atoms: C_2  and  C_3
REMARK    3  A    between atoms: N_6  and  C_7
REMARK    4  A    between atoms: C_7  and  N_8
REMARK    5  A    between atoms: C_13  and  C_14
REMARK                            x       y       z     vdW  Elec       q    Type
REMARK                         _______ _______ _______ _____ _____    ______ ____
ROOT
ATOM      1  N   UNL     1      45.344   5.817  11.799  0.00  0.00    +0.000 N 
ATOM      2  C   UNL     1      44.365   6.702  11.437  0.00  0.00    +0.000 A 
ATOM      3  N   UNL     1      44.603   7.907  11.906  0.00  0.00    +0.000 NA
ATOM      4  C   UNL     1      45.785   7.802  12.598  0.00  0.00    +0.000 A 
ATOM      5  C   UNL     1      46.461   8.767  13.342  0.00  0.00    +0.000 A 
ATOM      6  C   UNL     1      47.624   8.332  13.959  0.00  0.00    +0.000 A 
ATOM      7  N   UNL     1      48.155   7.075  13.847  0.00  0.00    +0.000 NA
ATOM      8  C   UNL     1      47.497   6.154  13.108  0.00  0.00    +0.000 A 
ATOM      9  C   UNL     1      46.295   6.510  12.513  0.00  0.00    +0.000 A 
ENDROOT
BRANCH   6  10
ATOM     10  C   UNL     1      48.354   9.269  14.874  0.00  0.00    +0.000 C 
ATOM     11  N   UNL     1      48.659  10.492  14.342  0.00  0.00    +0.000 N 
ATOM     12  O   UNL     1      48.686   8.965  16.014  0.00  0.00    +0.000 OA
ATOM     13  H   UNL     1      48.411  10.692  13.378  0.00  0.00    +0.000 HD
ATOM     14  H   UNL     1      49.210  11.145  14.879  0.00  0.00    +0.000 HD
ENDBRANCH   6  10
BRANCH   1  15
ATOM     15  C   UNL     1      45.266   4.371  11.640  0.00  0.00    +0.000 C 
BRANCH  15  19
ATOM     16  C   UNL     1      45.411   2.686   7.678  0.00  0.00    +0.000 C 
ATOM     17  C   UNL     1      45.330   4.211   7.830  0.00  0.00    +0.000 C 
ATOM     18  C   UNL     1      45.657   4.681   9.252  0.00  0.00    +0.000 C 
ATOM     19  N   UNL     1      44.835   4.018  10.277  0.00  0.00    +0.000 NA
ATOM     20  C   UNL     1      44.875   2.548  10.153  0.00  0.00    +0.000 C 
ATOM     21  C   UNL     1      44.511   2.060   8.751  0.00  0.00    +0.000 C 
BRANCH  16  22
ATOM     22  C   UNL     1      46.872   2.194   7.741  0.00  0.00    +0.000 C 
BRANCH  22  23
ATOM     23  N   UNL     1      47.747   2.994   6.891  0.00  0.00    +0.000 NA
ATOM     24  H   UNL     1      47.394   2.990   5.935  0.00  0.00    +0.000 HD
ATOM     25  H   UNL     1      48.670   2.559   6.850  0.00  0.00    +0.000 HD
ENDBRANCH  22  23
ENDBRANCH  16  22
ENDBRANCH  15  19
ENDBRANCH   1  15
TORSDOF 5
ENDMDL
MODEL 9
REMARK VINA RESULT:    -5.495      3.723      6.751
REMARK INTER + INTRA:          -6.943
REMARK INTER:                  -6.506
REMARK INTRA:                  -0.438
REMARK UNBOUND:                -0.003
REMARK  Name = 
REMARK  5 active torsions:
REMARK  status: ('A' for Active; 'I' for Inactive)
REMARK    1  A    between atoms: N_1  and  C_2
REMARK    2  A    between atoms: C_2  and  C_3
REMARK    3  A    between atoms: N_6  and  C_7
REMARK    4  A    between atoms: C_7  and  N_8
REMARK    5  A    between atoms: C_13  and  C_14
REMARK                            x       y       z     vdW  Elec       q    Type
REMARK                         _______ _______ _______ _____ _____    ______ ____
ROOT
ATOM      1  N   UNL     1      46.574   8.298  12.331  0.00  0.00    +0.000 N 
ATOM      2  C   UNL     1      46.182   9.593  12.133  0.00  0.00    +0.000 A 
ATOM      3  N   UNL     1      47.196  10.363  11.807  0.00  0.00    +0.000 NA
ATOM      4  C   UNL     1      48.291   9.534  11.788  0.00  0.00    +0.000 A 
ATOM      5  C   UNL     1      49.630   9.846  11.559  0.00  0.00    +0.000 A 
ATOM      6  C   UNL     1      50.510   8.777  11.646  0.00  0.00    +0.000 A 
ATOM      7  N   UNL     1      50.153   7.478  11.884  0.00  0.00    +0.000 NA
ATOM      8  C   UNL     1      48.849   7.187  12.086  0.00  0.00    +0.000 A 
ATOM      9  C   UNL     1      47.924   8.222  12.072  0.00  0.00    +0.000 A 
ENDROOT
BRANCH   6  10
ATOM     10  C   UNL     1      51.982   9.039  11.531  0.00  0.00    +0.000 C 
ATOM     11  N   UNL     1      52.790   7.954  11.736  0.00  0.00    +0.000 N 
ATOM     12  O   UNL     1      52.447  10.148  11.296  0.00  0.00    +0.000 OA
ATOM     13  H   UNL     1      52.373   7.060  11.976  0.00  0.00    +0.000 HD
ATOM     14  H   UNL     1      53.792   8.074  11.742  0.00  0.00    +0.000 HD
ENDBRANCH   6  10
BRANCH   1  15
ATOM     15  C   UNL     1      45.748   7.252  12.920  0.00  0.00    +0.000 C 
BRANCH  15  19
ATOM     16  C   UNL     1      43.355   4.235  10.989  0.00  0.00    +0.000 C 
ATOM     17  C   UNL     1      44.685   4.648  10.345  0.00  0.00    +0.000 C 
ATOM     18  C   UNL     1      45.588   5.432  11.303  0.00  0.00    +0.000 C 
ATOM     19  N   UNL     1      44.917   6.602  11.892  0.00  0.00    +0.000 NA
ATOM     20  C   UNL     1      43.624   6.247  12.510  0.00  0.00    +0.000 C 
ATOM     21  C   UNL     1      42.696   5.500  11.553  0.00  0.00    +0.000 C 
BRANCH  16  22
ATOM     22  C   UNL     1      43.564   3.130  12.046  0.00  0.00    +0.000 C 
BRANCH  22  23
ATOM     23  N   UNL     1      43.006   1.855  11.610  0.00  0.00    +0.000 NA
ATOM     24  H   UNL     1      43.719   1.319  11.117  0.00  0.00    +0.000 HD
ATOM     25  H   UNL     1      42.264   2.024  10.930  0.00  0.00    +0.000 HD
ENDBRANCH  22  23
ENDBRANCH  16  22
ENDBRANCH  15  19
ENDBRANCH   1  15
TORSDOF 5
ENDMDL
