MODEL 1
REMARK VINA RESULT:    -8.359      0.000      0.000
REMARK INTER + INTRA:         -11.906
REMARK INTER:                 -11.047
REMARK INTRA:                  -0.859
REMARK UNBOUND:                -0.859
REMARK  Name = 
REMARK  6 active torsions:
REMARK  status: ('A' for Active; 'I' for Inactive)
REMARK    1  A    between atoms: N_1  and  C_2
REMARK    2  A    between atoms: C_2  and  C_3
REMARK    3  A    between atoms: C_2  and  C_9
REMARK    4  A    between atoms: C_12  and  C_13
REMARK    5  A    between atoms: C_13  and  N_14
REMARK    6  A    between atoms: C_15  and  C_17
REMARK                            x       y       z     vdW  Elec       q    Type
REMARK                         _______ _______ _______ _____ _____    ______ ____
ROOT
ATOM      1  C   UNL     1      45.430   5.171  11.525  0.00  0.00    +0.000 A 
ATOM      2  C   UNL     1      45.886   4.549  12.698  0.00  0.00    +0.000 A 
ATOM      3  C   UNL     1      46.900   5.128  13.472  0.00  0.00    +0.000 A 
ATOM      4  C   UNL     1      47.474   6.350  13.100  0.00  0.00    +0.000 A 
ATOM      5  C   UNL     1      47.010   6.984  11.942  0.00  0.00    +0.000 A 
ATOM      6  C   UNL     1      45.998   6.407  11.168  0.00  0.00    +0.000 A 
ENDROOT
BRANCH   1   7
ATOM      7  C   UNL     1      44.378   4.494  10.652  0.00  0.00    +0.000 C 
BRANCH   7   8
ATOM      8  C   UNL     1      45.000   3.734   9.479  0.00  0.00    +0.000 A 
ATOM      9  C   UNL     1      45.622   4.380   8.396  0.00  0.00    +0.000 A 
ATOM     10  C   UNL     1      46.266   3.646   7.398  0.00  0.00    +0.000 A 
ATOM     11  C   UNL     1      46.296   2.255   7.460  0.00  0.00    +0.000 A 
ATOM     12  C   UNL     1      45.665   1.595   8.511  0.00  0.00    +0.000 A 
ATOM     13  C   UNL     1      45.023   2.328   9.513  0.00  0.00    +0.000 A 
ENDBRANCH   7   8
BRANCH   7  14
ATOM     14  N   UNL     1      43.337   5.444  10.245  0.00  0.00    +0.000 NA
ATOM     15  H   UNL     1      43.716   6.386  10.318  0.00  0.00    +0.000 HD
ATOM     16  H   UNL     1      42.559   5.385  10.894  0.00  0.00    +0.000 HD
ENDBRANCH   7  14
ENDBRANCH   1   7
BRANCH   4  17
ATOM     17  C   UNL     1      48.613   6.943  13.887  0.00  0.00    +0.000 C 
BRANCH  17  18
ATOM     18  N   UNL     1      48.265   7.068  15.282  0.00  0.00    +0.000 N 
ATOM     19  C   UNL     1      49.130   6.674  16.271  0.00  0.00    +0.000 C 
ATOM     20  O   UNL     1      50.248   6.234  16.017  0.00  0.00    +0.000 OA
ATOM     21  H   UNL     1      47.284   7.213  15.502  0.00  0.00    +0.000 HD
BRANCH  19  22
ATOM     22  C   UNL     1      48.683   6.863  17.658  0.00  0.00    +0.000 A 
ATOM     23  C   UNL     1      48.268   8.119  18.079  0.00  0.00    +0.000 A 
ATOM     24  S   UNL     1      47.730   8.158  19.697  0.00  0.00    +0.000 S 
ATOM     25  C   UNL     1      48.077   6.507  19.910  0.00  0.00    +0.000 A 
ATOM     26  N   UNL     1      47.863   5.897  21.107  0.00  0.00    +0.000 NA
ATOM     27  C   UNL     1      48.202   4.652  21.138  0.00  0.00    +0.000 A 
ATOM     28  N   UNL     1      48.729   3.960  20.080  0.00  0.00    +0.000 N 
ATOM     29  C   UNL     1      48.935   4.527  18.845  0.00  0.00    +0.000 A 
ATOM     30  O   UNL     1      49.373   3.868  17.904  0.00  0.00    +0.000 OA
ATOM     31  C   UNL     1      48.582   5.930  18.757  0.00  0.00    +0.000 A 
ATOM     32  H   UNL     1      48.965   2.981  20.165  0.00  0.00    +0.000 HD
ENDBRANCH  19  22
ENDBRANCH  17  18
ENDBRANCH   4  17
TORSDOF 6
ENDMDL
MODEL 2
REMARK VINA RESULT:    -8.337      3.178      4.958
REMARK INTER + INTRA:         -11.877
REMARK INTER:                 -10.599
REMARK INTRA:                  -1.278
REMARK UNBOUND:                -0.859
REMARK  Name = 
REMARK  6 active torsions:
REMARK  status: ('A' for Active; 'I' for Inactive)
REMARK    1  A    between atoms: N_1  and  C_2
REMARK    2  A    between atoms: C_2  and  C_3
REMARK    3  A    between atoms: C_2  and  C_9
REMARK    4  A    between atoms: C_12  and  C_13
REMARK    5  A    between atoms: C_13  and  N_14
REMARK    6  A    between atoms: C_15  and  C_17
REMARK                            x       y       z     vdW  Elec       q    Type
REMARK                         _______ _______ _______ _____ _____    ______ ____
ROOT
ATOM      1  C   UNL     1      45.029   3.874  10.570  0.00  0.00    +0.000 A 
ATOM      2  C   UNL     1      45.165   2.975  11.639  0.00  0.00    +0.000 A 
ATOM      3  C   UNL     1      45.747   3.376  12.848  0.00  0.00    +0.000 A 
ATOM      4  C   UNL     1      46.194   4.692  13.025  0.00  0.00    +0.000 A 
ATOM      5  C   UNL     1      46.042   5.598  11.969  0.00  0.00    +0.000 A 
ATOM      6  C   UNL     1      45.462   5.198  10.761  0.00  0.00    +0.000 A 
ENDROOT
BRANCH   1   7
ATOM      7  C   UNL     1      44.462   3.405   9.234  0.00  0.00    +0.000 C 
BRANCH   7   8
ATOM      8  C   UNL     1      45.535   2.797   8.330  0.00  0.00    +0.000 A 
ATOM      9  C   UNL     1      45.942   1.454   8.427  0.00  0.00    +0.000 A 
ATOM     10  C   UNL     1      46.851   0.913   7.516  0.00  0.00    +0.000 A 
ATOM     11  C   UNL     1      47.374   1.703   6.496  0.00  0.00    +0.000 A 
ATOM     12  C   UNL     1      47.004   3.041   6.396  0.00  0.00    +0.000 A 
ATOM     13  C   UNL     1      46.091   3.584   7.305  0.00  0.00    +0.000 A 
ENDBRANCH   7   8
BRANCH   7  14
ATOM     14  N   UNL     1      43.686   4.467   8.586  0.00  0.00    +0.000 NA
ATOM     15  H   UNL     1      43.028   4.035   7.940  0.00  0.00    +0.000 HD
ATOM     16  H   UNL     1      44.310   5.046   8.031  0.00  0.00    +0.000 HD
ENDBRANCH   7  14
ENDBRANCH   1   7
BRANCH   4  17
ATOM     17  C   UNL     1      46.885   5.113  14.295  0.00  0.00    +0.000 C 
BRANCH  17  18
ATOM     18  N   UNL     1      47.323   6.486  14.211  0.00  0.00    +0.000 N 
ATOM     19  C   UNL     1      48.506   6.893  14.773  0.00  0.00    +0.000 C 
ATOM     20  O   UNL     1      49.261   6.105  15.338  0.00  0.00    +0.000 OA
ATOM     21  H   UNL     1      46.625   7.178  13.954  0.00  0.00    +0.000 HD
BRANCH  19  22
ATOM     22  C   UNL     1      48.864   8.309  14.613  0.00  0.00    +0.000 A 
ATOM     23  C   UNL     1      49.031   9.105  15.738  0.00  0.00    +0.000 A 
ATOM     24  S   UNL     1      49.497  10.707  15.382  0.00  0.00    +0.000 S 
ATOM     25  C   UNL     1      49.445  10.409  13.709  0.00  0.00    +0.000 A 
ATOM     26  N   UNL     1      49.724  11.396  12.815  0.00  0.00    +0.000 NA
ATOM     27  C   UNL     1      49.613  11.041  11.579  0.00  0.00    +0.000 A 
ATOM     28  N   UNL     1      49.256   9.788  11.156  0.00  0.00    +0.000 N 
ATOM     29  C   UNL     1      48.994   8.754  12.022  0.00  0.00    +0.000 A 
ATOM     30  O   UNL     1      48.714   7.630  11.609  0.00  0.00    +0.000 OA
ATOM     31  C   UNL     1      49.092   9.101  13.425  0.00  0.00    +0.000 A 
ATOM     32  H   UNL     1      49.197   9.570  10.171  0.00  0.00    +0.000 HD
ENDBRANCH  19  22
ENDBRANCH  17  18
ENDBRANCH   4  17
TORSDOF 6
ENDMDL
MODEL 3
REMARK VINA RESULT:    -8.310      1.301      1.942
REMARK INTER + INTRA:         -11.841
REMARK INTER:                 -10.808
REMARK INTRA:                  -1.033
REMARK UNBOUND:                -0.859
REMARK  Name = 
REMARK  6 active torsions:
REMARK  status: ('A' for Active; 'I' for Inactive)
REMARK    1  A    between atoms: N_1  and  C_2
REMARK    2  A    between atoms: C_2  and  C_3
REMARK    3  A    between atoms: C_2  and  C_9
REMARK    4  A    between atoms: C_12  and  C_13
REMARK    5  A    between atoms: C_13  and  N_14
REMARK    6  A    between atoms: C_15  and  C_17
REMARK                            x       y       z     vdW  Elec       q    Type
REMARK                         _______ _______ _______ _____ _____    ______ ____
ROOT
ATOM      1  C   UNL     1      45.355   4.948  11.444  0.00  0.00    +0.000 A 
ATOM      2  C   UNL     1      45.745   4.324  12.639  0.00  0.00    +0.000 A 
ATOM      3  C   UNL     1      46.683   4.921  13.491  0.00  0.00    +0.000 A 
ATOM      4  C   UNL     1      47.245   6.165  13.175  0.00  0.00    +0.000 A 
ATOM      5  C   UNL     1      46.845   6.801  11.994  0.00  0.00    +0.000 A 
ATOM      6  C   UNL     1      45.909   6.205  11.143  0.00  0.00    +0.000 A 
ENDROOT
BRANCH   1   7
ATOM      7  C   UNL     1      44.389   4.253  10.490  0.00  0.00    +0.000 C 
BRANCH   7   8
ATOM      8  C   UNL     1      45.110   3.592   9.314  0.00  0.00    +0.000 A 
ATOM      9  C   UNL     1      45.677   4.327   8.258  0.00  0.00    +0.000 A 
ATOM     10  C   UNL     1      46.415   3.691   7.257  0.00  0.00    +0.000 A 
ATOM     11  C   UNL     1      46.595   2.310   7.290  0.00  0.00    +0.000 A 
ATOM     12  C   UNL     1      46.021   1.561   8.314  0.00  0.00    +0.000 A 
ATOM     13  C   UNL     1      45.286   2.196   9.318  0.00  0.00    +0.000 A 
ENDBRANCH   7   8
BRANCH   7  14
ATOM     14  N   UNL     1      43.309   5.155  10.079  0.00  0.00    +0.000 NA
ATOM     15  H   UNL     1      43.726   6.007   9.709  0.00  0.00    +0.000 HD
ATOM     16  H   UNL     1      42.766   5.420  10.895  0.00  0.00    +0.000 HD
ENDBRANCH   7  14
ENDBRANCH   1   7
BRANCH   4  17
ATOM     17  C   UNL     1      48.307   6.781  14.047  0.00  0.00    +0.000 C 
BRANCH  17  18
ATOM     18  N   UNL     1      48.099   6.434  15.433  0.00  0.00    +0.000 N 
ATOM     19  C   UNL     1      49.155   6.190  16.274  0.00  0.00    +0.000 C 
ATOM     20  O   UNL     1      50.320   6.293  15.898  0.00  0.00    +0.000 OA
ATOM     21  H   UNL     1      47.166   6.131  15.698  0.00  0.00    +0.000 HD
BRANCH  19  22
ATOM     22  C   UNL     1      48.830   5.864  17.669  0.00  0.00    +0.000 A 
ATOM     23  C   UNL     1      49.030   4.571  18.135  0.00  0.00    +0.000 A 
ATOM     24  S   UNL     1      48.656   4.371  19.787  0.00  0.00    +0.000 S 
ATOM     25  C   UNL     1      48.167   5.993  19.929  0.00  0.00    +0.000 A 
ATOM     26  N   UNL     1      47.701   6.481  21.111  0.00  0.00    +0.000 NA
ATOM     27  C   UNL     1      47.334   7.719  21.068  0.00  0.00    +0.000 A 
ATOM     28  N   UNL     1      47.396   8.513  19.954  0.00  0.00    +0.000 N 
ATOM     29  C   UNL     1      47.886   8.071  18.749  0.00  0.00    +0.000 A 
ATOM     30  O   UNL     1      47.964   8.821  17.778  0.00  0.00    +0.000 OA
ATOM     31  C   UNL     1      48.302   6.684  18.737  0.00  0.00    +0.000 A 
ATOM     32  H   UNL     1      47.102   9.479  19.989  0.00  0.00    +0.000 HD
ENDBRANCH  19  22
ENDBRANCH  17  18
ENDBRANCH   4  17
TORSDOF 6
ENDMDL
MODEL 4
REMARK VINA RESULT:    -8.239      1.653      2.340
REMARK INTER + INTRA:         -11.748
REMARK INTER:                 -10.926
REMARK INTRA:                  -0.821
REMARK UNBOUND:                -0.859
REMARK  Name = 
REMARK  6 active torsions:
REMARK  status: ('A' for Active; 'I' for Inactive)
REMARK    1  A    between atoms: N_1  and  C_2
REMARK    2  A    between atoms: C_2  and  C_3
REMARK    3  A    between atoms: C_2  and  C_9
REMARK    4  A    between atoms: C_12  and  C_13
REMARK    5  A    between atoms: C_13  and  N_14
REMARK    6  A    between atoms: C_15  and  C_17
REMARK                            x       y       z     vdW  Elec       q    Type
REMARK                         _______ _______ _______ _____ _____    ______ ____
ROOT
ATOM      1  C   UNL     1      45.289   4.790  10.646  0.00  0.00    +0.000 A 
ATOM      2  C   UNL     1      46.019   5.872  10.129  0.00  0.00    +0.000 A 
ATOM      3  C   UNL     1      46.653   6.785  10.981  0.00  0.00    +0.000 A 
ATOM      4  C   UNL     1      46.586   6.630  12.372  0.00  0.00    +0.000 A 
ATOM      5  C   UNL     1      45.876   5.542  12.892  0.00  0.00    +0.000 A 
ATOM      6  C   UNL     1      45.242   4.631  12.042  0.00  0.00    +0.000 A 
ENDROOT
BRANCH   1   7
ATOM      7  C   UNL     1      44.541   3.846   9.709  0.00  0.00    +0.000 C 
BRANCH   7   8
ATOM      8  C   UNL     1      45.483   3.113   8.753  0.00  0.00    +0.000 A 
ATOM      9  C   UNL     1      45.694   1.723   8.809  0.00  0.00    +0.000 A 
ATOM     10  C   UNL     1      46.482   1.079   7.853  0.00  0.00    +0.000 A 
ATOM     11  C   UNL     1      47.078   1.810   6.829  0.00  0.00    +0.000 A 
ATOM     12  C   UNL     1      46.903   3.190   6.770  0.00  0.00    +0.000 A 
ATOM     13  C   UNL     1      46.111   3.836   7.723  0.00  0.00    +0.000 A 
ENDBRANCH   7   8
BRANCH   7  14
ATOM     14  N   UNL     1      43.441   4.537   9.028  0.00  0.00    +0.000 NA
ATOM     15  H   UNL     1      42.921   5.072   9.721  0.00  0.00    +0.000 HD
ATOM     16  H   UNL     1      42.802   3.849   8.642  0.00  0.00    +0.000 HD
ENDBRANCH   7  14
ENDBRANCH   1   7
BRANCH   4  17
ATOM     17  C   UNL     1      47.204   7.646  13.297  0.00  0.00    +0.000 C 
BRANCH  17  18
ATOM     18  N   UNL     1      47.504   7.058  14.580  0.00  0.00    +0.000 N 
ATOM     19  C   UNL     1      48.790   6.737  14.935  0.00  0.00    +0.000 C 
ATOM     20  O   UNL     1      49.743   6.969  14.196  0.00  0.00    +0.000 OA
ATOM     21  H   UNL     1      46.727   6.660  15.099  0.00  0.00    +0.000 HD
BRANCH  19  22
ATOM     22  C   UNL     1      48.985   6.161  16.272  0.00  0.00    +0.000 A 
ATOM     23  C   UNL     1      49.745   6.848  17.210  0.00  0.00    +0.000 A 
ATOM     24  S   UNL     1      49.829   6.071  18.726  0.00  0.00    +0.000 S 
ATOM     25  C   UNL     1      48.895   4.764  18.171  0.00  0.00    +0.000 A 
ATOM     26  N   UNL     1      48.607   3.714  18.987  0.00  0.00    +0.000 NA
ATOM     27  C   UNL     1      47.918   2.777  18.426  0.00  0.00    +0.000 A 
ATOM     28  N   UNL     1      47.486   2.797  17.127  0.00  0.00    +0.000 N 
ATOM     29  C   UNL     1      47.728   3.848  16.275  0.00  0.00    +0.000 A 
ATOM     30  O   UNL     1      47.293   3.852  15.126  0.00  0.00    +0.000 OA
ATOM     31  C   UNL     1      48.509   4.924  16.851  0.00  0.00    +0.000 A 
ATOM     32  H   UNL     1      46.941   2.034  16.749  0.00  0.00    +0.000 HD
ENDBRANCH  19  22
ENDBRANCH  17  18
ENDBRANCH   4  17
TORSDOF 6
ENDMDL
MODEL 5
REMARK VINA RESULT:    -7.723      3.505      5.204
REMARK INTER + INTRA:         -11.065
REMARK INTER:                  -9.836
REMARK INTRA:                  -1.229
REMARK UNBOUND:                -0.859
REMARK  Name = 
REMARK  6 active torsions:
REMARK  status: ('A' for Active; 'I' for Inactive)
REMARK    1  A    between atoms: N_1  and  C_2
REMARK    2  A    between atoms: C_2  and  C_3
REMARK    3  A    between atoms: C_2  and  C_9
REMARK    4  A    between atoms: C_12  and  C_13
REMARK    5  A    between atoms: C_13  and  N_14
REMARK    6  A    between atoms: C_15  and  C_17
REMARK                            x       y       z     vdW  Elec       q    Type
REMARK                         _______ _______ _______ _____ _____    ______ ____
ROOT
ATOM      1  C   UNL     1      45.219   4.177  10.603  0.00  0.00    +0.000 A 
ATOM      2  C   UNL     1      45.714   5.490  10.578  0.00  0.00    +0.000 A 
ATOM      3  C   UNL     1      46.316   6.054  11.710  0.00  0.00    +0.000 A 
ATOM      4  C   UNL     1      46.452   5.314  12.891  0.00  0.00    +0.000 A 
ATOM      5  C   UNL     1      45.979   3.997  12.915  0.00  0.00    +0.000 A 
ATOM      6  C   UNL     1      45.376   3.434  11.786  0.00  0.00    +0.000 A 
ENDROOT
BRANCH   1   7
ATOM      7  C   UNL     1      44.499   3.600   9.388  0.00  0.00    +0.000 C 
BRANCH   7   8
ATOM      8  C   UNL     1      45.463   2.932   8.406  0.00  0.00    +0.000 A 
ATOM      9  C   UNL     1      46.132   3.642   7.393  0.00  0.00    +0.000 A 
ATOM     10  C   UNL     1      47.080   3.013   6.584  0.00  0.00    +0.000 A 
ATOM     11  C   UNL     1      47.374   1.665   6.768  0.00  0.00    +0.000 A 
ATOM     12  C   UNL     1      46.706   0.938   7.749  0.00  0.00    +0.000 A 
ATOM     13  C   UNL     1      45.759   1.566   8.562  0.00  0.00    +0.000 A 
ENDBRANCH   7   8
BRANCH   7  14
ATOM     14  N   UNL     1      43.631   4.603   8.762  0.00  0.00    +0.000 NA
ATOM     15  H   UNL     1      43.327   5.257   9.480  0.00  0.00    +0.000 HD
ATOM     16  H   UNL     1      42.798   4.146   8.403  0.00  0.00    +0.000 HD
ENDBRANCH   7  14
ENDBRANCH   1   7
BRANCH   4  17
ATOM     17  C   UNL     1      47.033   5.935  14.134  0.00  0.00    +0.000 C 
BRANCH  17  18
ATOM     18  N   UNL     1      48.375   6.410  13.892  0.00  0.00    +0.000 N 
ATOM     19  C   UNL     1      48.931   7.401  14.661  0.00  0.00    +0.000 C 
ATOM     20  O   UNL     1      48.329   7.900  15.609  0.00  0.00    +0.000 OA
ATOM     21  H   UNL     1      48.793   6.176  12.997  0.00  0.00    +0.000 HD
BRANCH  19  22
ATOM     22  C   UNL     1      50.309   7.796  14.341  0.00  0.00    +0.000 A 
ATOM     23  C   UNL     1      51.291   7.709  15.319  0.00  0.00    +0.000 A 
ATOM     24  S   UNL     1      52.845   8.152  14.772  0.00  0.00    +0.000 S 
ATOM     25  C   UNL     1      52.254   8.523  13.222  0.00  0.00    +0.000 A 
ATOM     26  N   UNL     1      53.085   8.990  12.251  0.00  0.00    +0.000 NA
ATOM     27  C   UNL     1      52.498   9.263  11.134  0.00  0.00    +0.000 A 
ATOM     28  N   UNL     1      51.158   9.104  10.897  0.00  0.00    +0.000 N 
ATOM     29  C   UNL     1      50.287   8.609  11.838  0.00  0.00    +0.000 A 
ATOM     30  O   UNL     1      49.096   8.442  11.581  0.00  0.00    +0.000 OA
ATOM     31  C   UNL     1      50.892   8.297  13.117  0.00  0.00    +0.000 A 
ATOM     32  H   UNL     1      50.760   9.327   9.996  0.00  0.00    +0.000 HD
ENDBRANCH  19  22
ENDBRANCH  17  18
ENDBRANCH   4  17
TORSDOF 6
ENDMDL
MODEL 6
REMARK VINA RESULT:    -7.436      3.881      9.020
REMARK INTER + INTRA:         -10.686
REMARK INTER:                  -9.652
REMARK INTRA:                  -1.033
REMARK UNBOUND:                -0.859
REMARK  Name = 
REMARK  6 active torsions:
REMARK  status: ('A' for Active; 'I' for Inactive)
REMARK    1  A    between atoms: N_1  and  C_2
REMARK    2  A    between atoms: C_2  and  C_3
REMARK    3  A    between atoms: C_2  and  C_9
REMARK    4  A    between atoms: C_12  and  C_13
REMARK    5  A    between atoms: C_13  and  N_14
REMARK    6  A    between atoms: C_15  and  C_17
REMARK                            x       y       z     vdW  Elec       q    Type
REMARK                         _______ _______ _______ _____ _____    ______ ____
ROOT
ATOM      1  C   UNL     1      51.273   3.756  18.205  0.00  0.00    +0.000 A 
ATOM      2  C   UNL     1      50.863   2.679  17.404  0.00  0.00    +0.000 A 
ATOM      3  C   UNL     1      49.534   2.564  16.976  0.00  0.00    +0.000 A 
ATOM      4  C   UNL     1      48.585   3.533  17.327  0.00  0.00    +0.000 A 
ATOM      5  C   UNL     1      48.993   4.619  18.110  0.00  0.00    +0.000 A 
ATOM      6  C   UNL     1      50.320   4.733  18.537  0.00  0.00    +0.000 A 
ENDROOT
BRANCH   1   7
ATOM      7  C   UNL     1      52.706   3.829  18.725  0.00  0.00    +0.000 C 
BRANCH   7   8
ATOM      8  C   UNL     1      53.657   4.472  17.714  0.00  0.00    +0.000 A 
ATOM      9  C   UNL     1      54.901   3.911  17.375  0.00  0.00    +0.000 A 
ATOM     10  C   UNL     1      55.693   4.476  16.374  0.00  0.00    +0.000 A 
ATOM     11  C   UNL     1      55.260   5.613  15.696  0.00  0.00    +0.000 A 
ATOM     12  C   UNL     1      54.042   6.198  16.033  0.00  0.00    +0.000 A 
ATOM     13  C   UNL     1      53.247   5.632  17.033  0.00  0.00    +0.000 A 
ENDBRANCH   7   8
BRANCH   7  14
ATOM     14  N   UNL     1      53.162   2.521  19.205  0.00  0.00    +0.000 NA
ATOM     15  H   UNL     1      52.483   2.171  19.878  0.00  0.00    +0.000 HD
ATOM     16  H   UNL     1      54.041   2.635  19.700  0.00  0.00    +0.000 HD
ENDBRANCH   7  14
ENDBRANCH   1   7
BRANCH   4  17
ATOM     17  C   UNL     1      47.139   3.381  16.933  0.00  0.00    +0.000 C 
BRANCH  17  18
ATOM     18  N   UNL     1      46.764   4.379  15.960  0.00  0.00    +0.000 N 
ATOM     19  C   UNL     1      46.884   4.143  14.614  0.00  0.00    +0.000 C 
ATOM     20  O   UNL     1      47.279   3.065  14.177  0.00  0.00    +0.000 OA
ATOM     21  H   UNL     1      46.653   5.331  16.295  0.00  0.00    +0.000 HD
BRANCH  19  22
ATOM     22  C   UNL     1      46.456   5.220  13.711  0.00  0.00    +0.000 A 
ATOM     23  C   UNL     1      47.291   6.310  13.499  0.00  0.00    +0.000 A 
ATOM     24  S   UNL     1      46.671   7.442  12.385  0.00  0.00    +0.000 S 
ATOM     25  C   UNL     1      45.242   6.544  12.182  0.00  0.00    +0.000 A 
ATOM     26  N   UNL     1      44.253   6.982  11.355  0.00  0.00    +0.000 NA
ATOM     27  C   UNL     1      43.212   6.219  11.322  0.00  0.00    +0.000 A 
ATOM     28  N   UNL     1      43.072   5.057  12.033  0.00  0.00    +0.000 N 
ATOM     29  C   UNL     1      44.054   4.563  12.857  0.00  0.00    +0.000 A 
ATOM     30  O   UNL     1      43.913   3.496  13.452  0.00  0.00    +0.000 OA
ATOM     31  C   UNL     1      45.244   5.386  12.941  0.00  0.00    +0.000 A 
ATOM     32  H   UNL     1      42.233   4.499  11.955  0.00  0.00    +0.000 HD
ENDBRANCH  19  22
ENDBRANCH  17  18
ENDBRANCH   4  17
TORSDOF 6
ENDMDL
MODEL 7
REMARK VINA RESULT:    -7.309      3.599      8.646
REMARK INTER + INTRA:         -10.518
REMARK INTER:                  -9.273
REMARK INTRA:                  -1.245
REMARK UNBOUND:                -0.859
REMARK  Name = 
REMARK  6 active torsions:
REMARK  status: ('A' for Active; 'I' for Inactive)
REMARK    1  A    between atoms: N_1  and  C_2
REMARK    2  A    between atoms: C_2  and  C_3
REMARK    3  A    between atoms: C_2  and  C_9
REMARK    4  A    between atoms: C_12  and  C_13
REMARK    5  A    between atoms: C_13  and  N_14
REMARK    6  A    between atoms: C_15  and  C_17
REMARK                            x       y       z     vdW  Elec       q    Type
REMARK                         _______ _______ _______ _____ _____    ______ ____
ROOT
ATOM      1  C   UNL     1      49.489   5.394  17.154  0.00  0.00    +0.000 A 
ATOM      2  C   UNL     1      50.270   6.404  16.571  0.00  0.00    +0.000 A 
ATOM      3  C   UNL     1      49.880   7.015  15.372  0.00  0.00    +0.000 A 
ATOM      4  C   UNL     1      48.691   6.640  14.733  0.00  0.00    +0.000 A 
ATOM      5  C   UNL     1      47.898   5.646  15.321  0.00  0.00    +0.000 A 
ATOM      6  C   UNL     1      48.288   5.037  16.518  0.00  0.00    +0.000 A 
ENDROOT
BRANCH   1   7
ATOM      7  C   UNL     1      49.963   4.687  18.420  0.00  0.00    +0.000 C 
BRANCH   7   8
ATOM      8  C   UNL     1      51.013   3.614  18.126  0.00  0.00    +0.000 A 
ATOM      9  C   UNL     1      52.369   3.762  18.470  0.00  0.00    +0.000 A 
ATOM     10  C   UNL     1      53.275   2.717  18.276  0.00  0.00    +0.000 A 
ATOM     11  C   UNL     1      52.845   1.510  17.732  0.00  0.00    +0.000 A 
ATOM     12  C   UNL     1      51.512   1.351  17.363  0.00  0.00    +0.000 A 
ATOM     13  C   UNL     1      50.603   2.394  17.559  0.00  0.00    +0.000 A 
ENDBRANCH   7   8
BRANCH   7  14
ATOM     14  N   UNL     1      48.828   4.192  19.207  0.00  0.00    +0.000 NA
ATOM     15  H   UNL     1      48.016   4.133  18.596  0.00  0.00    +0.000 HD
ATOM     16  H   UNL     1      48.606   4.866  19.933  0.00  0.00    +0.000 HD
ENDBRANCH   7  14
ENDBRANCH   1   7
BRANCH   4  17
ATOM     17  C   UNL     1      48.300   7.238  13.408  0.00  0.00    +0.000 C 
BRANCH  17  18
ATOM     18  N   UNL     1      47.535   6.298  12.624  0.00  0.00    +0.000 N 
ATOM     19  C   UNL     1      46.484   6.707  11.843  0.00  0.00    +0.000 C 
ATOM     20  O   UNL     1      46.172   7.891  11.747  0.00  0.00    +0.000 OA
ATOM     21  H   UNL     1      47.631   5.314  12.861  0.00  0.00    +0.000 HD
BRANCH  19  22
ATOM     22  C   UNL     1      45.787   5.670  11.072  0.00  0.00    +0.000 A 
ATOM     23  C   UNL     1      45.858   5.682   9.685  0.00  0.00    +0.000 A 
ATOM     24  S   UNL     1      45.040   4.382   8.944  0.00  0.00    +0.000 S 
ATOM     25  C   UNL     1      44.519   3.781  10.447  0.00  0.00    +0.000 A 
ATOM     26  N   UNL     1      43.739   2.669  10.522  0.00  0.00    +0.000 NA
ATOM     27  C   UNL     1      43.389   2.344  11.722  0.00  0.00    +0.000 A 
ATOM     28  N   UNL     1      43.753   3.026  12.852  0.00  0.00    +0.000 N 
ATOM     29  C   UNL     1      44.562   4.136  12.827  0.00  0.00    +0.000 A 
ATOM     30  O   UNL     1      44.903   4.703  13.863  0.00  0.00    +0.000 OA
ATOM     31  C   UNL     1      44.976   4.553  11.502  0.00  0.00    +0.000 A 
ATOM     32  H   UNL     1      43.454   2.714  13.766  0.00  0.00    +0.000 HD
ENDBRANCH  19  22
ENDBRANCH  17  18
ENDBRANCH   4  17
TORSDOF 6
ENDMDL
MODEL 8
REMARK VINA RESULT:    -7.219      4.325      9.092
REMARK INTER + INTRA:         -10.400
REMARK INTER:                  -9.904
REMARK INTRA:                  -0.495
REMARK UNBOUND:                -0.859
REMARK  Name = 
REMARK  6 active torsions:
REMARK  status: ('A' for Active; 'I' for Inactive)
REMARK    1  A    between atoms: N_1  and  C_2
REMARK    2  A    between atoms: C_2  and  C_3
REMARK    3  A    between atoms: C_2  and  C_9
REMARK    4  A    between atoms: C_12  and  C_13
REMARK    5  A    between atoms: C_13  and  N_14
REMARK    6  A    between atoms: C_15  and  C_17
REMARK                            x       y       z     vdW  Elec       q    Type
REMARK                         _______ _______ _______ _____ _____    ______ ____
ROOT
ATOM      1  C   UNL     1      51.620   3.288  18.058  0.00  0.00    +0.000 A 
ATOM      2  C   UNL     1      51.060   2.198  17.373  0.00  0.00    +0.000 A 
ATOM      3  C   UNL     1      49.706   2.193  17.013  0.00  0.00    +0.000 A 
ATOM      4  C   UNL     1      48.882   3.284  17.316  0.00  0.00    +0.000 A 
ATOM      5  C   UNL     1      49.440   4.382  17.981  0.00  0.00    +0.000 A 
ATOM      6  C   UNL     1      50.791   4.388  18.341  0.00  0.00    +0.000 A 
ENDROOT
BRANCH   1   7
ATOM      7  C   UNL     1      53.077   3.250  18.509  0.00  0.00    +0.000 C 
BRANCH   7   8
ATOM      8  C   UNL     1      53.883   2.179  17.773  0.00  0.00    +0.000 A 
ATOM      9  C   UNL     1      53.589   0.806  17.865  0.00  0.00    +0.000 A 
ATOM     10  C   UNL     1      54.286  -0.129  17.097  0.00  0.00    +0.000 A 
ATOM     11  C   UNL     1      55.291   0.288  16.228  0.00  0.00    +0.000 A 
ATOM     12  C   UNL     1      55.614   1.640  16.140  0.00  0.00    +0.000 A 
ATOM     13  C   UNL     1      54.916   2.577  16.905  0.00  0.00    +0.000 A 
ENDBRANCH   7   8
BRANCH   7  14
ATOM     14  N   UNL     1      53.177   3.154  19.969  0.00  0.00    +0.000 NA
ATOM     15  H   UNL     1      52.954   2.200  20.244  0.00  0.00    +0.000 HD
ATOM     16  H   UNL     1      52.477   3.757  20.392  0.00  0.00    +0.000 HD
ENDBRANCH   7  14
ENDBRANCH   1   7
BRANCH   4  17
ATOM     17  C   UNL     1      47.410   3.256  16.997  0.00  0.00    +0.000 C 
BRANCH  17  18
ATOM     18  N   UNL     1      47.066   4.303  16.064  0.00  0.00    +0.000 N 
ATOM     19  C   UNL     1      47.091   4.088  14.709  0.00  0.00    +0.000 C 
ATOM     20  O   UNL     1      47.369   2.990  14.233  0.00  0.00    +0.000 OA
ATOM     21  H   UNL     1      47.054   5.254  16.421  0.00  0.00    +0.000 HD
BRANCH  19  22
ATOM     22  C   UNL     1      46.705   5.215  13.851  0.00  0.00    +0.000 A 
ATOM     23  C   UNL     1      47.540   6.321  13.755  0.00  0.00    +0.000 A 
ATOM     24  S   UNL     1      46.975   7.517  12.679  0.00  0.00    +0.000 S 
ATOM     25  C   UNL     1      45.569   6.624  12.338  0.00  0.00    +0.000 A 
ATOM     26  N   UNL     1      44.625   7.106  11.484  0.00  0.00    +0.000 NA
ATOM     27  C   UNL     1      43.594   6.341  11.344  0.00  0.00    +0.000 A 
ATOM     28  N   UNL     1      43.425   5.136  11.973  0.00  0.00    +0.000 N 
ATOM     29  C   UNL     1      44.363   4.598  12.820  0.00  0.00    +0.000 A 
ATOM     30  O   UNL     1      44.198   3.496  13.339  0.00  0.00    +0.000 OA
ATOM     31  C   UNL     1      45.537   5.422  13.024  0.00  0.00    +0.000 A 
ATOM     32  H   UNL     1      42.597   4.579  11.812  0.00  0.00    +0.000 HD
ENDBRANCH  19  22
ENDBRANCH  17  18
ENDBRANCH   4  17
TORSDOF 6
ENDMDL
MODEL 9
REMARK VINA RESULT:    -7.129      3.840      5.286
REMARK INTER + INTRA:         -10.281
REMARK INTER:                  -9.213
REMARK INTRA:                  -1.067
REMARK UNBOUND:                -0.859
REMARK  Name = 
REMARK  6 active torsions:
REMARK  status: ('A' for Active; 'I' for Inactive)
REMARK    1  A    between atoms: N_1  and  C_2
REMARK    2  A    between atoms: C_2  and  C_3
REMARK    3  A    between atoms: C_2  and  C_9
REMARK    4  A    between atoms: C_12  and  C_13
REMARK    5  A    between atoms: C_13  and  N_14
REMARK    6  A    between atoms: C_15  and  C_17
REMARK                            x       y       z     vdW  Elec       q    Type
REMARK                         _______ _______ _______ _____ _____    ______ ____
ROOT
ATOM      1  C   UNL     1      45.457   4.986  11.572  0.00  0.00    +0.000 A 
ATOM      2  C   UNL     1      46.091   6.197  11.252  0.00  0.00    +0.000 A 
ATOM      3  C   UNL     1      47.001   6.789  12.136  0.00  0.00    +0.000 A 
ATOM      4  C   UNL     1      47.313   6.177  13.358  0.00  0.00    +0.000 A 
ATOM      5  C   UNL     1      46.699   4.959  13.673  0.00  0.00    +0.000 A 
ATOM      6  C   UNL     1      45.789   4.368  12.790  0.00  0.00    +0.000 A 
ENDROOT
BRANCH   1   7
ATOM      7  C   UNL     1      44.413   4.391  10.633  0.00  0.00    +0.000 C 
BRANCH   7   8
ATOM      8  C   UNL     1      45.047   3.663   9.447  0.00  0.00    +0.000 A 
ATOM      9  C   UNL     1      45.634   4.340   8.363  0.00  0.00    +0.000 A 
ATOM     10  C   UNL     1      46.292   3.638   7.351  0.00  0.00    +0.000 A 
ATOM     11  C   UNL     1      46.371   2.249   7.401  0.00  0.00    +0.000 A 
ATOM     12  C   UNL     1      45.776   1.557   8.452  0.00  0.00    +0.000 A 
ATOM     13  C   UNL     1      45.120   2.258   9.468  0.00  0.00    +0.000 A 
ENDBRANCH   7   8
BRANCH   7  14
ATOM     14  N   UNL     1      43.421   5.396  10.238  0.00  0.00    +0.000 NA
ATOM     15  H   UNL     1      43.432   6.145  10.927  0.00  0.00    +0.000 HD
ATOM     16  H   UNL     1      42.495   4.981  10.264  0.00  0.00    +0.000 HD
ENDBRANCH   7  14
ENDBRANCH   1   7
BRANCH   4  17
ATOM     17  C   UNL     1      48.235   6.841  14.346  0.00  0.00    +0.000 C 
BRANCH  17  18
ATOM     18  N   UNL     1      49.507   7.148  13.736  0.00  0.00    +0.000 N 
ATOM     19  C   UNL     1      49.827   8.426  13.354  0.00  0.00    +0.000 C 
ATOM     20  O   UNL     1      49.064   9.369  13.547  0.00  0.00    +0.000 OA
ATOM     21  H   UNL     1      50.045   6.366  13.372  0.00  0.00    +0.000 HD
BRANCH  19  22
ATOM     22  C   UNL     1      51.155   8.629  12.761  0.00  0.00    +0.000 A 
ATOM     23  C   UNL     1      51.259   9.043  11.439  0.00  0.00    +0.000 A 
ATOM     24  S   UNL     1      52.866   9.284  10.921  0.00  0.00    +0.000 S 
ATOM     25  C   UNL     1      53.484   8.797  12.428  0.00  0.00    +0.000 A 
ATOM     26  N   UNL     1      54.826   8.753  12.651  0.00  0.00    +0.000 NA
ATOM     27  C   UNL     1      55.156   8.333  13.827  0.00  0.00    +0.000 A 
ATOM     28  N   UNL     1      54.267   7.961  14.801  0.00  0.00    +0.000 N 
ATOM     29  C   UNL     1      52.905   8.017  14.629  0.00  0.00    +0.000 A 
ATOM     30  O   UNL     1      52.134   7.712  15.537  0.00  0.00    +0.000 OA
ATOM     31  C   UNL     1      52.478   8.470  13.321  0.00  0.00    +0.000 A 
ATOM     32  H   UNL     1      54.590   7.650  15.706  0.00  0.00    +0.000 HD
ENDBRANCH  19  22
ENDBRANCH  17  18
ENDBRANCH   4  17
TORSDOF 6
ENDMDL
