MODEL 1
REMARK VINA RESULT:    -6.805      0.000      0.000
REMARK INTER + INTRA:         -10.322
REMARK INTER:                  -9.788
REMARK INTRA:                  -0.534
REMARK UNBOUND:                -0.534
REMARK  Name = 
REMARK  12 active torsions:
REMARK  status: ('A' for Active; 'I' for Inactive)
REMARK    1  A    between atoms: C_1  and  N_2
REMARK    2  A    between atoms: N_2  and  C_3
REMARK    3  A    between atoms: N_2  and  C_4
REMARK    4  A    between atoms: C_4  and  C_5
REMARK    5  A    between atoms: C_5  and  O_6
REMARK    6  A    between atoms: O_6  and  C_7
REMARK    7  A    between atoms: C_10  and  C_11
REMARK    8  A    between atoms: C_11  and  N_12
REMARK    9  A    between atoms: C_16  and  C_17
REMARK   10  A    between atoms: C_17  and  C_18
REMARK   11  A    between atoms: C_17  and  C_19
REMARK   12  A    between atoms: C_17  and  O_20
REMARK                            x       y       z     vdW  Elec       q    Type
REMARK                         _______ _______ _______ _____ _____    ______ ____
ROOT
ATOM      1  C   UNL     1      46.863   5.107  14.116  0.00  0.00    +0.000 C 
ENDROOT
BRANCH   1   2
ATOM      2  N   UNL     1      46.775   4.009  15.084  0.00  0.00    +0.000 N 
ATOM      3  C   UNL     1      47.573   4.228  16.216  0.00  0.00    +0.000 A 
ATOM      4  C   UNL     1      47.556   3.300  17.247  0.00  0.00    +0.000 A 
ATOM      5  C   UNL     1      48.374   3.495  18.365  0.00  0.00    +0.000 A 
ATOM      6  C   UNL     1      49.211   4.615  18.431  0.00  0.00    +0.000 A 
ATOM      7  C   UNL     1      49.126   5.500  17.362  0.00  0.00    +0.000 A 
ATOM      8  N   UNL     1      48.344   5.332  16.279  0.00  0.00    +0.000 NA
ATOM      9  H   UNL     1      47.018   3.115  14.674  0.00  0.00    +0.000 HD
BRANCH   6  10
ATOM     10  C   UNL     1      50.161   4.884  19.581  0.00  0.00    +0.000 C 
ATOM     11  C   UNL     1      50.784   6.284  19.461  0.00  0.00    +0.000 C 
ATOM     12  C   UNL     1      49.446   4.733  20.928  0.00  0.00    +0.000 C 
BRANCH  10  13
ATOM     13  O   UNL     1      51.242   3.945  19.581  0.00  0.00    +0.000 OA
ATOM     14  H   UNL     1      51.877   4.236  20.258  0.00  0.00    +0.000 HD
ENDBRANCH  10  13
ENDBRANCH   6  10
ENDBRANCH   1   2
BRANCH   1  18
ATOM     15  C   UNL     1      44.776   4.157  10.501  0.00  0.00    +0.000 A 
ATOM     16  C   UNL     1      45.304   5.434  10.677  0.00  0.00    +0.000 A 
ATOM     17  C   UNL     1      45.998   5.747  11.844  0.00  0.00    +0.000 A 
ATOM     18  C   UNL     1      46.134   4.774  12.828  0.00  0.00    +0.000 A 
ATOM     19  N   UNL     1      45.617   3.526  12.686  0.00  0.00    +0.000 NA
ATOM     20  C   UNL     1      44.958   3.248  11.535  0.00  0.00    +0.000 A 
BRANCH  15  21
ATOM     21  O   UNL     1      44.093   3.720   9.397  0.00  0.00    +0.000 OA
BRANCH  21  22
ATOM     22  C   UNL     1      44.811   2.774   8.596  0.00  0.00    +0.000 C 
BRANCH  22  23
ATOM     23  C   UNL     1      45.715   3.494   7.591  0.00  0.00    +0.000 C 
BRANCH  23  25
ATOM     24  C   UNL     1      46.748   1.323   7.669  0.00  0.00    +0.000 C 
ATOM     25  N   UNL     1      46.895   2.699   7.187  0.00  0.00    +0.000 NA
ATOM     26  C   UNL     1      47.099   2.691   5.737  0.00  0.00    +0.000 C 
ENDBRANCH  23  25
ENDBRANCH  22  23
ENDBRANCH  21  22
ENDBRANCH  15  21
ENDBRANCH   1  18
TORSDOF 8
ENDMDL
MODEL 2
REMARK VINA RESULT:    -6.511      2.828      9.052
REMARK INTER + INTRA:          -9.899
REMARK INTER:                  -9.531
REMARK INTRA:                  -0.368
REMARK UNBOUND:                -0.534
REMARK  Name = 
REMARK  12 active torsions:
REMARK  status: ('A' for Active; 'I' for Inactive)
REMARK    1  A    between atoms: C_1  and  N_2
REMARK    2  A    between atoms: N_2  and  C_3
REMARK    3  A    between atoms: N_2  and  C_4
REMARK    4  A    between atoms: C_4  and  C_5
REMARK    5  A    between atoms: C_5  and  O_6
REMARK    6  A    between atoms: O_6  and  C_7
REMARK    7  A    between atoms: C_10  and  C_11
REMARK    8  A    between atoms: C_11  and  N_12
REMARK    9  A    between atoms: C_16  and  C_17
REMARK   10  A    between atoms: C_17  and  C_18
REMARK   11  A    between atoms: C_17  and  C_19
REMARK   12  A    between atoms: C_17  and  O_20
REMARK                            x       y       z     vdW  Elec       q    Type
REMARK                         _______ _______ _______ _____ _____    ______ ____
ROOT
ATOM      1  C   UNL     1      43.197   5.299  11.012  0.00  0.00    +0.000 C 
ENDROOT
BRANCH   1   2
ATOM      2  N   UNL     1      43.380   3.848  10.900  0.00  0.00    +0.000 N 
ATOM      3  C   UNL     1      44.310   3.500   9.909  0.00  0.00    +0.000 A 
ATOM      4  C   UNL     1      44.629   2.163   9.719  0.00  0.00    +0.000 A 
ATOM      5  C   UNL     1      45.531   1.805   8.711  0.00  0.00    +0.000 A 
ATOM      6  C   UNL     1      46.094   2.794   7.895  0.00  0.00    +0.000 A 
ATOM      7  C   UNL     1      45.733   4.104   8.192  0.00  0.00    +0.000 A 
ATOM      8  N   UNL     1      44.871   4.468   9.158  0.00  0.00    +0.000 NA
ATOM      9  H   UNL     1      42.508   3.363  10.723  0.00  0.00    +0.000 HD
BRANCH   6  10
ATOM     10  C   UNL     1      47.044   2.495   6.753  0.00  0.00    +0.000 C 
ATOM     11  C   UNL     1      47.435   1.009   6.741  0.00  0.00    +0.000 C 
ATOM     12  C   UNL     1      46.427   2.895   5.409  0.00  0.00    +0.000 C 
BRANCH  10  13
ATOM     13  O   UNL     1      48.258   3.243   6.888  0.00  0.00    +0.000 OA
ATOM     14  H   UNL     1      48.956   2.745   6.432  0.00  0.00    +0.000 HD
ENDBRANCH  10  13
ENDBRANCH   6  10
ENDBRANCH   1   2
BRANCH   1  18
ATOM     15  C   UNL     1      46.463   7.107  13.107  0.00  0.00    +0.000 A 
ATOM     16  C   UNL     1      45.806   7.820  12.107  0.00  0.00    +0.000 A 
ATOM     17  C   UNL     1      44.732   7.245  11.431  0.00  0.00    +0.000 A 
ATOM     18  C   UNL     1      44.347   5.949  11.758  0.00  0.00    +0.000 A 
ATOM     19  N   UNL     1      44.980   5.229  12.719  0.00  0.00    +0.000 NA
ATOM     20  C   UNL     1      46.012   5.820  13.368  0.00  0.00    +0.000 A 
BRANCH  15  21
ATOM     21  O   UNL     1      47.514   7.565  13.856  0.00  0.00    +0.000 OA
BRANCH  21  22
ATOM     22  C   UNL     1      48.561   6.608  14.051  0.00  0.00    +0.000 C 
BRANCH  22  23
ATOM     23  C   UNL     1      49.516   7.072  15.155  0.00  0.00    +0.000 C 
BRANCH  23  25
ATOM     24  C   UNL     1      48.730   7.443  17.398  0.00  0.00    +0.000 C 
ATOM     25  N   UNL     1      49.249   6.440  16.465  0.00  0.00    +0.000 NA
ATOM     26  C   UNL     1      48.306   5.323  16.371  0.00  0.00    +0.000 C 
ENDBRANCH  23  25
ENDBRANCH  22  23
ENDBRANCH  21  22
ENDBRANCH  15  21
ENDBRANCH   1  18
TORSDOF 8
ENDMDL
MODEL 3
REMARK VINA RESULT:    -6.447      3.369      9.379
REMARK INTER + INTRA:          -9.808
REMARK INTER:                  -9.280
REMARK INTRA:                  -0.528
REMARK UNBOUND:                -0.534
REMARK  Name = 
REMARK  12 active torsions:
REMARK  status: ('A' for Active; 'I' for Inactive)
REMARK    1  A    between atoms: C_1  and  N_2
REMARK    2  A    between atoms: N_2  and  C_3
REMARK    3  A    between atoms: N_2  and  C_4
REMARK    4  A    between atoms: C_4  and  C_5
REMARK    5  A    between atoms: C_5  and  O_6
REMARK    6  A    between atoms: O_6  and  C_7
REMARK    7  A    between atoms: C_10  and  C_11
REMARK    8  A    between atoms: C_11  and  N_12
REMARK    9  A    between atoms: C_16  and  C_17
REMARK   10  A    between atoms: C_17  and  C_18
REMARK   11  A    between atoms: C_17  and  C_19
REMARK   12  A    between atoms: C_17  and  O_20
REMARK                            x       y       z     vdW  Elec       q    Type
REMARK                         _______ _______ _______ _____ _____    ______ ____
ROOT
ATOM      1  C   UNL     1      47.149   4.057  15.980  0.00  0.00    +0.000 C 
ENDROOT
BRANCH   1   2
ATOM      2  N   UNL     1      47.211   5.235  15.110  0.00  0.00    +0.000 N 
ATOM      3  C   UNL     1      46.539   5.040  13.894  0.00  0.00    +0.000 A 
ATOM      4  C   UNL     1      46.467   6.084  12.984  0.00  0.00    +0.000 A 
ATOM      5  C   UNL     1      45.826   5.887  11.756  0.00  0.00    +0.000 A 
ATOM      6  C   UNL     1      45.275   4.637  11.449  0.00  0.00    +0.000 A 
ATOM      7  C   UNL     1      45.374   3.670  12.444  0.00  0.00    +0.000 A 
ATOM      8  N   UNL     1      45.982   3.841  13.631  0.00  0.00    +0.000 NA
ATOM      9  H   UNL     1      48.164   5.523  14.920  0.00  0.00    +0.000 HD
BRANCH   6  10
ATOM     10  C   UNL     1      44.603   4.320  10.128  0.00  0.00    +0.000 C 
ATOM     11  C   UNL     1      45.525   4.666   8.948  0.00  0.00    +0.000 C 
ATOM     12  C   UNL     1      44.186   2.847  10.066  0.00  0.00    +0.000 C 
BRANCH  10  13
ATOM     13  O   UNL     1      43.409   5.093   9.964  0.00  0.00    +0.000 OA
ATOM     14  H   UNL     1      43.252   5.563  10.800  0.00  0.00    +0.000 HD
ENDBRANCH  10  13
ENDBRANCH   6  10
ENDBRANCH   1   2
BRANCH   1  18
ATOM     15  C   UNL     1      50.996   3.074  17.578  0.00  0.00    +0.000 A 
ATOM     16  C   UNL     1      50.135   2.055  17.178  0.00  0.00    +0.000 A 
ATOM     17  C   UNL     1      48.887   2.367  16.643  0.00  0.00    +0.000 A 
ATOM     18  C   UNL     1      48.515   3.702  16.536  0.00  0.00    +0.000 A 
ATOM     19  N   UNL     1      49.331   4.713  16.931  0.00  0.00    +0.000 NA
ATOM     20  C   UNL     1      50.543   4.378  17.435  0.00  0.00    +0.000 A 
BRANCH  15  21
ATOM     21  O   UNL     1      52.252   2.901  18.098  0.00  0.00    +0.000 OA
BRANCH  21  22
ATOM     22  C   UNL     1      52.764   1.569  17.972  0.00  0.00    +0.000 C 
BRANCH  22  23
ATOM     23  C   UNL     1      54.208   1.593  17.461  0.00  0.00    +0.000 C 
BRANCH  23  25
ATOM     24  C   UNL     1      54.176  -0.604  18.442  0.00  0.00    +0.000 C 
ATOM     25  N   UNL     1      54.859   0.265  17.480  0.00  0.00    +0.000 NA
ATOM     26  C   UNL     1      54.871  -0.375  16.162  0.00  0.00    +0.000 C 
ENDBRANCH  23  25
ENDBRANCH  22  23
ENDBRANCH  21  22
ENDBRANCH  15  21
ENDBRANCH   1  18
TORSDOF 8
ENDMDL
MODEL 4
REMARK VINA RESULT:    -6.106      2.170      9.545
REMARK INTER + INTRA:          -9.317
REMARK INTER:                  -8.634
REMARK INTRA:                  -0.684
REMARK UNBOUND:                -0.534
REMARK  Name = 
REMARK  12 active torsions:
REMARK  status: ('A' for Active; 'I' for Inactive)
REMARK    1  A    between atoms: C_1  and  N_2
REMARK    2  A    between atoms: N_2  and  C_3
REMARK    3  A    between atoms: N_2  and  C_4
REMARK    4  A    between atoms: C_4  and  C_5
REMARK    5  A    between atoms: C_5  and  O_6
REMARK    6  A    between atoms: O_6  and  C_7
REMARK    7  A    between atoms: C_10  and  C_11
REMARK    8  A    between atoms: C_11  and  N_12
REMARK    9  A    between atoms: C_16  and  C_17
REMARK   10  A    between atoms: C_17  and  C_18
REMARK   11  A    between atoms: C_17  and  C_19
REMARK   12  A    between atoms: C_17  and  O_20
REMARK                            x       y       z     vdW  Elec       q    Type
REMARK                         _______ _______ _______ _____ _____    ______ ____
ROOT
ATOM      1  C   UNL     1      46.889   4.250  15.564  0.00  0.00    +0.000 C 
ENDROOT
BRANCH   1   2
ATOM      2  N   UNL     1      47.001   5.353  14.604  0.00  0.00    +0.000 N 
ATOM      3  C   UNL     1      46.416   5.048  13.367  0.00  0.00    +0.000 A 
ATOM      4  C   UNL     1      46.397   6.012  12.370  0.00  0.00    +0.000 A 
ATOM      5  C   UNL     1      45.844   5.705  11.122  0.00  0.00    +0.000 A 
ATOM      6  C   UNL     1      45.327   4.425  10.883  0.00  0.00    +0.000 A 
ATOM      7  C   UNL     1      45.365   3.545  11.959  0.00  0.00    +0.000 A 
ATOM      8  N   UNL     1      45.889   3.823  13.167  0.00  0.00    +0.000 NA
ATOM      9  H   UNL     1      47.962   5.638  14.455  0.00  0.00    +0.000 HD
BRANCH   6  10
ATOM     10  C   UNL     1      44.750   3.991   9.551  0.00  0.00    +0.000 C 
ATOM     11  C   UNL     1      45.726   4.300   8.405  0.00  0.00    +0.000 C 
ATOM     12  C   UNL     1      44.401   2.499   9.566  0.00  0.00    +0.000 C 
BRANCH  10  13
ATOM     13  O   UNL     1      43.536   4.695   9.265  0.00  0.00    +0.000 OA
ATOM     14  H   UNL     1      43.783   5.593   8.987  0.00  0.00    +0.000 HD
ENDBRANCH  10  13
ENDBRANCH   6  10
ENDBRANCH   1   2
BRANCH   1  18
ATOM     15  C   UNL     1      50.437   3.869  17.929  0.00  0.00    +0.000 A 
ATOM     16  C   UNL     1      49.575   2.783  17.800  0.00  0.00    +0.000 A 
ATOM     17  C   UNL     1      48.426   2.894  17.020  0.00  0.00    +0.000 A 
ATOM     18  C   UNL     1      48.150   4.105  16.395  0.00  0.00    +0.000 A 
ATOM     19  N   UNL     1      48.968   5.182  16.515  0.00  0.00    +0.000 NA
ATOM     20  C   UNL     1      50.084   5.040  17.270  0.00  0.00    +0.000 A 
BRANCH  15  21
ATOM     21  O   UNL     1      51.604   3.882  18.647  0.00  0.00    +0.000 OA
BRANCH  21  22
ATOM     22  C   UNL     1      52.634   3.043  18.113  0.00  0.00    +0.000 C 
BRANCH  22  23
ATOM     23  C   UNL     1      53.901   3.857  17.834  0.00  0.00    +0.000 C 
BRANCH  23  25
ATOM     24  C   UNL     1      54.714   5.893  18.825  0.00  0.00    +0.000 C 
ATOM     25  N   UNL     1      53.696   5.318  17.942  0.00  0.00    +0.000 NA
ATOM     26  C   UNL     1      53.739   5.990  16.641  0.00  0.00    +0.000 C 
ENDBRANCH  23  25
ENDBRANCH  22  23
ENDBRANCH  21  22
ENDBRANCH  15  21
ENDBRANCH   1  18
TORSDOF 8
ENDMDL
MODEL 5
REMARK VINA RESULT:    -6.049      1.959      9.789
REMARK INTER + INTRA:          -9.235
REMARK INTER:                  -8.507
REMARK INTRA:                  -0.728
REMARK UNBOUND:                -0.534
REMARK  Name = 
REMARK  12 active torsions:
REMARK  status: ('A' for Active; 'I' for Inactive)
REMARK    1  A    between atoms: C_1  and  N_2
REMARK    2  A    between atoms: N_2  and  C_3
REMARK    3  A    between atoms: N_2  and  C_4
REMARK    4  A    between atoms: C_4  and  C_5
REMARK    5  A    between atoms: C_5  and  O_6
REMARK    6  A    between atoms: O_6  and  C_7
REMARK    7  A    between atoms: C_10  and  C_11
REMARK    8  A    between atoms: C_11  and  N_12
REMARK    9  A    between atoms: C_16  and  C_17
REMARK   10  A    between atoms: C_17  and  C_18
REMARK   11  A    between atoms: C_17  and  C_19
REMARK   12  A    between atoms: C_17  and  O_20
REMARK                            x       y       z     vdW  Elec       q    Type
REMARK                         _______ _______ _______ _____ _____    ______ ____
ROOT
ATOM      1  C   UNL     1      47.102   4.066  15.616  0.00  0.00    +0.000 C 
ENDROOT
BRANCH   1   2
ATOM      2  N   UNL     1      47.071   5.248  14.748  0.00  0.00    +0.000 N 
ATOM      3  C   UNL     1      46.446   4.993  13.519  0.00  0.00    +0.000 A 
ATOM      4  C   UNL     1      46.293   6.030  12.609  0.00  0.00    +0.000 A 
ATOM      5  C   UNL     1      45.700   5.776  11.367  0.00  0.00    +0.000 A 
ATOM      6  C   UNL     1      45.277   4.480  11.046  0.00  0.00    +0.000 A 
ATOM      7  C   UNL     1      45.446   3.524  12.042  0.00  0.00    +0.000 A 
ATOM      8  N   UNL     1      46.010   3.748  13.242  0.00  0.00    +0.000 NA
ATOM      9  H   UNL     1      47.996   5.626  14.578  0.00  0.00    +0.000 HD
BRANCH   6  10
ATOM     10  C   UNL     1      44.666   4.105   9.711  0.00  0.00    +0.000 C 
ATOM     11  C   UNL     1      45.607   4.479   8.555  0.00  0.00    +0.000 C 
ATOM     12  C   UNL     1      44.329   2.612   9.664  0.00  0.00    +0.000 C 
BRANCH  10  13
ATOM     13  O   UNL     1      43.439   4.811   9.495  0.00  0.00    +0.000 OA
ATOM     14  H   UNL     1      43.029   4.951  10.365  0.00  0.00    +0.000 HD
ENDBRANCH  10  13
ENDBRANCH   6  10
ENDBRANCH   1   2
BRANCH   1  18
ATOM     15  C   UNL     1      49.527   4.755  19.075  0.00  0.00    +0.000 A 
ATOM     16  C   UNL     1      48.177   5.095  19.102  0.00  0.00    +0.000 A 
ATOM     17  C   UNL     1      47.377   4.860  17.985  0.00  0.00    +0.000 A 
ATOM     18  C   UNL     1      47.954   4.303  16.849  0.00  0.00    +0.000 A 
ATOM     19  N   UNL     1      49.270   3.976  16.794  0.00  0.00    +0.000 NA
ATOM     20  C   UNL     1      50.019   4.204  17.900  0.00  0.00    +0.000 A 
BRANCH  15  21
ATOM     21  O   UNL     1      50.412   4.916  20.109  0.00  0.00    +0.000 OA
BRANCH  21  22
ATOM     22  C   UNL     1      50.506   6.258  20.601  0.00  0.00    +0.000 C 
BRANCH  22  23
ATOM     23  C   UNL     1      51.176   7.166  19.566  0.00  0.00    +0.000 C 
BRANCH  23  25
ATOM     24  C   UNL     1      49.915   8.288  17.852  0.00  0.00    +0.000 C 
ATOM     25  N   UNL     1      50.381   8.369  19.238  0.00  0.00    +0.000 NA
ATOM     26  C   UNL     1      49.233   8.546  20.132  0.00  0.00    +0.000 C 
ENDBRANCH  23  25
ENDBRANCH  22  23
ENDBRANCH  21  22
ENDBRANCH  15  21
ENDBRANCH   1  18
TORSDOF 8
ENDMDL
MODEL 6
REMARK VINA RESULT:    -5.899      2.714      3.801
REMARK INTER + INTRA:          -9.019
REMARK INTER:                  -8.378
REMARK INTRA:                  -0.641
REMARK UNBOUND:                -0.534
REMARK  Name = 
REMARK  12 active torsions:
REMARK  status: ('A' for Active; 'I' for Inactive)
REMARK    1  A    between atoms: C_1  and  N_2
REMARK    2  A    between atoms: N_2  and  C_3
REMARK    3  A    between atoms: N_2  and  C_4
REMARK    4  A    between atoms: C_4  and  C_5
REMARK    5  A    between atoms: C_5  and  O_6
REMARK    6  A    between atoms: O_6  and  C_7
REMARK    7  A    between atoms: C_10  and  C_11
REMARK    8  A    between atoms: C_11  and  N_12
REMARK    9  A    between atoms: C_16  and  C_17
REMARK   10  A    between atoms: C_17  and  C_18
REMARK   11  A    between atoms: C_17  and  C_19
REMARK   12  A    between atoms: C_17  and  O_20
REMARK                            x       y       z     vdW  Elec       q    Type
REMARK                         _______ _______ _______ _____ _____    ______ ____
ROOT
ATOM      1  C   UNL     1      47.575   4.134  16.661  0.00  0.00    +0.000 C 
ENDROOT
BRANCH   1   2
ATOM      2  N   UNL     1      48.160   2.792  16.575  0.00  0.00    +0.000 N 
ATOM      3  C   UNL     1      49.489   2.758  17.021  0.00  0.00    +0.000 A 
ATOM      4  C   UNL     1      50.164   1.546  17.048  0.00  0.00    +0.000 A 
ATOM      5  C   UNL     1      51.501   1.509  17.461  0.00  0.00    +0.000 A 
ATOM      6  C   UNL     1      52.151   2.693  17.830  0.00  0.00    +0.000 A 
ATOM      7  C   UNL     1      51.374   3.847  17.798  0.00  0.00    +0.000 A 
ATOM      8  N   UNL     1      50.087   3.902  17.409  0.00  0.00    +0.000 NA
ATOM      9  H   UNL     1      48.115   2.411  15.637  0.00  0.00    +0.000 HD
BRANCH   6  10
ATOM     10  C   UNL     1      53.606   2.754  18.247  0.00  0.00    +0.000 C 
ATOM     11  C   UNL     1      54.447   1.746  17.447  0.00  0.00    +0.000 C 
ATOM     12  C   UNL     1      54.166   4.170  18.075  0.00  0.00    +0.000 C 
BRANCH  10  13
ATOM     13  O   UNL     1      53.756   2.417  19.630  0.00  0.00    +0.000 OA
ATOM     14  H   UNL     1      53.705   3.246  20.136  0.00  0.00    +0.000 HD
ENDBRANCH  10  13
ENDBRANCH   6  10
ENDBRANCH   1   2
BRANCH   1  18
ATOM     15  C   UNL     1      46.925   5.833  12.787  0.00  0.00    +0.000 A 
ATOM     16  C   UNL     1      47.814   6.445  13.667  0.00  0.00    +0.000 A 
ATOM     17  C   UNL     1      48.042   5.890  14.924  0.00  0.00    +0.000 A 
ATOM     18  C   UNL     1      47.357   4.735  15.285  0.00  0.00    +0.000 A 
ATOM     19  N   UNL     1      46.476   4.127  14.449  0.00  0.00    +0.000 NA
ATOM     20  C   UNL     1      46.285   4.684  13.229  0.00  0.00    +0.000 A 
BRANCH  15  21
ATOM     21  O   UNL     1      46.630   6.266  11.521  0.00  0.00    +0.000 OA
BRANCH  21  22
ATOM     22  C   UNL     1      45.274   6.037  11.120  0.00  0.00    +0.000 C 
BRANCH  22  23
ATOM     23  C   UNL     1      45.221   5.116   9.897  0.00  0.00    +0.000 C 
BRANCH  23  25
ATOM     24  C   UNL     1      44.612   2.789   9.912  0.00  0.00    +0.000 C 
ATOM     25  N   UNL     1      44.094   4.159   9.931  0.00  0.00    +0.000 NA
ATOM     26  C   UNL     1      43.234   4.343  11.102  0.00  0.00    +0.000 C 
ENDBRANCH  23  25
ENDBRANCH  22  23
ENDBRANCH  21  22
ENDBRANCH  15  21
ENDBRANCH   1  18
TORSDOF 8
ENDMDL
MODEL 7
REMARK VINA RESULT:    -5.468      1.902      2.748
REMARK INTER + INTRA:          -8.400
REMARK INTER:                  -8.057
REMARK INTRA:                  -0.342
REMARK UNBOUND:                -0.534
REMARK  Name = 
REMARK  12 active torsions:
REMARK  status: ('A' for Active; 'I' for Inactive)
REMARK    1  A    between atoms: C_1  and  N_2
REMARK    2  A    between atoms: N_2  and  C_3
REMARK    3  A    between atoms: N_2  and  C_4
REMARK    4  A    between atoms: C_4  and  C_5
REMARK    5  A    between atoms: C_5  and  O_6
REMARK    6  A    between atoms: O_6  and  C_7
REMARK    7  A    between atoms: C_10  and  C_11
REMARK    8  A    between atoms: C_11  and  N_12
REMARK    9  A    between atoms: C_16  and  C_17
REMARK   10  A    between atoms: C_17  and  C_18
REMARK   11  A    between atoms: C_17  and  C_19
REMARK   12  A    between atoms: C_17  and  O_20
REMARK                            x       y       z     vdW  Elec       q    Type
REMARK                         _______ _______ _______ _____ _____    ______ ____
ROOT
ATOM      1  C   UNL     1      49.006   6.769  13.487  0.00  0.00    +0.000 C 
ENDROOT
BRANCH   1   2
ATOM      2  N   UNL     1      48.914   7.768  14.557  0.00  0.00    +0.000 N 
ATOM      3  C   UNL     1      48.889   7.186  15.832  0.00  0.00    +0.000 A 
ATOM      4  C   UNL     1      48.855   8.007  16.951  0.00  0.00    +0.000 A 
ATOM      5  C   UNL     1      48.797   7.433  18.226  0.00  0.00    +0.000 A 
ATOM      6  C   UNL     1      48.761   6.040  18.364  0.00  0.00    +0.000 A 
ATOM      7  C   UNL     1      48.833   5.311  17.182  0.00  0.00    +0.000 A 
ATOM      8  N   UNL     1      48.893   5.843  15.948  0.00  0.00    +0.000 NA
ATOM      9  H   UNL     1      48.107   8.372  14.451  0.00  0.00    +0.000 HD
BRANCH   6  10
ATOM     10  C   UNL     1      48.654   5.335  19.701  0.00  0.00    +0.000 C 
ATOM     11  C   UNL     1      50.000   5.357  20.441  0.00  0.00    +0.000 C 
ATOM     12  C   UNL     1      47.559   5.965  20.567  0.00  0.00    +0.000 C 
BRANCH  10  13
ATOM     13  O   UNL     1      48.298   3.958  19.525  0.00  0.00    +0.000 OA
ATOM     14  H   UNL     1      47.789   3.895  18.699  0.00  0.00    +0.000 HD
ENDBRANCH  10  13
ENDBRANCH   6  10
ENDBRANCH   1   2
BRANCH   1  18
ATOM     15  C   UNL     1      45.123   5.489  12.221  0.00  0.00    +0.000 A 
ATOM     16  C   UNL     1      45.542   6.789  11.950  0.00  0.00    +0.000 A 
ATOM     17  C   UNL     1      46.810   7.209  12.346  0.00  0.00    +0.000 A 
ATOM     18  C   UNL     1      47.633   6.319  13.026  0.00  0.00    +0.000 A 
ATOM     19  N   UNL     1      47.242   5.050  13.313  0.00  0.00    +0.000 NA
ATOM     20  C   UNL     1      46.009   4.667  12.905  0.00  0.00    +0.000 A 
BRANCH  15  21
ATOM     21  O   UNL     1      43.913   4.950  11.870  0.00  0.00    +0.000 OA
BRANCH  21  22
ATOM     22  C   UNL     1      43.797   4.618  10.482  0.00  0.00    +0.000 C 
BRANCH  22  23
ATOM     23  C   UNL     1      44.188   3.156  10.242  0.00  0.00    +0.000 C 
BRANCH  23  25
ATOM     24  C   UNL     1      45.283   4.043   8.292  0.00  0.00    +0.000 C 
ATOM     25  N   UNL     1      44.589   2.877   8.847  0.00  0.00    +0.000 NA
ATOM     26  C   UNL     1      45.448   1.696   8.733  0.00  0.00    +0.000 C 
ENDBRANCH  23  25
ENDBRANCH  22  23
ENDBRANCH  21  22
ENDBRANCH  15  21
ENDBRANCH   1  18
TORSDOF 8
ENDMDL
MODEL 8
REMARK VINA RESULT:    -5.399      1.783      2.651
REMARK INTER + INTRA:          -8.301
REMARK INTER:                  -7.780
REMARK INTRA:                  -0.521
REMARK UNBOUND:                -0.534
REMARK  Name = 
REMARK  12 active torsions:
REMARK  status: ('A' for Active; 'I' for Inactive)
REMARK    1  A    between atoms: C_1  and  N_2
REMARK    2  A    between atoms: N_2  and  C_3
REMARK    3  A    between atoms: N_2  and  C_4
REMARK    4  A    between atoms: C_4  and  C_5
REMARK    5  A    between atoms: C_5  and  O_6
REMARK    6  A    between atoms: O_6  and  C_7
REMARK    7  A    between atoms: C_10  and  C_11
REMARK    8  A    between atoms: C_11  and  N_12
REMARK    9  A    between atoms: C_16  and  C_17
REMARK   10  A    between atoms: C_17  and  C_18
REMARK   11  A    between atoms: C_17  and  C_19
REMARK   12  A    between atoms: C_17  and  O_20
REMARK                            x       y       z     vdW  Elec       q    Type
REMARK                         _______ _______ _______ _____ _____    ______ ____
ROOT
ATOM      1  C   UNL     1      48.595   6.792  14.817  0.00  0.00    +0.000 C 
ENDROOT
BRANCH   1   2
ATOM      2  N   UNL     1      48.226   6.551  16.216  0.00  0.00    +0.000 N 
ATOM      3  C   UNL     1      49.295   6.049  16.972  0.00  0.00    +0.000 A 
ATOM      4  C   UNL     1      49.115   5.818  18.329  0.00  0.00    +0.000 A 
ATOM      5  C   UNL     1      50.166   5.286  19.084  0.00  0.00    +0.000 A 
ATOM      6  C   UNL     1      51.385   4.980  18.466  0.00  0.00    +0.000 A 
ATOM      7  C   UNL     1      51.470   5.281  17.111  0.00  0.00    +0.000 A 
ATOM      8  N   UNL     1      50.473   5.795  16.368  0.00  0.00    +0.000 NA
ATOM      9  H   UNL     1      47.434   5.924  16.302  0.00  0.00    +0.000 HD
BRANCH   6  10
ATOM     10  C   UNL     1      52.561   4.361  19.195  0.00  0.00    +0.000 C 
ATOM     11  C   UNL     1      52.954   3.019  18.558  0.00  0.00    +0.000 C 
ATOM     12  C   UNL     1      53.759   5.316  19.209  0.00  0.00    +0.000 C 
BRANCH  10  13
ATOM     13  O   UNL     1      52.231   4.093  20.562  0.00  0.00    +0.000 OA
ATOM     14  H   UNL     1      51.456   3.507  20.562  0.00  0.00    +0.000 HD
ENDBRANCH  10  13
ENDBRANCH   6  10
ENDBRANCH   1   2
BRANCH   1  18
ATOM     15  C   UNL     1      45.556   5.379  12.155  0.00  0.00    +0.000 A 
ATOM     16  C   UNL     1      46.383   6.427  11.762  0.00  0.00    +0.000 A 
ATOM     17  C   UNL     1      47.384   6.884  12.616  0.00  0.00    +0.000 A 
ATOM     18  C   UNL     1      47.527   6.289  13.865  0.00  0.00    +0.000 A 
ATOM     19  N   UNL     1      46.725   5.274  14.276  0.00  0.00    +0.000 NA
ATOM     20  C   UNL     1      45.768   4.844  13.418  0.00  0.00    +0.000 A 
BRANCH  15  21
ATOM     21  O   UNL     1      44.552   4.827  11.403  0.00  0.00    +0.000 OA
BRANCH  21  22
ATOM     22  C   UNL     1      44.980   3.779  10.526  0.00  0.00    +0.000 C 
BRANCH  22  23
ATOM     23  C   UNL     1      44.580   4.089   9.080  0.00  0.00    +0.000 C 
BRANCH  23  25
ATOM     24  C   UNL     1      46.266   3.654   7.420  0.00  0.00    +0.000 C 
ATOM     25  N   UNL     1      45.094   3.103   8.105  0.00  0.00    +0.000 NA
ATOM     26  C   UNL     1      45.445   1.825   8.728  0.00  0.00    +0.000 C 
ENDBRANCH  23  25
ENDBRANCH  22  23
ENDBRANCH  21  22
ENDBRANCH  15  21
ENDBRANCH   1  18
TORSDOF 8
ENDMDL
MODEL 9
REMARK VINA RESULT:    -5.350      3.078      8.940
REMARK INTER + INTRA:          -8.231
REMARK INTER:                  -7.290
REMARK INTRA:                  -0.941
REMARK UNBOUND:                -0.534
REMARK  Name = 
REMARK  12 active torsions:
REMARK  status: ('A' for Active; 'I' for Inactive)
REMARK    1  A    between atoms: C_1  and  N_2
REMARK    2  A    between atoms: N_2  and  C_3
REMARK    3  A    between atoms: N_2  and  C_4
REMARK    4  A    between atoms: C_4  and  C_5
REMARK    5  A    between atoms: C_5  and  O_6
REMARK    6  A    between atoms: O_6  and  C_7
REMARK    7  A    between atoms: C_10  and  C_11
REMARK    8  A    between atoms: C_11  and  N_12
REMARK    9  A    between atoms: C_16  and  C_17
REMARK   10  A    between atoms: C_17  and  C_18
REMARK   11  A    between atoms: C_17  and  C_19
REMARK   12  A    between atoms: C_17  and  O_20
REMARK                            x       y       z     vdW  Elec       q    Type
REMARK                         _______ _______ _______ _____ _____    ______ ____
ROOT
ATOM      1  C   UNL     1      47.897   8.824  14.044  0.00  0.00    +0.000 C 
ENDROOT
BRANCH   1   2
ATOM      2  N   UNL     1      48.161   8.095  12.799  0.00  0.00    +0.000 N 
ATOM      3  C   UNL     1      47.043   7.373  12.354  0.00  0.00    +0.000 A 
ATOM      4  C   UNL     1      47.121   6.673  11.159  0.00  0.00    +0.000 A 
ATOM      5  C   UNL     1      46.022   5.924  10.725  0.00  0.00    +0.000 A 
ATOM      6  C   UNL     1      44.859   5.876  11.503  0.00  0.00    +0.000 A 
ATOM      7  C   UNL     1      44.874   6.640  12.665  0.00  0.00    +0.000 A 
ATOM      8  N   UNL     1      45.919   7.370  13.097  0.00  0.00    +0.000 NA
ATOM      9  H   UNL     1      48.951   7.467  12.880  0.00  0.00    +0.000 HD
BRANCH   6  10
ATOM     10  C   UNL     1      43.638   5.057  11.134  0.00  0.00    +0.000 C 
ATOM     11  C   UNL     1      43.809   3.593  11.570  0.00  0.00    +0.000 C 
ATOM     12  C   UNL     1      42.371   5.654  11.754  0.00  0.00    +0.000 C 
BRANCH  10  13
ATOM     13  O   UNL     1      43.438   5.048   9.716  0.00  0.00    +0.000 OA
ATOM     14  H   UNL     1      44.092   5.654   9.329  0.00  0.00    +0.000 HD
ENDBRANCH  10  13
ENDBRANCH   6  10
ENDBRANCH   1   2
BRANCH   1  18
ATOM     15  C   UNL     1      49.786   6.956  17.401  0.00  0.00    +0.000 A 
ATOM     16  C   UNL     1      50.085   6.521  16.112  0.00  0.00    +0.000 A 
ATOM     17  C   UNL     1      49.486   7.134  15.013  0.00  0.00    +0.000 A 
ATOM     18  C   UNL     1      48.578   8.165  15.229  0.00  0.00    +0.000 A 
ATOM     19  N   UNL     1      48.261   8.598  16.476  0.00  0.00    +0.000 NA
ATOM     20  C   UNL     1      48.869   7.992  17.523  0.00  0.00    +0.000 A 
BRANCH  15  21
ATOM     21  O   UNL     1      50.320   6.453  18.558  0.00  0.00    +0.000 OA
BRANCH  21  22
ATOM     22  C   UNL     1      50.267   5.026  18.660  0.00  0.00    +0.000 C 
BRANCH  22  23
ATOM     23  C   UNL     1      48.878   4.570  19.115  0.00  0.00    +0.000 C 
BRANCH  23  25
ATOM     24  C   UNL     1      47.231   4.226  17.395  0.00  0.00    +0.000 C 
ATOM     25  N   UNL     1      48.260   3.576  18.211  0.00  0.00    +0.000 NA
ATOM     26  C   UNL     1      49.240   2.924  17.337  0.00  0.00    +0.000 C 
ENDBRANCH  23  25
ENDBRANCH  22  23
ENDBRANCH  21  22
ENDBRANCH  15  21
ENDBRANCH   1  18
TORSDOF 8
ENDMDL
