MODEL 1
REMARK VINA RESULT:    -6.967      0.000      0.000
REMARK INTER + INTRA:          -9.153
REMARK INTER:                  -8.596
REMARK INTRA:                  -0.557
REMARK UNBOUND:                -0.557
REMARK  Name = 
REMARK  7 active torsions:
REMARK  status: ('A' for Active; 'I' for Inactive)
REMARK    1  A    between atoms: C_1  and  C_2
REMARK    2  A    between atoms: C_2  and  C_3
REMARK    3  A    between atoms: C_2  and  C_4
REMARK    4  A    between atoms: C_2  and  C_5
REMARK    5  A    between atoms: N_7  and  C_8
REMARK    6  A    between atoms: C_8  and  C_9
REMARK    7  A    between atoms: C_18  and  C_19
REMARK                            x       y       z     vdW  Elec       q    Type
REMARK                         _______ _______ _______ _____ _____    ______ ____
ROOT
ATOM      1  C   UNL     1      45.965   6.989  11.985  0.00  0.00    +0.000 A 
ATOM      2  N   UNL     1      45.253   6.647  10.902  0.00  0.00    +0.000 NA
ATOM      3  N   UNL     1      45.059   5.321  11.015  0.00  0.00    +0.000 N 
ATOM      4  C   UNL     1      45.682   4.764  12.106  0.00  0.00    +0.000 A 
ATOM      5  C   UNL     1      45.815   3.438  12.540  0.00  0.00    +0.000 A 
ATOM      6  C   UNL     1      46.473   3.217  13.755  0.00  0.00    +0.000 A 
ATOM      7  C   UNL     1      46.980   4.278  14.511  0.00  0.00    +0.000 A 
ATOM      8  C   UNL     1      46.866   5.597  14.041  0.00  0.00    +0.000 A 
ATOM      9  C   UNL     1      46.222   5.843  12.808  0.00  0.00    +0.000 A 
ENDROOT
BRANCH   7  10
ATOM     10  C   UNL     1      47.599   3.958  15.828  0.00  0.00    +0.000 C 
ATOM     11  N   UNL     1      47.304   4.771  16.887  0.00  0.00    +0.000 N 
ATOM     12  O   UNL     1      48.369   3.016  15.963  0.00  0.00    +0.000 OA
ATOM     13  H   UNL     1      46.869   5.676  16.785  0.00  0.00    +0.000 HD
ATOM     14  H   UNL     1      47.805   4.584  17.747  0.00  0.00    +0.000 HD
ENDBRANCH   7  10
BRANCH   1  16
ATOM     15  C   UNL     1      46.479   8.820  13.671  0.00  0.00    +0.000 C 
ATOM     16  C   UNL     1      46.424   8.431  12.173  0.00  0.00    +0.000 C 
ATOM     17  C   UNL     1      45.439   9.402  11.489  0.00  0.00    +0.000 C 
ATOM     18  C   UNL     1      47.832   8.638  11.586  0.00  0.00    +0.000 C 
ENDBRANCH   1  16
BRANCH   3  19
ATOM     19  C   UNL     1      44.342   4.624   9.954  0.00  0.00    +0.000 C 
BRANCH  19  20
ATOM     20  C   UNL     1      45.225   3.764   9.088  0.00  0.00    +0.000 A 
ATOM     21  C   UNL     1      45.998   4.317   8.059  0.00  0.00    +0.000 A 
ATOM     22  C   UNL     1      46.695   3.488   7.187  0.00  0.00    +0.000 A 
ATOM     23  C   UNL     1      46.602   2.121   7.371  0.00  0.00    +0.000 A 
ATOM     24  N   UNL     1      45.895   1.547   8.367  0.00  0.00    +0.000 NA
ATOM     25  C   UNL     1      45.226   2.376   9.202  0.00  0.00    +0.000 A 
ENDBRANCH  19  20
ENDBRANCH   3  19
TORSDOF 4
ENDMDL
MODEL 2
REMARK VINA RESULT:    -6.783      2.725      6.199
REMARK INTER + INTRA:          -8.926
REMARK INTER:                  -8.187
REMARK INTRA:                  -0.740
REMARK UNBOUND:                -0.557
REMARK  Name = 
REMARK  7 active torsions:
REMARK  status: ('A' for Active; 'I' for Inactive)
REMARK    1  A    between atoms: C_1  and  C_2
REMARK    2  A    between atoms: C_2  and  C_3
REMARK    3  A    between atoms: C_2  and  C_4
REMARK    4  A    between atoms: C_2  and  C_5
REMARK    5  A    between atoms: N_7  and  C_8
REMARK    6  A    between atoms: C_8  and  C_9
REMARK    7  A    between atoms: C_18  and  C_19
REMARK                            x       y       z     vdW  Elec       q    Type
REMARK                         _______ _______ _______ _____ _____    ______ ____
ROOT
ATOM      1  C   UNL     1      48.238   6.702  13.534  0.00  0.00    +0.000 A 
ATOM      2  N   UNL     1      48.307   6.256  14.796  0.00  0.00    +0.000 NA
ATOM      3  N   UNL     1      47.359   5.306  14.883  0.00  0.00    +0.000 N 
ATOM      4  C   UNL     1      46.619   5.159  13.734  0.00  0.00    +0.000 A 
ATOM      5  C   UNL     1      45.502   4.370  13.427  0.00  0.00    +0.000 A 
ATOM      6  C   UNL     1      45.020   4.411  12.115  0.00  0.00    +0.000 A 
ATOM      7  C   UNL     1      45.629   5.209  11.141  0.00  0.00    +0.000 A 
ATOM      8  C   UNL     1      46.728   6.018  11.478  0.00  0.00    +0.000 A 
ATOM      9  C   UNL     1      47.220   6.007  12.802  0.00  0.00    +0.000 A 
ENDROOT
BRANCH   7  10
ATOM     10  C   UNL     1      45.098   5.135   9.751  0.00  0.00    +0.000 C 
ATOM     11  N   UNL     1      43.771   4.847   9.588  0.00  0.00    +0.000 N 
ATOM     12  O   UNL     1      45.823   5.298   8.778  0.00  0.00    +0.000 OA
ATOM     13  H   UNL     1      43.189   4.483  10.327  0.00  0.00    +0.000 HD
ATOM     14  H   UNL     1      43.457   4.716   8.634  0.00  0.00    +0.000 HD
ENDBRANCH   7  10
BRANCH   1  16
ATOM     15  C   UNL     1      48.334   9.122  12.761  0.00  0.00    +0.000 C 
ATOM     16  C   UNL     1      49.144   7.841  13.076  0.00  0.00    +0.000 C 
ATOM     17  C   UNL     1      49.890   7.447  11.784  0.00  0.00    +0.000 C 
ATOM     18  C   UNL     1      50.170   8.196  14.167  0.00  0.00    +0.000 C 
ENDBRANCH   1  16
BRANCH   3  19
ATOM     19  C   UNL     1      47.146   4.643  16.164  0.00  0.00    +0.000 C 
BRANCH  19  20
ATOM     20  C   UNL     1      48.274   3.733  16.571  0.00  0.00    +0.000 A 
ATOM     21  C   UNL     1      49.264   4.154  17.467  0.00  0.00    +0.000 A 
ATOM     22  C   UNL     1      50.369   3.347  17.718  0.00  0.00    +0.000 A 
ATOM     23  C   UNL     1      50.451   2.132  17.065  0.00  0.00    +0.000 A 
ATOM     24  N   UNL     1      49.506   1.673  16.219  0.00  0.00    +0.000 NA
ATOM     25  C   UNL     1      48.440   2.477  15.992  0.00  0.00    +0.000 A 
ENDBRANCH  19  20
ENDBRANCH   3  19
TORSDOF 4
ENDMDL
MODEL 3
REMARK VINA RESULT:    -6.507      2.948      6.729
REMARK INTER + INTRA:          -8.586
REMARK INTER:                  -7.955
REMARK INTRA:                  -0.630
REMARK UNBOUND:                -0.557
REMARK  Name = 
REMARK  7 active torsions:
REMARK  status: ('A' for Active; 'I' for Inactive)
REMARK    1  A    between atoms: C_1  and  C_2
REMARK    2  A    between atoms: C_2  and  C_3
REMARK    3  A    between atoms: C_2  and  C_4
REMARK    4  A    between atoms: C_2  and  C_5
REMARK    5  A    between atoms: N_7  and  C_8
REMARK    6  A    between atoms: C_8  and  C_9
REMARK    7  A    between atoms: C_18  and  C_19
REMARK                            x       y       z     vdW  Elec       q    Type
REMARK                         _______ _______ _______ _____ _____    ______ ____
ROOT
ATOM      1  C   UNL     1      44.828   4.846  12.340  0.00  0.00    +0.000 A 
ATOM      2  N   UNL     1      45.599   3.992  13.027  0.00  0.00    +0.000 NA
ATOM      3  N   UNL     1      46.544   4.758  13.600  0.00  0.00    +0.000 N 
ATOM      4  C   UNL     1      46.461   6.085  13.256  0.00  0.00    +0.000 A 
ATOM      5  C   UNL     1      47.279   7.187  13.544  0.00  0.00    +0.000 A 
ATOM      6  C   UNL     1      46.866   8.440  13.081  0.00  0.00    +0.000 A 
ATOM      7  C   UNL     1      45.680   8.593  12.356  0.00  0.00    +0.000 A 
ATOM      8  C   UNL     1      44.891   7.471  12.049  0.00  0.00    +0.000 A 
ATOM      9  C   UNL     1      45.298   6.192  12.490  0.00  0.00    +0.000 A 
ENDROOT
BRANCH   7  10
ATOM     10  C   UNL     1      45.277   9.973  11.967  0.00  0.00    +0.000 C 
ATOM     11  N   UNL     1      43.968  10.330  12.142  0.00  0.00    +0.000 N 
ATOM     12  O   UNL     1      46.077  10.761  11.479  0.00  0.00    +0.000 OA
ATOM     13  H   UNL     1      43.232   9.664  12.319  0.00  0.00    +0.000 HD
ATOM     14  H   UNL     1      43.704  11.242  11.788  0.00  0.00    +0.000 HD
ENDBRANCH   7  10
BRANCH   1  16
ATOM     15  C   UNL     1      43.968   4.400   9.990  0.00  0.00    +0.000 C 
ATOM     16  C   UNL     1      43.664   4.322  11.505  0.00  0.00    +0.000 C 
ATOM     17  C   UNL     1      42.398   5.169  11.758  0.00  0.00    +0.000 C 
ATOM     18  C   UNL     1      43.366   2.850  11.845  0.00  0.00    +0.000 C 
ENDBRANCH   1  16
BRANCH   3  19
ATOM     19  C   UNL     1      47.582   4.112  14.396  0.00  0.00    +0.000 C 
BRANCH  19  20
ATOM     20  C   UNL     1      47.619   4.569  15.830  0.00  0.00    +0.000 A 
ATOM     21  C   UNL     1      48.535   5.534  16.265  0.00  0.00    +0.000 A 
ATOM     22  C   UNL     1      48.642   5.837  17.619  0.00  0.00    +0.000 A 
ATOM     23  C   UNL     1      47.823   5.163  18.505  0.00  0.00    +0.000 A 
ATOM     24  N   UNL     1      46.905   4.249  18.126  0.00  0.00    +0.000 NA
ATOM     25  C   UNL     1      46.820   3.974  16.804  0.00  0.00    +0.000 A 
ENDBRANCH  19  20
ENDBRANCH   3  19
TORSDOF 4
ENDMDL
MODEL 4
REMARK VINA RESULT:    -6.506      3.010      5.292
REMARK INTER + INTRA:          -8.585
REMARK INTER:                  -7.822
REMARK INTRA:                  -0.762
REMARK UNBOUND:                -0.557
REMARK  Name = 
REMARK  7 active torsions:
REMARK  status: ('A' for Active; 'I' for Inactive)
REMARK    1  A    between atoms: C_1  and  C_2
REMARK    2  A    between atoms: C_2  and  C_3
REMARK    3  A    between atoms: C_2  and  C_4
REMARK    4  A    between atoms: C_2  and  C_5
REMARK    5  A    between atoms: N_7  and  C_8
REMARK    6  A    between atoms: C_8  and  C_9
REMARK    7  A    between atoms: C_18  and  C_19
REMARK                            x       y       z     vdW  Elec       q    Type
REMARK                         _______ _______ _______ _____ _____    ______ ____
ROOT
ATOM      1  C   UNL     1      47.613   4.537  15.692  0.00  0.00    +0.000 A 
ATOM      2  N   UNL     1      46.962   3.603  14.985  0.00  0.00    +0.000 NA
ATOM      3  N   UNL     1      46.765   4.155  13.774  0.00  0.00    +0.000 N 
ATOM      4  C   UNL     1      47.208   5.453  13.682  0.00  0.00    +0.000 A 
ATOM      5  C   UNL     1      47.121   6.408  12.660  0.00  0.00    +0.000 A 
ATOM      6  C   UNL     1      47.745   7.642  12.870  0.00  0.00    +0.000 A 
ATOM      7  C   UNL     1      48.433   7.916  14.056  0.00  0.00    +0.000 A 
ATOM      8  C   UNL     1      48.480   6.957  15.082  0.00  0.00    +0.000 A 
ATOM      9  C   UNL     1      47.841   5.711  14.900  0.00  0.00    +0.000 A 
ENDROOT
BRANCH   7  10
ATOM     10  C   UNL     1      49.132   9.226  14.166  0.00  0.00    +0.000 C 
ATOM     11  N   UNL     1      48.367  10.360  14.189  0.00  0.00    +0.000 N 
ATOM     12  O   UNL     1      50.354   9.300  14.209  0.00  0.00    +0.000 OA
ATOM     13  H   UNL     1      47.393  10.374  13.930  0.00  0.00    +0.000 HD
ATOM     14  H   UNL     1      48.871  11.238  14.175  0.00  0.00    +0.000 HD
ENDBRANCH   7  10
BRANCH   1  16
ATOM     15  C   UNL     1      47.216   5.253  18.098  0.00  0.00    +0.000 C 
ATOM     16  C   UNL     1      47.965   4.281  17.154  0.00  0.00    +0.000 C 
ATOM     17  C   UNL     1      49.475   4.494  17.389  0.00  0.00    +0.000 C 
ATOM     18  C   UNL     1      47.583   2.848  17.565  0.00  0.00    +0.000 C 
ENDBRANCH   1  16
BRANCH   3  19
ATOM     19  C   UNL     1      46.032   3.396  12.768  0.00  0.00    +0.000 C 
BRANCH  19  20
ATOM     20  C   UNL     1      44.737   4.040  12.348  0.00  0.00    +0.000 A 
ATOM     21  C   UNL     1      44.518   4.439  11.023  0.00  0.00    +0.000 A 
ATOM     22  C   UNL     1      43.373   5.156  10.689  0.00  0.00    +0.000 A 
ATOM     23  C   UNL     1      42.473   5.452  11.695  0.00  0.00    +0.000 A 
ATOM     24  N   UNL     1      42.629   5.061  12.977  0.00  0.00    +0.000 NA
ATOM     25  C   UNL     1      43.750   4.364  13.275  0.00  0.00    +0.000 A 
ENDBRANCH  19  20
ENDBRANCH   3  19
TORSDOF 4
ENDMDL
MODEL 5
REMARK VINA RESULT:    -6.415      1.537      1.909
REMARK INTER + INTRA:          -8.472
REMARK INTER:                  -7.856
REMARK INTRA:                  -0.615
REMARK UNBOUND:                -0.557
REMARK  Name = 
REMARK  7 active torsions:
REMARK  status: ('A' for Active; 'I' for Inactive)
REMARK    1  A    between atoms: C_1  and  C_2
REMARK    2  A    between atoms: C_2  and  C_3
REMARK    3  A    between atoms: C_2  and  C_4
REMARK    4  A    between atoms: C_2  and  C_5
REMARK    5  A    between atoms: N_7  and  C_8
REMARK    6  A    between atoms: C_8  and  C_9
REMARK    7  A    between atoms: C_18  and  C_19
REMARK                            x       y       z     vdW  Elec       q    Type
REMARK                         _______ _______ _______ _____ _____    ______ ____
ROOT
ATOM      1  C   UNL     1      47.711   7.474  12.530  0.00  0.00    +0.000 A 
ATOM      2  N   UNL     1      46.716   7.380  11.638  0.00  0.00    +0.000 NA
ATOM      3  N   UNL     1      45.955   6.358  12.070  0.00  0.00    +0.000 N 
ATOM      4  C   UNL     1      46.457   5.731  13.184  0.00  0.00    +0.000 A 
ATOM      5  C   UNL     1      46.043   4.594  13.893  0.00  0.00    +0.000 A 
ATOM      6  C   UNL     1      46.756   4.254  15.046  0.00  0.00    +0.000 A 
ATOM      7  C   UNL     1      47.843   5.018  15.481  0.00  0.00    +0.000 A 
ATOM      8  C   UNL     1      48.263   6.135  14.738  0.00  0.00    +0.000 A 
ATOM      9  C   UNL     1      47.569   6.487  13.560  0.00  0.00    +0.000 A 
ENDROOT
BRANCH   7  10
ATOM     10  C   UNL     1      48.499   4.628  16.761  0.00  0.00    +0.000 C 
ATOM     11  N   UNL     1      47.694   4.308  17.820  0.00  0.00    +0.000 N 
ATOM     12  O   UNL     1      49.717   4.616  16.880  0.00  0.00    +0.000 OA
ATOM     13  H   UNL     1      46.708   4.518  17.848  0.00  0.00    +0.000 HD
ATOM     14  H   UNL     1      48.164   4.133  18.700  0.00  0.00    +0.000 HD
ENDBRANCH   7  10
BRANCH   1  16
ATOM     15  C   UNL     1      49.417   8.963  13.686  0.00  0.00    +0.000 C 
ATOM     16  C   UNL     1      48.817   8.506  12.334  0.00  0.00    +0.000 C 
ATOM     17  C   UNL     1      48.259   9.766  11.637  0.00  0.00    +0.000 C 
ATOM     18  C   UNL     1      49.965   7.924  11.489  0.00  0.00    +0.000 C 
ENDBRANCH   1  16
BRANCH   3  19
ATOM     19  C   UNL     1      44.794   5.966  11.280  0.00  0.00    +0.000 C 
BRANCH  19  20
ATOM     20  C   UNL     1      45.067   4.839  10.319  0.00  0.00    +0.000 A 
ATOM     21  C   UNL     1      45.684   5.069   9.083  0.00  0.00    +0.000 A 
ATOM     22  C   UNL     1      45.799   4.037   8.157  0.00  0.00    +0.000 A 
ATOM     23  C   UNL     1      45.293   2.796   8.496  0.00  0.00    +0.000 A 
ATOM     24  N   UNL     1      44.719   2.523   9.686  0.00  0.00    +0.000 NA
ATOM     25  C   UNL     1      44.621   3.544  10.570  0.00  0.00    +0.000 A 
ENDBRANCH  19  20
ENDBRANCH   3  19
TORSDOF 4
ENDMDL
MODEL 6
REMARK VINA RESULT:    -6.255      2.768      4.225
REMARK INTER + INTRA:          -8.274
REMARK INTER:                  -7.464
REMARK INTRA:                  -0.810
REMARK UNBOUND:                -0.557
REMARK  Name = 
REMARK  7 active torsions:
REMARK  status: ('A' for Active; 'I' for Inactive)
REMARK    1  A    between atoms: C_1  and  C_2
REMARK    2  A    between atoms: C_2  and  C_3
REMARK    3  A    between atoms: C_2  and  C_4
REMARK    4  A    between atoms: C_2  and  C_5
REMARK    5  A    between atoms: N_7  and  C_8
REMARK    6  A    between atoms: C_8  and  C_9
REMARK    7  A    between atoms: C_18  and  C_19
REMARK                            x       y       z     vdW  Elec       q    Type
REMARK                         _______ _______ _______ _____ _____    ______ ____
ROOT
ATOM      1  C   UNL     1      48.247   6.356  14.633  0.00  0.00    +0.000 A 
ATOM      2  N   UNL     1      47.623   5.731  13.626  0.00  0.00    +0.000 NA
ATOM      3  N   UNL     1      47.123   4.606  14.168  0.00  0.00    +0.000 N 
ATOM      4  C   UNL     1      47.458   4.436  15.490  0.00  0.00    +0.000 A 
ATOM      5  C   UNL     1      47.232   3.387  16.392  0.00  0.00    +0.000 A 
ATOM      6  C   UNL     1      47.660   3.564  17.712  0.00  0.00    +0.000 A 
ATOM      7  C   UNL     1      48.291   4.743  18.120  0.00  0.00    +0.000 A 
ATOM      8  C   UNL     1      48.538   5.769  17.192  0.00  0.00    +0.000 A 
ATOM      9  C   UNL     1      48.131   5.605  15.850  0.00  0.00    +0.000 A 
ENDROOT
BRANCH   7  10
ATOM     10  C   UNL     1      48.646   4.877  19.561  0.00  0.00    +0.000 C 
ATOM     11  N   UNL     1      48.539   3.767  20.352  0.00  0.00    +0.000 N 
ATOM     12  O   UNL     1      48.998   5.949  20.037  0.00  0.00    +0.000 OA
ATOM     13  H   UNL     1      48.046   2.934  20.071  0.00  0.00    +0.000 HD
ATOM     14  H   UNL     1      48.702   3.908  21.342  0.00  0.00    +0.000 HD
ENDBRANCH   7  10
BRANCH   1  16
ATOM     15  C   UNL     1      48.361   8.840  15.162  0.00  0.00    +0.000 C 
ATOM     16  C   UNL     1      48.990   7.663  14.378  0.00  0.00    +0.000 C 
ATOM     17  C   UNL     1      48.928   8.032  12.880  0.00  0.00    +0.000 C 
ATOM     18  C   UNL     1      50.463   7.549  14.812  0.00  0.00    +0.000 C 
ENDBRANCH   1  16
BRANCH   3  19
ATOM     19  C   UNL     1      46.411   3.669  13.308  0.00  0.00    +0.000 C 
BRANCH  19  20
ATOM     20  C   UNL     1      45.212   4.267  12.621  0.00  0.00    +0.000 A 
ATOM     21  C   UNL     1      44.103   4.718  13.348  0.00  0.00    +0.000 A 
ATOM     22  C   UNL     1      42.955   5.137  12.685  0.00  0.00    +0.000 A 
ATOM     23  C   UNL     1      42.948   5.096  11.303  0.00  0.00    +0.000 A 
ATOM     24  N   UNL     1      44.004   4.700  10.562  0.00  0.00    +0.000 NA
ATOM     25  C   UNL     1      45.109   4.298  11.232  0.00  0.00    +0.000 A 
ENDBRANCH  19  20
ENDBRANCH   3  19
TORSDOF 4
ENDMDL
MODEL 7
REMARK VINA RESULT:    -6.166      3.361      6.593
REMARK INTER + INTRA:          -8.164
REMARK INTER:                  -7.693
REMARK INTRA:                  -0.472
REMARK UNBOUND:                -0.557
REMARK  Name = 
REMARK  7 active torsions:
REMARK  status: ('A' for Active; 'I' for Inactive)
REMARK    1  A    between atoms: C_1  and  C_2
REMARK    2  A    between atoms: C_2  and  C_3
REMARK    3  A    between atoms: C_2  and  C_4
REMARK    4  A    between atoms: C_2  and  C_5
REMARK    5  A    between atoms: N_7  and  C_8
REMARK    6  A    between atoms: C_8  and  C_9
REMARK    7  A    between atoms: C_18  and  C_19
REMARK                            x       y       z     vdW  Elec       q    Type
REMARK                         _______ _______ _______ _____ _____    ______ ____
ROOT
ATOM      1  C   UNL     1      46.191   5.040  13.546  0.00  0.00    +0.000 A 
ATOM      2  N   UNL     1      46.101   4.456  14.749  0.00  0.00    +0.000 NA
ATOM      3  N   UNL     1      47.115   4.975  15.466  0.00  0.00    +0.000 N 
ATOM      4  C   UNL     1      47.913   5.833  14.750  0.00  0.00    +0.000 A 
ATOM      5  C   UNL     1      49.100   6.507  15.072  0.00  0.00    +0.000 A 
ATOM      6  C   UNL     1      49.634   7.374  14.113  0.00  0.00    +0.000 A 
ATOM      7  C   UNL     1      49.009   7.565  12.877  0.00  0.00    +0.000 A 
ATOM      8  C   UNL     1      47.838   6.856  12.561  0.00  0.00    +0.000 A 
ATOM      9  C   UNL     1      47.291   5.960  13.506  0.00  0.00    +0.000 A 
ENDROOT
BRANCH   7  10
ATOM     10  C   UNL     1      49.604   8.563  11.945  0.00  0.00    +0.000 C 
ATOM     11  N   UNL     1      48.935   9.741  11.757  0.00  0.00    +0.000 N 
ATOM     12  O   UNL     1      50.645   8.336  11.342  0.00  0.00    +0.000 OA
ATOM     13  H   UNL     1      47.978   9.885  12.042  0.00  0.00    +0.000 HD
ATOM     14  H   UNL     1      49.315  10.363  11.053  0.00  0.00    +0.000 HD
ENDBRANCH   7  10
BRANCH   1  16
ATOM     15  C   UNL     1      45.553   5.381  11.110  0.00  0.00    +0.000 C 
ATOM     16  C   UNL     1      45.222   4.652  12.434  0.00  0.00    +0.000 C 
ATOM     17  C   UNL     1      43.779   5.042  12.819  0.00  0.00    +0.000 C 
ATOM     18  C   UNL     1      45.283   3.139  12.159  0.00  0.00    +0.000 C 
ENDBRANCH   1  16
BRANCH   3  19
ATOM     19  C   UNL     1      47.321   4.504  16.830  0.00  0.00    +0.000 C 
BRANCH  19  20
ATOM     20  C   UNL     1      48.506   3.588  16.982  0.00  0.00    +0.000 A 
ATOM     21  C   UNL     1      49.616   3.953  17.754  0.00  0.00    +0.000 A 
ATOM     22  C   UNL     1      50.754   3.152  17.766  0.00  0.00    +0.000 A 
ATOM     23  C   UNL     1      50.748   1.999  17.004  0.00  0.00    +0.000 A 
ATOM     24  N   UNL     1      49.691   1.594  16.271  0.00  0.00    +0.000 NA
ATOM     25  C   UNL     1      48.596   2.390  16.277  0.00  0.00    +0.000 A 
ENDBRANCH  19  20
ENDBRANCH   3  19
TORSDOF 4
ENDMDL
MODEL 8
REMARK VINA RESULT:    -6.055      2.432      5.188
REMARK INTER + INTRA:          -8.028
REMARK INTER:                  -7.215
REMARK INTRA:                  -0.812
REMARK UNBOUND:                -0.557
REMARK  Name = 
REMARK  7 active torsions:
REMARK  status: ('A' for Active; 'I' for Inactive)
REMARK    1  A    between atoms: C_1  and  C_2
REMARK    2  A    between atoms: C_2  and  C_3
REMARK    3  A    between atoms: C_2  and  C_4
REMARK    4  A    between atoms: C_2  and  C_5
REMARK    5  A    between atoms: N_7  and  C_8
REMARK    6  A    between atoms: C_8  and  C_9
REMARK    7  A    between atoms: C_18  and  C_19
REMARK                            x       y       z     vdW  Elec       q    Type
REMARK                         _______ _______ _______ _____ _____    ______ ____
ROOT
ATOM      1  C   UNL     1      45.639   5.524  12.498  0.00  0.00    +0.000 A 
ATOM      2  N   UNL     1      45.907   6.718  11.953  0.00  0.00    +0.000 NA
ATOM      3  N   UNL     1      46.895   7.233  12.707  0.00  0.00    +0.000 N 
ATOM      4  C   UNL     1      47.241   6.442  13.776  0.00  0.00    +0.000 A 
ATOM      5  C   UNL     1      48.133   6.633  14.841  0.00  0.00    +0.000 A 
ATOM      6  C   UNL     1      48.298   5.579  15.745  0.00  0.00    +0.000 A 
ATOM      7  C   UNL     1      47.601   4.376  15.596  0.00  0.00    +0.000 A 
ATOM      8  C   UNL     1      46.686   4.217  14.541  0.00  0.00    +0.000 A 
ATOM      9  C   UNL     1      46.489   5.275  13.626  0.00  0.00    +0.000 A 
ENDROOT
BRANCH   7  10
ATOM     10  C   UNL     1      47.894   3.279  16.560  0.00  0.00    +0.000 C 
ATOM     11  N   UNL     1      46.954   2.999  17.515  0.00  0.00    +0.000 N 
ATOM     12  O   UNL     1      48.949   2.660  16.526  0.00  0.00    +0.000 OA
ATOM     13  H   UNL     1      46.185   3.615  17.731  0.00  0.00    +0.000 HD
ATOM     14  H   UNL     1      47.217   2.311  18.209  0.00  0.00    +0.000 HD
ENDBRANCH   7  10
BRANCH   1  16
ATOM     15  C   UNL     1      43.920   5.276  10.642  0.00  0.00    +0.000 C 
ATOM     16  C   UNL     1      44.517   4.660  11.931  0.00  0.00    +0.000 C 
ATOM     17  C   UNL     1      43.365   4.538  12.951  0.00  0.00    +0.000 C 
ATOM     18  C   UNL     1      45.034   3.254  11.578  0.00  0.00    +0.000 C 
ENDBRANCH   1  16
BRANCH   3  19
ATOM     19  C   UNL     1      47.393   8.567  12.396  0.00  0.00    +0.000 C 
BRANCH  19  20
ATOM     20  C   UNL     1      48.872   8.613  12.118  0.00  0.00    +0.000 A 
ATOM     21  C   UNL     1      49.481   7.694  11.255  0.00  0.00    +0.000 A 
ATOM     22  C   UNL     1      50.865   7.669  11.123  0.00  0.00    +0.000 A 
ATOM     23  C   UNL     1      51.607   8.573  11.860  0.00  0.00    +0.000 A 
ATOM     24  N   UNL     1      51.061   9.496  12.679  0.00  0.00    +0.000 NA
ATOM     25  C   UNL     1      49.712   9.499  12.788  0.00  0.00    +0.000 A 
ENDBRANCH  19  20
ENDBRANCH   3  19
TORSDOF 4
ENDMDL
MODEL 9
REMARK VINA RESULT:    -5.868      2.926      6.259
REMARK INTER + INTRA:          -7.796
REMARK INTER:                  -7.117
REMARK INTRA:                  -0.680
REMARK UNBOUND:                -0.557
REMARK  Name = 
REMARK  7 active torsions:
REMARK  status: ('A' for Active; 'I' for Inactive)
REMARK    1  A    between atoms: C_1  and  C_2
REMARK    2  A    between atoms: C_2  and  C_3
REMARK    3  A    between atoms: C_2  and  C_4
REMARK    4  A    between atoms: C_2  and  C_5
REMARK    5  A    between atoms: N_7  and  C_8
REMARK    6  A    between atoms: C_8  and  C_9
REMARK    7  A    between atoms: C_18  and  C_19
REMARK                            x       y       z     vdW  Elec       q    Type
REMARK                         _______ _______ _______ _____ _____    ______ ____
ROOT
ATOM      1  C   UNL     1      47.959   5.466  15.479  0.00  0.00    +0.000 A 
ATOM      2  N   UNL     1      48.534   6.674  15.400  0.00  0.00    +0.000 NA
ATOM      3  N   UNL     1      48.098   7.193  14.238  0.00  0.00    +0.000 N 
ATOM      4  C   UNL     1      47.306   6.335  13.515  0.00  0.00    +0.000 A 
ATOM      5  C   UNL     1      46.729   6.433  12.240  0.00  0.00    +0.000 A 
ATOM      6  C   UNL     1      45.907   5.384  11.819  0.00  0.00    +0.000 A 
ATOM      7  C   UNL     1      45.665   4.275  12.636  0.00  0.00    +0.000 A 
ATOM      8  C   UNL     1      46.280   4.181  13.896  0.00  0.00    +0.000 A 
ATOM      9  C   UNL     1      47.129   5.220  14.336  0.00  0.00    +0.000 A 
ENDROOT
BRANCH   7  10
ATOM     10  C   UNL     1      44.717   3.239  12.139  0.00  0.00    +0.000 C 
ATOM     11  N   UNL     1      44.922   2.733  10.885  0.00  0.00    +0.000 N 
ATOM     12  O   UNL     1      43.766   2.865  12.812  0.00  0.00    +0.000 OA
ATOM     13  H   UNL     1      45.539   3.160  10.211  0.00  0.00    +0.000 HD
ATOM     14  H   UNL     1      44.214   2.097  10.540  0.00  0.00    +0.000 HD
ENDBRANCH   7  10
BRANCH   1  16
ATOM     15  C   UNL     1      48.277   3.060  16.234  0.00  0.00    +0.000 C 
ATOM     16  C   UNL     1      48.268   4.549  16.658  0.00  0.00    +0.000 C 
ATOM     17  C   UNL     1      47.193   4.702  17.755  0.00  0.00    +0.000 C 
ATOM     18  C   UNL     1      49.651   4.871  17.253  0.00  0.00    +0.000 C 
ENDBRANCH   1  16
BRANCH   3  19
ATOM     19  C   UNL     1      48.585   8.506  13.830  0.00  0.00    +0.000 C 
BRANCH  19  20
ATOM     20  C   UNL     1      49.870   8.459  13.046  0.00  0.00    +0.000 A 
ATOM     21  C   UNL     1      49.888   8.083  11.697  0.00  0.00    +0.000 A 
ATOM     22  C   UNL     1      51.099   7.913  11.035  0.00  0.00    +0.000 A 
ATOM     23  C   UNL     1      52.266   8.130  11.744  0.00  0.00    +0.000 A 
ATOM     24  N   UNL     1      52.295   8.523  13.034  0.00  0.00    +0.000 NA
ATOM     25  C   UNL     1      51.102   8.682  13.655  0.00  0.00    +0.000 A 
ENDBRANCH  19  20
ENDBRANCH   3  19
TORSDOF 4
ENDMDL
