MODEL 1
REMARK VINA RESULT:    -8.554      0.000      0.000
REMARK INTER + INTRA:         -11.560
REMARK INTER:                 -11.054
REMARK INTRA:                  -0.506
REMARK UNBOUND:                -0.506
REMARK  Name = 
REMARK  8 active torsions:
REMARK  status: ('A' for Active; 'I' for Inactive)
REMARK    1  A    between atoms: C_1  and  C_2
REMARK    2  A    between atoms: C_12  and  C_13
REMARK    3  A    between atoms: C_13  and  C_14
REMARK    4  A    between atoms: C_13  and  C_15
REMARK    5  A    between atoms: C_13  and  C_16
REMARK    6  A    between atoms: C_16  and  N_17
REMARK    7  A    between atoms: N_17  and  C_18
REMARK    8  A    between atoms: C_21  and  C_22
REMARK                            x       y       z     vdW  Elec       q    Type
REMARK                         _______ _______ _______ _____ _____    ______ ____
ROOT
ATOM      1  C   UNL     1      44.469   4.697  12.404  0.00  0.00    +0.000 C 
ATOM      2  C   UNL     1      44.597   3.160  12.470  0.00  0.00    +0.000 C 
ATOM      3  C   UNL     1      43.281   5.165  13.270  0.00  0.00    +0.000 C 
ENDROOT
BRANCH   1  15
ATOM      4  C   UNL     1      49.968   5.477  17.111  0.00  0.00    +0.000 C 
ATOM      5  C   UNL     1      48.476   5.700  16.853  0.00  0.00    +0.000 C 
ATOM      6  C   UNL     1      47.646   5.364  18.114  0.00  0.00    +0.000 C 
ATOM      7  O   UNL     1      47.660   3.958  18.410  0.00  0.00    +0.000 OA
ATOM      8  C   UNL     1      47.082   3.221  17.321  0.00  0.00    +0.000 C 
ATOM      9  C   UNL     1      47.850   3.431  16.013  0.00  0.00    +0.000 C 
ATOM     10  N   UNL     1      48.043   4.854  15.725  0.00  0.00    +0.000 N 
ATOM     11  C   UNL     1      47.437   5.406  14.612  0.00  0.00    +0.000 A 
ATOM     12  C   UNL     1      48.049   6.482  13.975  0.00  0.00    +0.000 A 
ATOM     13  C   UNL     1      47.530   6.968  12.782  0.00  0.00    +0.000 A 
ATOM     14  C   UNL     1      46.381   6.392  12.264  0.00  0.00    +0.000 A 
ATOM     15  C   UNL     1      45.772   5.339  12.949  0.00  0.00    +0.000 A 
ATOM     16  N   UNL     1      46.309   4.845  14.099  0.00  0.00    +0.000 NA
ENDBRANCH   1  15
BRANCH   1  17
ATOM     17  C   UNL     1      44.228   5.112  10.921  0.00  0.00    +0.000 C 
BRANCH  17  18
ATOM     18  N   UNL     1      43.777   4.010  10.042  0.00  0.00    +0.000 N 
ATOM     19  H   UNL     1      42.880   4.189   9.593  0.00  0.00    +0.000 HD
BRANCH  18  20
ATOM     20  C   UNL     1      44.723   3.554   9.104  0.00  0.00    +0.000 A 
ATOM     21  C   UNL     1      45.421   4.384   8.240  0.00  0.00    +0.000 A 
ATOM     22  N   UNL     1      46.362   3.981   7.358  0.00  0.00    +0.000 NA
ATOM     23  C   UNL     1      46.642   2.660   7.383  0.00  0.00    +0.000 A 
ATOM     24  N   UNL     1      46.080   1.750   8.200  0.00  0.00    +0.000 NA
ATOM     25  C   UNL     1      45.148   2.232   9.057  0.00  0.00    +0.000 A 
BRANCH  23  26
ATOM     26  C   UNL     1      47.687   2.194   6.397  0.00  0.00    +0.000 C 
ATOM     27  N   UNL     1      47.880   3.019   5.308  0.00  0.00    +0.000 N 
ATOM     28  O   UNL     1      48.340   1.165   6.518  0.00  0.00    +0.000 OA
ATOM     29  H   UNL     1      47.354   3.877   5.222  0.00  0.00    +0.000 HD
ATOM     30  H   UNL     1      48.580   2.765   4.628  0.00  0.00    +0.000 HD
ENDBRANCH  23  26
ENDBRANCH  18  20
ENDBRANCH  17  18
ENDBRANCH   1  17
TORSDOF 5
ENDMDL
MODEL 2
REMARK VINA RESULT:    -8.121      2.678      3.738
REMARK INTER + INTRA:         -11.001
REMARK INTER:                  -9.976
REMARK INTRA:                  -1.025
REMARK UNBOUND:                -0.506
REMARK  Name = 
REMARK  8 active torsions:
REMARK  status: ('A' for Active; 'I' for Inactive)
REMARK    1  A    between atoms: C_1  and  C_2
REMARK    2  A    between atoms: C_12  and  C_13
REMARK    3  A    between atoms: C_13  and  C_14
REMARK    4  A    between atoms: C_13  and  C_15
REMARK    5  A    between atoms: C_13  and  C_16
REMARK    6  A    between atoms: C_16  and  N_17
REMARK    7  A    between atoms: N_17  and  C_18
REMARK    8  A    between atoms: C_21  and  C_22
REMARK                            x       y       z     vdW  Elec       q    Type
REMARK                         _______ _______ _______ _____ _____    ______ ____
ROOT
ATOM      1  C   UNL     1      43.628   4.515  12.107  0.00  0.00    +0.000 C 
ATOM      2  C   UNL     1      43.363   3.004  12.279  0.00  0.00    +0.000 C 
ATOM      3  C   UNL     1      42.580   5.327  12.895  0.00  0.00    +0.000 C 
ENDROOT
BRANCH   1  15
ATOM      4  C   UNL     1      49.176   8.914  13.804  0.00  0.00    +0.000 C 
ATOM      5  C   UNL     1      48.401   8.224  12.679  0.00  0.00    +0.000 C 
ATOM      6  C   UNL     1      48.212   9.179  11.478  0.00  0.00    +0.000 C 
ATOM      7  O   UNL     1      47.323  10.264  11.788  0.00  0.00    +0.000 OA
ATOM      8  C   UNL     1      46.022   9.754  12.125  0.00  0.00    +0.000 C 
ATOM      9  C   UNL     1      46.068   8.826  13.342  0.00  0.00    +0.000 C 
ATOM     10  N   UNL     1      47.087   7.786  13.187  0.00  0.00    +0.000 N 
ATOM     11  C   UNL     1      46.694   6.463  13.102  0.00  0.00    +0.000 A 
ATOM     12  C   UNL     1      47.554   5.473  13.571  0.00  0.00    +0.000 A 
ATOM     13  C   UNL     1      47.129   4.151  13.617  0.00  0.00    +0.000 A 
ATOM     14  C   UNL     1      45.862   3.835  13.156  0.00  0.00    +0.000 A 
ATOM     15  C   UNL     1      45.040   4.848  12.656  0.00  0.00    +0.000 A 
ATOM     16  N   UNL     1      45.451   6.147  12.649  0.00  0.00    +0.000 NA
ENDBRANCH   1  15
BRANCH   1  17
ATOM     17  C   UNL     1      43.530   4.866  10.592  0.00  0.00    +0.000 C 
BRANCH  17  18
ATOM     18  N   UNL     1      44.793   5.353   9.993  0.00  0.00    +0.000 N 
ATOM     19  H   UNL     1      45.434   5.760  10.672  0.00  0.00    +0.000 HD
BRANCH  18  20
ATOM     20  C   UNL     1      45.463   4.437   9.160  0.00  0.00    +0.000 A 
ATOM     21  C   UNL     1      45.285   3.063   9.215  0.00  0.00    +0.000 A 
ATOM     22  N   UNL     1      45.882   2.164   8.403  0.00  0.00    +0.000 NA
ATOM     23  C   UNL     1      46.679   2.693   7.450  0.00  0.00    +0.000 A 
ATOM     24  N   UNL     1      46.905   4.005   7.249  0.00  0.00    +0.000 NA
ATOM     25  C   UNL     1      46.268   4.843   8.102  0.00  0.00    +0.000 A 
BRANCH  23  26
ATOM     26  C   UNL     1      47.361   1.699   6.539  0.00  0.00    +0.000 C 
ATOM     27  N   UNL     1      48.316   2.230   5.696  0.00  0.00    +0.000 N 
ATOM     28  O   UNL     1      47.116   0.500   6.520  0.00  0.00    +0.000 OA
ATOM     29  H   UNL     1      48.529   3.217   5.730  0.00  0.00    +0.000 HD
ATOM     30  H   UNL     1      48.815   1.607   5.080  0.00  0.00    +0.000 HD
ENDBRANCH  23  26
ENDBRANCH  18  20
ENDBRANCH  17  18
ENDBRANCH   1  17
TORSDOF 5
ENDMDL
MODEL 3
REMARK VINA RESULT:    -7.397      1.943      2.686
REMARK INTER + INTRA:         -10.064
REMARK INTER:                  -9.387
REMARK INTRA:                  -0.677
REMARK UNBOUND:                -0.506
REMARK  Name = 
REMARK  8 active torsions:
REMARK  status: ('A' for Active; 'I' for Inactive)
REMARK    1  A    between atoms: C_1  and  C_2
REMARK    2  A    between atoms: C_12  and  C_13
REMARK    3  A    between atoms: C_13  and  C_14
REMARK    4  A    between atoms: C_13  and  C_15
REMARK    5  A    between atoms: C_13  and  C_16
REMARK    6  A    between atoms: C_16  and  N_17
REMARK    7  A    between atoms: N_17  and  C_18
REMARK    8  A    between atoms: C_21  and  C_22
REMARK                            x       y       z     vdW  Elec       q    Type
REMARK                         _______ _______ _______ _____ _____    ______ ____
ROOT
ATOM      1  C   UNL     1      43.696   5.248  12.291  0.00  0.00    +0.000 C 
ATOM      2  C   UNL     1      43.614   4.807  13.768  0.00  0.00    +0.000 C 
ATOM      3  C   UNL     1      42.278   5.496  11.735  0.00  0.00    +0.000 C 
ENDROOT
BRANCH   1  15
ATOM      4  C   UNL     1      49.276   9.673  13.804  0.00  0.00    +0.000 C 
ATOM      5  C   UNL     1      47.988   9.030  14.324  0.00  0.00    +0.000 C 
ATOM      6  C   UNL     1      48.161   8.562  15.788  0.00  0.00    +0.000 C 
ATOM      7  O   UNL     1      49.074   7.458  15.895  0.00  0.00    +0.000 OA
ATOM      8  C   UNL     1      48.575   6.333  15.153  0.00  0.00    +0.000 C 
ATOM      9  C   UNL     1      48.406   6.656  13.666  0.00  0.00    +0.000 C 
ATOM     10  N   UNL     1      47.633   7.883  13.466  0.00  0.00    +0.000 N 
ATOM     11  C   UNL     1      46.399   7.811  12.847  0.00  0.00    +0.000 A 
ATOM     12  C   UNL     1      45.951   8.902  12.107  0.00  0.00    +0.000 A 
ATOM     13  C   UNL     1      44.779   8.805  11.369  0.00  0.00    +0.000 A 
ATOM     14  C   UNL     1      44.050   7.627  11.416  0.00  0.00    +0.000 A 
ATOM     15  C   UNL     1      44.509   6.566  12.199  0.00  0.00    +0.000 A 
ATOM     16  N   UNL     1      45.679   6.658  12.890  0.00  0.00    +0.000 NA
ENDBRANCH   1  15
BRANCH   1  17
ATOM     17  C   UNL     1      44.387   4.116  11.472  0.00  0.00    +0.000 C 
BRANCH  17  18
ATOM     18  N   UNL     1      43.837   3.920  10.112  0.00  0.00    +0.000 N 
ATOM     19  H   UNL     1      43.292   4.714   9.776  0.00  0.00    +0.000 HD
BRANCH  18  20
ATOM     20  C   UNL     1      44.760   3.500   9.137  0.00  0.00    +0.000 A 
ATOM     21  C   UNL     1      45.383   4.353   8.238  0.00  0.00    +0.000 A 
ATOM     22  N   UNL     1      46.303   3.985   7.320  0.00  0.00    +0.000 NA
ATOM     23  C   UNL     1      46.642   2.678   7.340  0.00  0.00    +0.000 A 
ATOM     24  N   UNL     1      46.157   1.750   8.186  0.00  0.00    +0.000 NA
ATOM     25  C   UNL     1      45.242   2.197   9.080  0.00  0.00    +0.000 A 
BRANCH  23  26
ATOM     26  C   UNL     1      47.664   2.250   6.313  0.00  0.00    +0.000 C 
ATOM     27  N   UNL     1      47.790   3.088   5.223  0.00  0.00    +0.000 N 
ATOM     28  O   UNL     1      48.353   1.243   6.403  0.00  0.00    +0.000 OA
ATOM     29  H   UNL     1      47.234   3.929   5.163  0.00  0.00    +0.000 HD
ATOM     30  H   UNL     1      48.472   2.860   4.516  0.00  0.00    +0.000 HD
ENDBRANCH  23  26
ENDBRANCH  18  20
ENDBRANCH  17  18
ENDBRANCH   1  17
TORSDOF 5
ENDMDL
MODEL 4
REMARK VINA RESULT:    -7.250      3.339      7.753
REMARK INTER + INTRA:          -9.874
REMARK INTER:                  -8.849
REMARK INTRA:                  -1.025
REMARK UNBOUND:                -0.506
REMARK  Name = 
REMARK  8 active torsions:
REMARK  status: ('A' for Active; 'I' for Inactive)
REMARK    1  A    between atoms: C_1  and  C_2
REMARK    2  A    between atoms: C_12  and  C_13
REMARK    3  A    between atoms: C_13  and  C_14
REMARK    4  A    between atoms: C_13  and  C_15
REMARK    5  A    between atoms: C_13  and  C_16
REMARK    6  A    between atoms: C_16  and  N_17
REMARK    7  A    between atoms: N_17  and  C_18
REMARK    8  A    between atoms: C_21  and  C_22
REMARK                            x       y       z     vdW  Elec       q    Type
REMARK                         _______ _______ _______ _____ _____    ______ ____
ROOT
ATOM      1  C   UNL     1      48.703   8.847  12.588  0.00  0.00    +0.000 C 
ATOM      2  C   UNL     1      49.417   7.671  11.888  0.00  0.00    +0.000 C 
ATOM      3  C   UNL     1      49.263  10.187  12.070  0.00  0.00    +0.000 C 
ENDROOT
BRANCH   1  15
ATOM      4  C   UNL     1      42.276   5.526  11.767  0.00  0.00    +0.000 C 
ATOM      5  C   UNL     1      43.670   5.758  11.178  0.00  0.00    +0.000 C 
ATOM      6  C   UNL     1      44.249   4.443  10.608  0.00  0.00    +0.000 C 
ATOM      7  O   UNL     1      44.550   3.493  11.643  0.00  0.00    +0.000 OA
ATOM      8  C   UNL     1      45.539   4.034  12.534  0.00  0.00    +0.000 C 
ATOM      9  C   UNL     1      45.062   5.323  13.208  0.00  0.00    +0.000 C 
ATOM     10  N   UNL     1      44.561   6.289  12.227  0.00  0.00    +0.000 N 
ATOM     11  C   UNL     1      45.232   7.485  12.054  0.00  0.00    +0.000 A 
ATOM     12  C   UNL     1      44.513   8.611  11.661  0.00  0.00    +0.000 A 
ATOM     13  C   UNL     1      45.138   9.850  11.608  0.00  0.00    +0.000 A 
ATOM     14  C   UNL     1      46.486   9.936  11.914  0.00  0.00    +0.000 A 
ATOM     15  C   UNL     1      47.186   8.780  12.269  0.00  0.00    +0.000 A 
ATOM     16  N   UNL     1      46.556   7.576  12.353  0.00  0.00    +0.000 NA
ENDBRANCH   1  15
BRANCH   1  17
ATOM     17  C   UNL     1      48.949   8.735  14.122  0.00  0.00    +0.000 C 
BRANCH  17  18
ATOM     18  N   UNL     1      49.855   7.634  14.519  0.00  0.00    +0.000 N 
ATOM     19  H   UNL     1      50.740   7.957  14.908  0.00  0.00    +0.000 HD
BRANCH  18  20
ATOM     20  C   UNL     1      49.283   6.640  15.334  0.00  0.00    +0.000 A 
ATOM     21  C   UNL     1      48.233   5.823  14.942  0.00  0.00    +0.000 A 
ATOM     22  N   UNL     1      47.691   4.834  15.686  0.00  0.00    +0.000 NA
ATOM     23  C   UNL     1      48.276   4.635  16.887  0.00  0.00    +0.000 A 
ATOM     24  N   UNL     1      49.329   5.317  17.374  0.00  0.00    +0.000 NA
ATOM     25  C   UNL     1      49.818   6.290  16.568  0.00  0.00    +0.000 A 
BRANCH  23  26
ATOM     26  C   UNL     1      47.675   3.537  17.734  0.00  0.00    +0.000 C 
ATOM     27  N   UNL     1      48.347   3.265  18.908  0.00  0.00    +0.000 N 
ATOM     28  O   UNL     1      46.666   2.912  17.438  0.00  0.00    +0.000 OA
ATOM     29  H   UNL     1      49.168   3.798  19.158  0.00  0.00    +0.000 HD
ATOM     30  H   UNL     1      47.978   2.554  19.521  0.00  0.00    +0.000 HD
ENDBRANCH  23  26
ENDBRANCH  18  20
ENDBRANCH  17  18
ENDBRANCH   1  17
TORSDOF 5
ENDMDL
MODEL 5
REMARK VINA RESULT:    -6.923      2.958      4.716
REMARK INTER + INTRA:          -9.452
REMARK INTER:                  -8.365
REMARK INTRA:                  -1.087
REMARK UNBOUND:                -0.506
REMARK  Name = 
REMARK  8 active torsions:
REMARK  status: ('A' for Active; 'I' for Inactive)
REMARK    1  A    between atoms: C_1  and  C_2
REMARK    2  A    between atoms: C_12  and  C_13
REMARK    3  A    between atoms: C_13  and  C_14
REMARK    4  A    between atoms: C_13  and  C_15
REMARK    5  A    between atoms: C_13  and  C_16
REMARK    6  A    between atoms: C_16  and  N_17
REMARK    7  A    between atoms: N_17  and  C_18
REMARK    8  A    between atoms: C_21  and  C_22
REMARK                            x       y       z     vdW  Elec       q    Type
REMARK                         _______ _______ _______ _____ _____    ______ ____
ROOT
ATOM      1  C   UNL     1      48.633   8.355  12.836  0.00  0.00    +0.000 C 
ATOM      2  C   UNL     1      49.304   9.496  12.042  0.00  0.00    +0.000 C 
ATOM      3  C   UNL     1      49.335   7.016  12.531  0.00  0.00    +0.000 C 
ENDROOT
BRANCH   1  15
ATOM      4  C   UNL     1      49.021   6.601  19.891  0.00  0.00    +0.000 C 
ATOM      5  C   UNL     1      48.119   6.720  18.660  0.00  0.00    +0.000 C 
ATOM      6  C   UNL     1      47.150   5.519  18.573  0.00  0.00    +0.000 C 
ATOM      7  O   UNL     1      47.838   4.292  18.282  0.00  0.00    +0.000 OA
ATOM      8  C   UNL     1      48.500   4.388  17.011  0.00  0.00    +0.000 C 
ATOM      9  C   UNL     1      49.532   5.520  16.985  0.00  0.00    +0.000 C 
ATOM     10  N   UNL     1      48.955   6.784  17.446  0.00  0.00    +0.000 N 
ATOM     11  C   UNL     1      48.847   7.840  16.561  0.00  0.00    +0.000 A 
ATOM     12  C   UNL     1      48.915   9.141  17.052  0.00  0.00    +0.000 A 
ATOM     13  C   UNL     1      48.941  10.214  16.170  0.00  0.00    +0.000 A 
ATOM     14  C   UNL     1      48.859   9.969  14.809  0.00  0.00    +0.000 A 
ATOM     15  C   UNL     1      48.754   8.653  14.353  0.00  0.00    +0.000 A 
ATOM     16  N   UNL     1      48.767   7.605  15.223  0.00  0.00    +0.000 NA
ENDBRANCH   1  15
BRANCH   1  17
ATOM     17  C   UNL     1      47.136   8.268  12.410  0.00  0.00    +0.000 C 
BRANCH  17  18
ATOM     18  N   UNL     1      46.273   7.523  13.354  0.00  0.00    +0.000 N 
ATOM     19  H   UNL     1      45.589   8.111  13.829  0.00  0.00    +0.000 HD
BRANCH  18  20
ATOM     20  C   UNL     1      45.663   6.365  12.837  0.00  0.00    +0.000 A 
ATOM     21  C   UNL     1      45.047   6.300  11.596  0.00  0.00    +0.000 A 
ATOM     22  N   UNL     1      44.490   5.195  11.056  0.00  0.00    +0.000 NA
ATOM     23  C   UNL     1      44.597   4.075  11.804  0.00  0.00    +0.000 A 
ATOM     24  N   UNL     1      45.209   3.981  13.000  0.00  0.00    +0.000 NA
ATOM     25  C   UNL     1      45.746   5.132  13.472  0.00  0.00    +0.000 A 
BRANCH  23  26
ATOM     26  C   UNL     1      43.971   2.832  11.217  0.00  0.00    +0.000 C 
ATOM     27  N   UNL     1      44.546   2.379  10.047  0.00  0.00    +0.000 N 
ATOM     28  O   UNL     1      43.024   2.237  11.712  0.00  0.00    +0.000 OA
ATOM     29  H   UNL     1      45.341   2.862   9.652  0.00  0.00    +0.000 HD
ATOM     30  H   UNL     1      44.179   1.542   9.622  0.00  0.00    +0.000 HD
ENDBRANCH  23  26
ENDBRANCH  18  20
ENDBRANCH  17  18
ENDBRANCH   1  17
TORSDOF 5
ENDMDL
MODEL 6
REMARK VINA RESULT:    -6.850      3.079      5.705
REMARK INTER + INTRA:          -9.358
REMARK INTER:                  -8.426
REMARK INTRA:                  -0.932
REMARK UNBOUND:                -0.506
REMARK  Name = 
REMARK  8 active torsions:
REMARK  status: ('A' for Active; 'I' for Inactive)
REMARK    1  A    between atoms: C_1  and  C_2
REMARK    2  A    between atoms: C_12  and  C_13
REMARK    3  A    between atoms: C_13  and  C_14
REMARK    4  A    between atoms: C_13  and  C_15
REMARK    5  A    between atoms: C_13  and  C_16
REMARK    6  A    between atoms: C_16  and  N_17
REMARK    7  A    between atoms: N_17  and  C_18
REMARK    8  A    between atoms: C_21  and  C_22
REMARK                            x       y       z     vdW  Elec       q    Type
REMARK                         _______ _______ _______ _____ _____    ______ ____
ROOT
ATOM      1  C   UNL     1      48.337   4.464  17.015  0.00  0.00    +0.000 C 
ATOM      2  C   UNL     1      48.997   3.225  17.658  0.00  0.00    +0.000 C 
ATOM      3  C   UNL     1      47.401   5.150  18.031  0.00  0.00    +0.000 C 
ENDROOT
BRANCH   1  15
ATOM      4  C   UNL     1      51.223   9.788  12.973  0.00  0.00    +0.000 C 
ATOM      5  C   UNL     1      50.830   8.309  13.033  0.00  0.00    +0.000 C 
ATOM      6  C   UNL     1      50.180   7.861  11.703  0.00  0.00    +0.000 C 
ATOM      7  O   UNL     1      48.896   8.472  11.499  0.00  0.00    +0.000 OA
ATOM      8  C   UNL     1      47.996   8.091  12.553  0.00  0.00    +0.000 C 
ATOM      9  C   UNL     1      48.507   8.527  13.929  0.00  0.00    +0.000 C 
ATOM     10  N   UNL     1      49.890   8.098  14.150  0.00  0.00    +0.000 N 
ATOM     11  C   UNL     1      50.161   7.177  15.146  0.00  0.00    +0.000 A 
ATOM     12  C   UNL     1      51.397   7.220  15.785  0.00  0.00    +0.000 A 
ATOM     13  C   UNL     1      51.643   6.393  16.874  0.00  0.00    +0.000 A 
ATOM     14  C   UNL     1      50.658   5.509  17.282  0.00  0.00    +0.000 A 
ATOM     15  C   UNL     1      49.443   5.466  16.594  0.00  0.00    +0.000 A 
ATOM     16  N   UNL     1      49.198   6.306  15.551  0.00  0.00    +0.000 NA
ENDBRANCH   1  15
BRANCH   1  17
ATOM     17  C   UNL     1      47.514   4.000  15.776  0.00  0.00    +0.000 C 
BRANCH  17  18
ATOM     18  N   UNL     1      46.767   5.083  15.097  0.00  0.00    +0.000 N 
ATOM     19  H   UNL     1      47.305   5.942  14.988  0.00  0.00    +0.000 HD
BRANCH  18  20
ATOM     20  C   UNL     1      46.146   4.727  13.885  0.00  0.00    +0.000 A 
ATOM     21  C   UNL     1      46.204   3.458  13.327  0.00  0.00    +0.000 A 
ATOM     22  N   UNL     1      45.585   3.076  12.188  0.00  0.00    +0.000 NA
ATOM     23  C   UNL     1      44.829   4.027  11.600  0.00  0.00    +0.000 A 
ATOM     24  N   UNL     1      44.643   5.280  12.055  0.00  0.00    +0.000 NA
ATOM     25  C   UNL     1      45.293   5.587  13.203  0.00  0.00    +0.000 A 
BRANCH  23  26
ATOM     26  C   UNL     1      44.138   3.617  10.321  0.00  0.00    +0.000 C 
ATOM     27  N   UNL     1      43.782   4.654   9.484  0.00  0.00    +0.000 N 
ATOM     28  O   UNL     1      43.894   2.458  10.009  0.00  0.00    +0.000 OA
ATOM     29  H   UNL     1      44.003   5.608   9.736  0.00  0.00    +0.000 HD
ATOM     30  H   UNL     1      43.335   4.436   8.607  0.00  0.00    +0.000 HD
ENDBRANCH  23  26
ENDBRANCH  18  20
ENDBRANCH  17  18
ENDBRANCH   1  17
TORSDOF 5
ENDMDL
MODEL 7
REMARK VINA RESULT:    -5.762      4.836      7.261
REMARK INTER + INTRA:          -7.952
REMARK INTER:                  -7.066
REMARK INTRA:                  -0.886
REMARK UNBOUND:                -0.506
REMARK  Name = 
REMARK  8 active torsions:
REMARK  status: ('A' for Active; 'I' for Inactive)
REMARK    1  A    between atoms: C_1  and  C_2
REMARK    2  A    between atoms: C_12  and  C_13
REMARK    3  A    between atoms: C_13  and  C_14
REMARK    4  A    between atoms: C_13  and  C_15
REMARK    5  A    between atoms: C_13  and  C_16
REMARK    6  A    between atoms: C_16  and  N_17
REMARK    7  A    between atoms: N_17  and  C_18
REMARK    8  A    between atoms: C_21  and  C_22
REMARK                            x       y       z     vdW  Elec       q    Type
REMARK                         _______ _______ _______ _____ _____    ______ ____
ROOT
ATOM      1  C   UNL     1      49.452   8.464  14.553  0.00  0.00    +0.000 C 
ATOM      2  C   UNL     1      50.742   7.720  14.959  0.00  0.00    +0.000 C 
ATOM      3  C   UNL     1      49.069   9.488  15.641  0.00  0.00    +0.000 C 
ENDROOT
BRANCH   1  15
ATOM      4  C   UNL     1      52.853   9.769   8.249  0.00  0.00    +0.000 C 
ATOM      5  C   UNL     1      52.924   9.869   9.775  0.00  0.00    +0.000 C 
ATOM      6  C   UNL     1      54.336   9.496  10.283  0.00  0.00    +0.000 C 
ATOM      7  O   UNL     1      54.626   8.102  10.093  0.00  0.00    +0.000 OA
ATOM      8  C   UNL     1      53.690   7.299  10.831  0.00  0.00    +0.000 C 
ATOM      9  C   UNL     1      52.246   7.542  10.382  0.00  0.00    +0.000 C 
ATOM     10  N   UNL     1      51.919   8.969  10.371  0.00  0.00    +0.000 N 
ATOM     11  C   UNL     1      50.961   9.448  11.246  0.00  0.00    +0.000 A 
ATOM     12  C   UNL     1      50.203  10.556  10.875  0.00  0.00    +0.000 A 
ATOM     13  C   UNL     1      49.149  10.975  11.676  0.00  0.00    +0.000 A 
ATOM     14  C   UNL     1      48.895  10.300  12.859  0.00  0.00    +0.000 A 
ATOM     15  C   UNL     1      49.699   9.217  13.220  0.00  0.00    +0.000 A 
ATOM     16  N   UNL     1      50.707   8.790  12.409  0.00  0.00    +0.000 NA
ENDBRANCH   1  15
BRANCH   1  17
ATOM     17  C   UNL     1      48.306   7.421  14.393  0.00  0.00    +0.000 C 
BRANCH  17  18
ATOM     18  N   UNL     1      48.347   6.656  13.126  0.00  0.00    +0.000 N 
ATOM     19  H   UNL     1      49.188   6.090  13.020  0.00  0.00    +0.000 HD
BRANCH  18  20
ATOM     20  C   UNL     1      47.196   5.899  12.835  0.00  0.00    +0.000 A 
ATOM     21  C   UNL     1      46.359   6.144  11.756  0.00  0.00    +0.000 A 
ATOM     22  N   UNL     1      45.272   5.412  11.428  0.00  0.00    +0.000 NA
ATOM     23  C   UNL     1      45.043   4.341  12.219  0.00  0.00    +0.000 A 
ATOM     24  N   UNL     1      45.797   3.957  13.265  0.00  0.00    +0.000 NA
ATOM     25  C   UNL     1      46.871   4.740  13.529  0.00  0.00    +0.000 A 
BRANCH  23  26
ATOM     26  C   UNL     1      43.826   3.516  11.869  0.00  0.00    +0.000 C 
ATOM     27  N   UNL     1      43.753   2.283  12.483  0.00  0.00    +0.000 N 
ATOM     28  O   UNL     1      42.944   3.880  11.102  0.00  0.00    +0.000 OA
ATOM     29  H   UNL     1      44.473   1.996  13.131  0.00  0.00    +0.000 HD
ATOM     30  H   UNL     1      42.952   1.700  12.301  0.00  0.00    +0.000 HD
ENDBRANCH  23  26
ENDBRANCH  18  20
ENDBRANCH  17  18
ENDBRANCH   1  17
TORSDOF 5
ENDMDL
MODEL 8
REMARK VINA RESULT:    -5.699      5.403      8.422
REMARK INTER + INTRA:          -7.871
REMARK INTER:                  -6.666
REMARK INTRA:                  -1.205
REMARK UNBOUND:                -0.506
REMARK  Name = 
REMARK  8 active torsions:
REMARK  status: ('A' for Active; 'I' for Inactive)
REMARK    1  A    between atoms: C_1  and  C_2
REMARK    2  A    between atoms: C_12  and  C_13
REMARK    3  A    between atoms: C_13  and  C_14
REMARK    4  A    between atoms: C_13  and  C_15
REMARK    5  A    between atoms: C_13  and  C_16
REMARK    6  A    between atoms: C_16  and  N_17
REMARK    7  A    between atoms: N_17  and  C_18
REMARK    8  A    between atoms: C_21  and  C_22
REMARK                            x       y       z     vdW  Elec       q    Type
REMARK                         _______ _______ _______ _____ _____    ______ ____
ROOT
ATOM      1  C   UNL     1      48.950   9.483  18.523  0.00  0.00    +0.000 C 
ATOM      2  C   UNL     1      49.758  10.276  19.572  0.00  0.00    +0.000 C 
ATOM      3  C   UNL     1      47.649  10.237  18.179  0.00  0.00    +0.000 C 
ENDROOT
BRANCH   1  15
ATOM      4  C   UNL     1      50.003   8.321  11.413  0.00  0.00    +0.000 C 
ATOM      5  C   UNL     1      49.659   7.692  12.765  0.00  0.00    +0.000 C 
ATOM      6  C   UNL     1      48.528   6.649  12.612  0.00  0.00    +0.000 C 
ATOM      7  O   UNL     1      47.273   7.261  12.274  0.00  0.00    +0.000 OA
ATOM      8  C   UNL     1      46.869   8.164  13.316  0.00  0.00    +0.000 C 
ATOM      9  C   UNL     1      47.891   9.283  13.533  0.00  0.00    +0.000 C 
ATOM     10  N   UNL     1      49.244   8.750  13.705  0.00  0.00    +0.000 N 
ATOM     11  C   UNL     1      49.886   8.918  14.919  0.00  0.00    +0.000 A 
ATOM     12  C   UNL     1      51.275   9.012  14.939  0.00  0.00    +0.000 A 
ATOM     13  C   UNL     1      51.932   9.311  16.126  0.00  0.00    +0.000 A 
ATOM     14  C   UNL     1      51.189   9.473  17.283  0.00  0.00    +0.000 A 
ATOM     15  C   UNL     1      49.800   9.334  17.234  0.00  0.00    +0.000 A 
ATOM     16  N   UNL     1      49.162   9.077  16.059  0.00  0.00    +0.000 NA
ENDBRANCH   1  15
BRANCH   1  17
ATOM     17  C   UNL     1      48.602   8.085  19.117  0.00  0.00    +0.000 C 
BRANCH  17  18
ATOM     18  N   UNL     1      47.763   7.238  18.239  0.00  0.00    +0.000 N 
ATOM     19  H   UNL     1      47.421   7.724  17.411  0.00  0.00    +0.000 HD
BRANCH  18  20
ATOM     20  C   UNL     1      48.314   5.990  17.892  0.00  0.00    +0.000 A 
ATOM     21  C   UNL     1      49.588   5.821  17.371  0.00  0.00    +0.000 A 
ATOM     22  N   UNL     1      50.158   4.635  17.067  0.00  0.00    +0.000 NA
ATOM     23  C   UNL     1      49.404   3.549  17.345  0.00  0.00    +0.000 A 
ATOM     24  N   UNL     1      48.175   3.561  17.894  0.00  0.00    +0.000 NA
ATOM     25  C   UNL     1      47.674   4.788  18.173  0.00  0.00    +0.000 A 
BRANCH  23  26
ATOM     26  C   UNL     1      50.025   2.215  17.002  0.00  0.00    +0.000 C 
ATOM     27  N   UNL     1      50.929   1.731  17.926  0.00  0.00    +0.000 N 
ATOM     28  O   UNL     1      49.771   1.575  15.990  0.00  0.00    +0.000 OA
ATOM     29  H   UNL     1      51.121   2.254  18.770  0.00  0.00    +0.000 HD
ATOM     30  H   UNL     1      51.359   0.835  17.757  0.00  0.00    +0.000 HD
ENDBRANCH  23  26
ENDBRANCH  18  20
ENDBRANCH  17  18
ENDBRANCH   1  17
TORSDOF 5
ENDMDL
