MODEL 1
REMARK VINA RESULT:    -9.191      0.000      0.000
REMARK INTER + INTRA:         -12.556
REMARK INTER:                 -11.878
REMARK INTRA:                  -0.678
REMARK UNBOUND:                -0.678
REMARK  Name = 
REMARK  5 active torsions:
REMARK  status: ('A' for Active; 'I' for Inactive)
REMARK    1  A    between atoms: C_2  and  C_4
REMARK    2  A    between atoms: C_7  and  N_8
REMARK    3  A    between atoms: N_8  and  C_9
REMARK    4  A    between atoms: C_9  and  C_10
REMARK    5  A    between atoms: C_14  and  C_15
REMARK                            x       y       z     vdW  Elec       q    Type
REMARK                         _______ _______ _______ _____ _____    ______ ____
ROOT
ATOM      1  C   UNL     1      43.945   4.844  11.324  0.00  0.00    +0.000 C 
ATOM      2  C   UNL     1      43.230   3.794  12.158  0.00  0.00    +0.000 C 
ATOM      3  C   UNL     1      42.685   5.182  12.117  0.00  0.00    +0.000 C 
ENDROOT
BRANCH   1   4
ATOM      4  C   UNL     1      45.233   5.470  11.851  0.00  0.00    +0.000 A 
ATOM      5  C   UNL     1      45.799   6.595  11.229  0.00  0.00    +0.000 A 
ATOM      6  C   UNL     1      46.924   7.223  11.755  0.00  0.00    +0.000 A 
ATOM      7  C   UNL     1      47.508   6.736  12.925  0.00  0.00    +0.000 A 
ATOM      8  C   UNL     1      46.992   5.606  13.581  0.00  0.00    +0.000 A 
ATOM      9  C   UNL     1      45.873   4.977  13.005  0.00  0.00    +0.000 A 
BRANCH   8  10
ATOM     10  C   UNL     1      47.569   5.130  14.855  0.00  0.00    +0.000 A 
ATOM     11  C   UNL     1      47.197   3.901  15.418  0.00  0.00    +0.000 A 
ATOM     12  C   UNL     1      47.763   3.460  16.612  0.00  0.00    +0.000 A 
ATOM     13  C   UNL     1      48.710   4.264  17.223  0.00  0.00    +0.000 A 
ATOM     14  N   UNL     1      49.110   5.451  16.724  0.00  0.00    +0.000 NA
ATOM     15  C   UNL     1      48.534   5.851  15.563  0.00  0.00    +0.000 A 
ENDBRANCH   8  10
ENDBRANCH   1   4
BRANCH   1  16
ATOM     16  N   UNL     1      43.857   4.810   9.847  0.00  0.00    +0.000 N 
ATOM     17  H   UNL     1      42.920   4.697   9.477  0.00  0.00    +0.000 HD
BRANCH  16  21
ATOM     18  C   UNL     1      46.421   2.348   7.750  0.00  0.00    +0.000 A 
ATOM     19  C   UNL     1      46.417   3.713   7.524  0.00  0.00    +0.000 A 
ATOM     20  N   UNL     1      45.589   4.562   8.188  0.00  0.00    +0.000 NA
ATOM     21  C   UNL     1      44.767   4.013   9.112  0.00  0.00    +0.000 A 
ATOM     22  C   UNL     1      44.784   2.626   9.320  0.00  0.00    +0.000 A 
ATOM     23  N   UNL     1      45.599   1.759   8.662  0.00  0.00    +0.000 NA
BRANCH  18  25
ATOM     24  N   UNL     1      48.492   2.061   6.530  0.00  0.00    +0.000 N 
ATOM     25  C   UNL     1      47.342   1.470   6.975  0.00  0.00    +0.000 C 
ATOM     26  O   UNL     1      47.094   0.290   6.759  0.00  0.00    +0.000 OA
ATOM     27  H   UNL     1      49.171   1.511   6.024  0.00  0.00    +0.000 HD
ATOM     28  H   UNL     1      48.683   3.034   6.751  0.00  0.00    +0.000 HD
ENDBRANCH  18  25
ENDBRANCH  16  21
ENDBRANCH   1  16
TORSDOF 5
ENDMDL
MODEL 2
REMARK VINA RESULT:    -8.985      1.917      3.347
REMARK INTER + INTRA:         -12.290
REMARK INTER:                 -11.623
REMARK INTRA:                  -0.667
REMARK UNBOUND:                -0.678
REMARK  Name = 
REMARK  5 active torsions:
REMARK  status: ('A' for Active; 'I' for Inactive)
REMARK    1  A    between atoms: C_2  and  C_4
REMARK    2  A    between atoms: C_7  and  N_8
REMARK    3  A    between atoms: N_8  and  C_9
REMARK    4  A    between atoms: C_9  and  C_10
REMARK    5  A    between atoms: C_14  and  C_15
REMARK                            x       y       z     vdW  Elec       q    Type
REMARK                         _______ _______ _______ _____ _____    ______ ____
ROOT
ATOM      1  C   UNL     1      43.978   4.891  11.248  0.00  0.00    +0.000 C 
ATOM      2  C   UNL     1      43.025   3.822  11.754  0.00  0.00    +0.000 C 
ATOM      3  C   UNL     1      42.638   5.257  11.881  0.00  0.00    +0.000 C 
ENDROOT
BRANCH   1   4
ATOM      4  C   UNL     1      45.208   5.250  12.075  0.00  0.00    +0.000 A 
ATOM      5  C   UNL     1      45.679   4.392  13.082  0.00  0.00    +0.000 A 
ATOM      6  C   UNL     1      46.851   4.671  13.781  0.00  0.00    +0.000 A 
ATOM      7  C   UNL     1      47.581   5.822  13.481  0.00  0.00    +0.000 A 
ATOM      8  C   UNL     1      47.149   6.722  12.493  0.00  0.00    +0.000 A 
ATOM      9  C   UNL     1      45.945   6.426  11.828  0.00  0.00    +0.000 A 
BRANCH   8  10
ATOM     10  C   UNL     1      47.955   7.904  12.128  0.00  0.00    +0.000 A 
ATOM     11  C   UNL     1      49.295   7.788  11.728  0.00  0.00    +0.000 A 
ATOM     12  C   UNL     1      50.035   8.913  11.372  0.00  0.00    +0.000 A 
ATOM     13  C   UNL     1      49.411  10.147  11.415  0.00  0.00    +0.000 A 
ATOM     14  N   UNL     1      48.127  10.318  11.785  0.00  0.00    +0.000 NA
ATOM     15  C   UNL     1      47.437   9.203  12.130  0.00  0.00    +0.000 A 
ENDBRANCH   8  10
ENDBRANCH   1   4
BRANCH   1  16
ATOM     16  N   UNL     1      44.150   5.110   9.794  0.00  0.00    +0.000 N 
ATOM     17  H   UNL     1      43.290   5.274   9.281  0.00  0.00    +0.000 HD
BRANCH  16  21
ATOM     18  C   UNL     1      46.520   2.475   7.681  0.00  0.00    +0.000 A 
ATOM     19  C   UNL     1      46.645   3.840   7.489  0.00  0.00    +0.000 A 
ATOM     20  N   UNL     1      45.884   4.744   8.159  0.00  0.00    +0.000 NA
ATOM     21  C   UNL     1      44.998   4.251   9.055  0.00  0.00    +0.000 A 
ATOM     22  C   UNL     1      44.885   2.863   9.228  0.00  0.00    +0.000 A 
ATOM     23  N   UNL     1      45.631   1.942   8.563  0.00  0.00    +0.000 NA
BRANCH  18  25
ATOM     24  N   UNL     1      48.432   2.099   6.242  0.00  0.00    +0.000 N 
ATOM     25  C   UNL     1      47.373   1.535   6.899  0.00  0.00    +0.000 C 
ATOM     26  O   UNL     1      47.151   0.331   6.856  0.00  0.00    +0.000 OA
ATOM     27  H   UNL     1      49.065   1.511   5.720  0.00  0.00    +0.000 HD
ATOM     28  H   UNL     1      48.607   3.097   6.322  0.00  0.00    +0.000 HD
ENDBRANCH  18  25
ENDBRANCH  16  21
ENDBRANCH   1  16
TORSDOF 5
ENDMDL
MODEL 3
REMARK VINA RESULT:    -8.228      2.138      2.821
REMARK INTER + INTRA:         -11.311
REMARK INTER:                 -10.673
REMARK INTRA:                  -0.638
REMARK UNBOUND:                -0.678
REMARK  Name = 
REMARK  5 active torsions:
REMARK  status: ('A' for Active; 'I' for Inactive)
REMARK    1  A    between atoms: C_2  and  C_4
REMARK    2  A    between atoms: C_7  and  N_8
REMARK    3  A    between atoms: N_8  and  C_9
REMARK    4  A    between atoms: C_9  and  C_10
REMARK    5  A    between atoms: C_14  and  C_15
REMARK                            x       y       z     vdW  Elec       q    Type
REMARK                         _______ _______ _______ _____ _____    ______ ____
ROOT
ATOM      1  C   UNL     1      44.341   5.128  11.432  0.00  0.00    +0.000 C 
ATOM      2  C   UNL     1      44.695   4.039  12.430  0.00  0.00    +0.000 C 
ATOM      3  C   UNL     1      43.392   4.751  12.567  0.00  0.00    +0.000 C 
ENDROOT
BRANCH   1   4
ATOM      4  C   UNL     1      44.995   6.501  11.559  0.00  0.00    +0.000 A 
ATOM      5  C   UNL     1      44.238   7.677  11.438  0.00  0.00    +0.000 A 
ATOM      6  C   UNL     1      44.810   8.930  11.639  0.00  0.00    +0.000 A 
ATOM      7  C   UNL     1      46.162   9.031  11.970  0.00  0.00    +0.000 A 
ATOM      8  C   UNL     1      46.970   7.888  12.090  0.00  0.00    +0.000 A 
ATOM      9  C   UNL     1      46.367   6.640  11.850  0.00  0.00    +0.000 A 
BRANCH   8  10
ATOM     10  C   UNL     1      48.383   7.989  12.505  0.00  0.00    +0.000 A 
ATOM     11  C   UNL     1      49.418   8.137  11.570  0.00  0.00    +0.000 A 
ATOM     12  C   UNL     1      50.744   8.248  11.981  0.00  0.00    +0.000 A 
ATOM     13  C   UNL     1      51.013   8.217  13.338  0.00  0.00    +0.000 A 
ATOM     14  N   UNL     1      50.060   8.083  14.282  0.00  0.00    +0.000 NA
ATOM     15  C   UNL     1      48.780   7.973  13.846  0.00  0.00    +0.000 A 
ENDBRANCH   8  10
ENDBRANCH   1   4
BRANCH   1  16
ATOM     16  N   UNL     1      43.956   4.774  10.047  0.00  0.00    +0.000 N 
ATOM     17  H   UNL     1      43.025   4.384   9.949  0.00  0.00    +0.000 HD
BRANCH  16  21
ATOM     18  C   UNL     1      46.524   2.567   7.689  0.00  0.00    +0.000 A 
ATOM     19  C   UNL     1      46.523   3.949   7.622  0.00  0.00    +0.000 A 
ATOM     20  N   UNL     1      45.694   4.717   8.377  0.00  0.00    +0.000 NA
ATOM     21  C   UNL     1      44.868   4.067   9.228  0.00  0.00    +0.000 A 
ATOM     22  C   UNL     1      44.881   2.664   9.274  0.00  0.00    +0.000 A 
ATOM     23  N   UNL     1      45.697   1.878   8.523  0.00  0.00    +0.000 NA
BRANCH  18  25
ATOM     24  N   UNL     1      48.519   2.469   6.320  0.00  0.00    +0.000 N 
ATOM     25  C   UNL     1      47.447   1.783   6.821  0.00  0.00    +0.000 C 
ATOM     26  O   UNL     1      47.267   0.596   6.578  0.00  0.00    +0.000 OA
ATOM     27  H   UNL     1      49.197   1.986   5.749  0.00  0.00    +0.000 HD
ATOM     28  H   UNL     1      48.657   3.446   6.564  0.00  0.00    +0.000 HD
ENDBRANCH  18  25
ENDBRANCH  16  21
ENDBRANCH   1  16
TORSDOF 5
ENDMDL
MODEL 4
REMARK VINA RESULT:    -7.375      2.769      7.332
REMARK INTER + INTRA:         -10.209
REMARK INTER:                 -10.467
REMARK INTRA:                   0.258
REMARK UNBOUND:                -0.678
REMARK  Name = 
REMARK  5 active torsions:
REMARK  status: ('A' for Active; 'I' for Inactive)
REMARK    1  A    between atoms: C_2  and  C_4
REMARK    2  A    between atoms: C_7  and  N_8
REMARK    3  A    between atoms: N_8  and  C_9
REMARK    4  A    between atoms: C_9  and  C_10
REMARK    5  A    between atoms: C_14  and  C_15
REMARK                            x       y       z     vdW  Elec       q    Type
REMARK                         _______ _______ _______ _____ _____    ______ ____
ROOT
ATOM      1  C   UNL     1      46.334   7.243  12.174  0.00  0.00    +0.000 C 
ATOM      2  C   UNL     1      46.283   8.708  11.775  0.00  0.00    +0.000 C 
ATOM      3  C   UNL     1      45.624   8.279  13.042  0.00  0.00    +0.000 C 
ENDROOT
BRANCH   1   4
ATOM      4  C   UNL     1      45.419   6.244  11.473  0.00  0.00    +0.000 A 
ATOM      5  C   UNL     1      44.029   6.274  11.668  0.00  0.00    +0.000 A 
ATOM      6  C   UNL     1      43.180   5.423  10.965  0.00  0.00    +0.000 A 
ATOM      7  C   UNL     1      43.711   4.520  10.043  0.00  0.00    +0.000 A 
ATOM      8  C   UNL     1      45.096   4.437   9.818  0.00  0.00    +0.000 A 
ATOM      9  C   UNL     1      45.926   5.290  10.568  0.00  0.00    +0.000 A 
BRANCH   8  10
ATOM     10  C   UNL     1      45.652   3.530   8.795  0.00  0.00    +0.000 A 
ATOM     11  C   UNL     1      46.255   4.017   7.626  0.00  0.00    +0.000 A 
ATOM     12  C   UNL     1      46.789   3.147   6.679  0.00  0.00    +0.000 A 
ATOM     13  C   UNL     1      46.718   1.787   6.928  0.00  0.00    +0.000 A 
ATOM     14  N   UNL     1      46.158   1.262   8.035  0.00  0.00    +0.000 NA
ATOM     15  C   UNL     1      45.642   2.138   8.933  0.00  0.00    +0.000 A 
ENDBRANCH   8  10
ENDBRANCH   1   4
BRANCH   1  16
ATOM     16  N   UNL     1      47.594   6.650  12.677  0.00  0.00    +0.000 N 
ATOM     17  H   UNL     1      48.155   6.180  11.975  0.00  0.00    +0.000 HD
BRANCH  16  21
ATOM     18  C   UNL     1      47.484   4.318  16.078  0.00  0.00    +0.000 A 
ATOM     19  C   UNL     1      48.273   5.454  16.032  0.00  0.00    +0.000 A 
ATOM     20  N   UNL     1      48.343   6.250  14.933  0.00  0.00    +0.000 NA
ATOM     21  C   UNL     1      47.581   5.895  13.873  0.00  0.00    +0.000 A 
ATOM     22  C   UNL     1      46.794   4.735  13.941  0.00  0.00    +0.000 A 
ATOM     23  N   UNL     1      46.715   3.922  15.027  0.00  0.00    +0.000 NA
BRANCH  18  25
ATOM     24  N   UNL     1      48.585   3.547  18.092  0.00  0.00    +0.000 N 
ATOM     25  C   UNL     1      47.466   3.477  17.309  0.00  0.00    +0.000 C 
ATOM     26  O   UNL     1      46.508   2.777  17.609  0.00  0.00    +0.000 OA
ATOM     27  H   UNL     1      48.622   3.024  18.955  0.00  0.00    +0.000 HD
ATOM     28  H   UNL     1      49.352   4.160  17.832  0.00  0.00    +0.000 HD
ENDBRANCH  18  25
ENDBRANCH  16  21
ENDBRANCH   1  16
TORSDOF 5
ENDMDL
MODEL 5
REMARK VINA RESULT:    -7.023      2.958      7.560
REMARK INTER + INTRA:          -9.754
REMARK INTER:                  -9.607
REMARK INTRA:                  -0.147
REMARK UNBOUND:                -0.678
REMARK  Name = 
REMARK  5 active torsions:
REMARK  status: ('A' for Active; 'I' for Inactive)
REMARK    1  A    between atoms: C_2  and  C_4
REMARK    2  A    between atoms: C_7  and  N_8
REMARK    3  A    between atoms: N_8  and  C_9
REMARK    4  A    between atoms: C_9  and  C_10
REMARK    5  A    between atoms: C_14  and  C_15
REMARK                            x       y       z     vdW  Elec       q    Type
REMARK                         _______ _______ _______ _____ _____    ______ ____
ROOT
ATOM      1  C   UNL     1      48.723   7.748  12.765  0.00  0.00    +0.000 C 
ATOM      2  C   UNL     1      49.829   7.221  11.867  0.00  0.00    +0.000 C 
ATOM      3  C   UNL     1      49.532   8.683  11.870  0.00  0.00    +0.000 C 
ENDROOT
BRANCH   1   4
ATOM      4  C   UNL     1      47.267   7.552  12.355  0.00  0.00    +0.000 A 
ATOM      5  C   UNL     1      46.307   8.550  12.590  0.00  0.00    +0.000 A 
ATOM      6  C   UNL     1      44.996   8.414  12.140  0.00  0.00    +0.000 A 
ATOM      7  C   UNL     1      44.619   7.269  11.439  0.00  0.00    +0.000 A 
ATOM      8  C   UNL     1      45.533   6.232  11.188  0.00  0.00    +0.000 A 
ATOM      9  C   UNL     1      46.841   6.389  11.683  0.00  0.00    +0.000 A 
BRANCH   8  10
ATOM     10  C   UNL     1      45.152   5.051  10.389  0.00  0.00    +0.000 A 
ATOM     11  C   UNL     1      45.605   4.873   9.074  0.00  0.00    +0.000 A 
ATOM     12  C   UNL     1      45.248   3.744   8.340  0.00  0.00    +0.000 A 
ATOM     13  C   UNL     1      44.443   2.797   8.948  0.00  0.00    +0.000 A 
ATOM     14  N   UNL     1      43.983   2.911  10.210  0.00  0.00    +0.000 NA
ATOM     15  C   UNL     1      44.346   4.026  10.893  0.00  0.00    +0.000 A 
ENDBRANCH   8  10
ENDBRANCH   1   4
BRANCH   1  16
ATOM     16  N   UNL     1      48.926   7.829  14.230  0.00  0.00    +0.000 N 
ATOM     17  H   UNL     1      49.830   8.188  14.517  0.00  0.00    +0.000 HD
BRANCH  16  21
ATOM     18  C   UNL     1      47.882   4.734  16.751  0.00  0.00    +0.000 A 
ATOM     19  C   UNL     1      47.557   4.684  15.407  0.00  0.00    +0.000 A 
ATOM     20  N   UNL     1      47.877   5.681  14.540  0.00  0.00    +0.000 NA
ATOM     21  C   UNL     1      48.558   6.733  15.047  0.00  0.00    +0.000 A 
ATOM     22  C   UNL     1      48.871   6.765  16.414  0.00  0.00    +0.000 A 
ATOM     23  N   UNL     1      48.555   5.783  17.299  0.00  0.00    +0.000 NA
BRANCH  18  25
ATOM     24  N   UNL     1      48.200   3.506  18.813  0.00  0.00    +0.000 N 
ATOM     25  C   UNL     1      47.485   3.615  17.652  0.00  0.00    +0.000 C 
ATOM     26  O   UNL     1      46.570   2.849  17.381  0.00  0.00    +0.000 OA
ATOM     27  H   UNL     1      47.960   2.787  19.480  0.00  0.00    +0.000 HD
ATOM     28  H   UNL     1      48.934   4.176  19.024  0.00  0.00    +0.000 HD
ENDBRANCH  18  25
ENDBRANCH  16  21
ENDBRANCH   1  16
TORSDOF 5
ENDMDL
