MODEL 1
REMARK VINA RESULT:    -7.903      0.000      0.000
REMARK INTER + INTRA:         -11.672
REMARK INTER:                 -10.675
REMARK INTRA:                  -0.996
REMARK UNBOUND:                -0.996
REMARK  Name = 
REMARK  7 active torsions:
REMARK  status: ('A' for Active; 'I' for Inactive)
REMARK    1  A    between atoms: C_1  and  C_2
REMARK    2  A    between atoms: C_2  and  N_3
REMARK    3  A    between atoms: C_2  and  C_11
REMARK    4  A    between atoms: C_4  and  C_6
REMARK    5  A    between atoms: C_14  and  C_15
REMARK    6  A    between atoms: C_15  and  N_16
REMARK    7  A    between atoms: C_17  and  C_19
REMARK                            x       y       z     vdW  Elec       q    Type
REMARK                         _______ _______ _______ _____ _____    ______ ____
ROOT
ATOM      1  C   UNL     1      45.651   4.961  11.606  0.00  0.00    +0.000 A 
ATOM      2  C   UNL     1      46.090   6.235  11.212  0.00  0.00    +0.000 A 
ATOM      3  C   UNL     1      46.905   7.010  12.045  0.00  0.00    +0.000 A 
ATOM      4  C   UNL     1      47.301   6.531  13.298  0.00  0.00    +0.000 A 
ATOM      5  C   UNL     1      46.806   5.292  13.728  0.00  0.00    +0.000 A 
ATOM      6  C   UNL     1      45.995   4.512  12.890  0.00  0.00    +0.000 A 
ENDROOT
BRANCH   1   8
ATOM      7  C   UNL     1      43.546   4.756  10.216  0.00  0.00    +0.000 C 
ATOM      8  C   UNL     1      44.873   4.106  10.617  0.00  0.00    +0.000 C 
BRANCH   8   9
ATOM      9  N   UNL     1      45.665   3.787   9.443  0.00  0.00    +0.000 N 
ATOM     10  C   UNL     1      45.515   2.591   8.775  0.00  0.00    +0.000 C 
ATOM     11  O   UNL     1      44.750   1.709   9.152  0.00  0.00    +0.000 OA
ATOM     12  H   UNL     1      46.243   4.510   9.045  0.00  0.00    +0.000 HD
BRANCH  10  13
ATOM     13  C   UNL     1      46.327   2.435   7.596  0.00  0.00    +0.000 A 
ATOM     14  C   UNL     1      46.469   3.164   6.431  0.00  0.00    +0.000 A 
ATOM     15  C   UNL     1      47.448   2.481   5.684  0.00  0.00    +0.000 A 
ATOM     16  N   UNL     1      47.895   1.393   6.311  0.00  0.00    +0.000 NA
ATOM     17  N   UNL     1      47.198   1.384   7.461  0.00  0.00    +0.000 N 
ATOM     18  H   UNL     1      47.361   0.636   8.131  0.00  0.00    +0.000 HD
ENDBRANCH  10  13
ENDBRANCH   8   9
ENDBRANCH   1   8
BRANCH   4  19
ATOM     19  C   UNL     1      48.240   7.332  14.165  0.00  0.00    +0.000 C 
BRANCH  19  20
ATOM     20  N   UNL     1      48.062   7.039  15.564  0.00  0.00    +0.000 N 
ATOM     21  C   UNL     1      49.082   6.504  16.310  0.00  0.00    +0.000 C 
ATOM     22  O   UNL     1      50.194   6.294  15.834  0.00  0.00    +0.000 OA
ATOM     23  H   UNL     1      47.109   6.996  15.911  0.00  0.00    +0.000 HD
BRANCH  21  24
ATOM     24  C   UNL     1      48.797   6.252  17.729  0.00  0.00    +0.000 A 
ATOM     25  C   UNL     1      49.047   4.997  18.268  0.00  0.00    +0.000 A 
ATOM     26  S   UNL     1      48.703   4.886  19.935  0.00  0.00    +0.000 S 
ATOM     27  C   UNL     1      48.154   6.495  19.984  0.00  0.00    +0.000 A 
ATOM     28  N   UNL     1      47.679   7.037  21.138  0.00  0.00    +0.000 NA
ATOM     29  C   UNL     1      47.271   8.256  21.028  0.00  0.00    +0.000 A 
ATOM     30  N   UNL     1      47.301   8.986  19.866  0.00  0.00    +0.000 N 
ATOM     31  C   UNL     1      47.801   8.493  18.686  0.00  0.00    +0.000 A 
ATOM     32  O   UNL     1      47.857   9.189  17.677  0.00  0.00    +0.000 OA
ATOM     33  C   UNL     1      48.258   7.117  18.751  0.00  0.00    +0.000 A 
ATOM     34  H   UNL     1      46.978   9.941  19.849  0.00  0.00    +0.000 HD
ENDBRANCH  21  24
ENDBRANCH  19  20
ENDBRANCH   4  19
TORSDOF 6
ENDMDL
MODEL 2
REMARK VINA RESULT:    -7.800      5.391      9.850
REMARK INTER + INTRA:         -11.533
REMARK INTER:                 -10.691
REMARK INTRA:                  -0.842
REMARK UNBOUND:                -0.996
REMARK  Name = 
REMARK  7 active torsions:
REMARK  status: ('A' for Active; 'I' for Inactive)
REMARK    1  A    between atoms: C_1  and  C_2
REMARK    2  A    between atoms: C_2  and  N_3
REMARK    3  A    between atoms: C_2  and  C_11
REMARK    4  A    between atoms: C_4  and  C_6
REMARK    5  A    between atoms: C_14  and  C_15
REMARK    6  A    between atoms: C_15  and  N_16
REMARK    7  A    between atoms: C_17  and  C_19
REMARK                            x       y       z     vdW  Elec       q    Type
REMARK                         _______ _______ _______ _____ _____    ______ ____
ROOT
ATOM      1  C   UNL     1      51.429   3.020  17.701  0.00  0.00    +0.000 A 
ATOM      2  C   UNL     1      50.740   4.203  18.014  0.00  0.00    +0.000 A 
ATOM      3  C   UNL     1      49.369   4.331  17.761  0.00  0.00    +0.000 A 
ATOM      4  C   UNL     1      48.651   3.279  17.184  0.00  0.00    +0.000 A 
ATOM      5  C   UNL     1      49.347   2.124  16.801  0.00  0.00    +0.000 A 
ATOM      6  C   UNL     1      50.719   1.993  17.060  0.00  0.00    +0.000 A 
ENDROOT
BRANCH   1   8
ATOM      7  C   UNL     1      53.322   3.991  19.072  0.00  0.00    +0.000 C 
ATOM      8  C   UNL     1      52.887   2.882  18.109  0.00  0.00    +0.000 C 
BRANCH   8   9
ATOM      9  N   UNL     1      53.167   1.573  18.670  0.00  0.00    +0.000 N 
ATOM     10  C   UNL     1      53.905   0.635  17.982  0.00  0.00    +0.000 C 
ATOM     11  O   UNL     1      54.325   0.822  16.845  0.00  0.00    +0.000 OA
ATOM     12  H   UNL     1      52.918   1.402  19.632  0.00  0.00    +0.000 HD
BRANCH  10  13
ATOM     13  C   UNL     1      54.150  -0.597  18.685  0.00  0.00    +0.000 A 
ATOM     14  C   UNL     1      55.270  -1.159  19.267  0.00  0.00    +0.000 A 
ATOM     15  C   UNL     1      54.832  -2.381  19.811  0.00  0.00    +0.000 A 
ATOM     16  N   UNL     1      53.536  -2.597  19.590  0.00  0.00    +0.000 NA
ATOM     17  N   UNL     1      53.148  -1.508  18.903  0.00  0.00    +0.000 N 
ATOM     18  H   UNL     1      52.177  -1.430  18.610  0.00  0.00    +0.000 HD
ENDBRANCH  10  13
ENDBRANCH   8   9
ENDBRANCH   1   8
BRANCH   4  19
ATOM     19  C   UNL     1      47.160   3.387  16.980  0.00  0.00    +0.000 C 
BRANCH  19  20
ATOM     20  N   UNL     1      46.822   4.384  15.997  0.00  0.00    +0.000 N 
ATOM     21  C   UNL     1      46.926   4.116  14.654  0.00  0.00    +0.000 C 
ATOM     22  O   UNL     1      47.265   3.013  14.236  0.00  0.00    +0.000 OA
ATOM     23  H   UNL     1      46.759   5.346  16.314  0.00  0.00    +0.000 HD
BRANCH  21  24
ATOM     24  C   UNL     1      46.549   5.199  13.737  0.00  0.00    +0.000 A 
ATOM     25  C   UNL     1      47.429   6.251  13.516  0.00  0.00    +0.000 A 
ATOM     26  S   UNL     1      46.857   7.399  12.393  0.00  0.00    +0.000 S 
ATOM     27  C   UNL     1      45.388   6.562  12.203  0.00  0.00    +0.000 A 
ATOM     28  N   UNL     1      44.413   7.037  11.381  0.00  0.00    +0.000 NA
ATOM     29  C   UNL     1      43.342   6.319  11.352  0.00  0.00    +0.000 A 
ATOM     30  N   UNL     1      43.159   5.162  12.067  0.00  0.00    +0.000 N 
ATOM     31  C   UNL     1      44.125   4.627  12.884  0.00  0.00    +0.000 A 
ATOM     32  O   UNL     1      43.945   3.566  13.473  0.00  0.00    +0.000 OA
ATOM     33  C   UNL     1      45.346   5.408  12.966  0.00  0.00    +0.000 A 
ATOM     34  H   UNL     1      42.300   4.639  11.991  0.00  0.00    +0.000 HD
ENDBRANCH  21  24
ENDBRANCH  19  20
ENDBRANCH   4  19
TORSDOF 6
ENDMDL
MODEL 3
REMARK VINA RESULT:    -7.789      1.407      2.093
REMARK INTER + INTRA:         -11.518
REMARK INTER:                 -10.696
REMARK INTRA:                  -0.822
REMARK UNBOUND:                -0.996
REMARK  Name = 
REMARK  7 active torsions:
REMARK  status: ('A' for Active; 'I' for Inactive)
REMARK    1  A    between atoms: C_1  and  C_2
REMARK    2  A    between atoms: C_2  and  N_3
REMARK    3  A    between atoms: C_2  and  C_11
REMARK    4  A    between atoms: C_4  and  C_6
REMARK    5  A    between atoms: C_14  and  C_15
REMARK    6  A    between atoms: C_15  and  N_16
REMARK    7  A    between atoms: C_17  and  C_19
REMARK                            x       y       z     vdW  Elec       q    Type
REMARK                         _______ _______ _______ _____ _____    ______ ____
ROOT
ATOM      1  C   UNL     1      45.657   5.132  11.534  0.00  0.00    +0.000 A 
ATOM      2  C   UNL     1      46.017   6.395  11.038  0.00  0.00    +0.000 A 
ATOM      3  C   UNL     1      46.818   7.265  11.785  0.00  0.00    +0.000 A 
ATOM      4  C   UNL     1      47.279   6.895  13.053  0.00  0.00    +0.000 A 
ATOM      5  C   UNL     1      46.862   5.667  13.585  0.00  0.00    +0.000 A 
ATOM      6  C   UNL     1      46.064   4.792  12.833  0.00  0.00    +0.000 A 
ENDROOT
BRANCH   1   8
ATOM      7  C   UNL     1      43.511   4.720  10.255  0.00  0.00    +0.000 C 
ATOM      8  C   UNL     1      44.891   4.174  10.635  0.00  0.00    +0.000 C 
BRANCH   8   9
ATOM      9  N   UNL     1      45.652   3.826   9.448  0.00  0.00    +0.000 N 
ATOM     10  C   UNL     1      45.524   2.594   8.844  0.00  0.00    +0.000 C 
ATOM     11  O   UNL     1      44.809   1.704   9.292  0.00  0.00    +0.000 OA
ATOM     12  H   UNL     1      46.186   4.550   8.994  0.00  0.00    +0.000 HD
BRANCH  10  13
ATOM     13  C   UNL     1      46.298   2.410   7.644  0.00  0.00    +0.000 A 
ATOM     14  C   UNL     1      46.436   3.135   6.476  0.00  0.00    +0.000 A 
ATOM     15  C   UNL     1      47.369   2.418   5.703  0.00  0.00    +0.000 A 
ATOM     16  N   UNL     1      47.792   1.314   6.317  0.00  0.00    +0.000 NA
ATOM     17  N   UNL     1      47.126   1.328   7.485  0.00  0.00    +0.000 N 
ATOM     18  H   UNL     1      47.280   0.574   8.150  0.00  0.00    +0.000 HD
ENDBRANCH  10  13
ENDBRANCH   8   9
ENDBRANCH   1   8
BRANCH   4  19
ATOM     19  C   UNL     1      48.204   7.800  13.829  0.00  0.00    +0.000 C 
BRANCH  19  20
ATOM     20  N   UNL     1      48.064   7.620  15.252  0.00  0.00    +0.000 N 
ATOM     21  C   UNL     1      49.067   7.048  15.994  0.00  0.00    +0.000 C 
ATOM     22  O   UNL     1      50.133   6.706  15.491  0.00  0.00    +0.000 OA
ATOM     23  H   UNL     1      47.128   7.687  15.637  0.00  0.00    +0.000 HD
BRANCH  21  24
ATOM     24  C   UNL     1      48.825   6.919  17.437  0.00  0.00    +0.000 A 
ATOM     25  C   UNL     1      48.573   8.055  18.195  0.00  0.00    +0.000 A 
ATOM     26  S   UNL     1      48.271   7.727  19.841  0.00  0.00    +0.000 S 
ATOM     27  C   UNL     1      48.522   6.060  19.611  0.00  0.00    +0.000 A 
ATOM     28  N   UNL     1      48.440   5.189  20.654  0.00  0.00    +0.000 NA
ATOM     29  C   UNL     1      48.679   3.960  20.343  0.00  0.00    +0.000 A 
ATOM     30  N   UNL     1      48.987   3.521  19.081  0.00  0.00    +0.000 N 
ATOM     31  C   UNL     1      49.050   4.356  17.992  0.00  0.00    +0.000 A 
ATOM     32  O   UNL     1      49.282   3.922  16.868  0.00  0.00    +0.000 OA
ATOM     33  C   UNL     1      48.806   5.756  18.291  0.00  0.00    +0.000 A 
ATOM     34  H   UNL     1      49.152   2.542  18.902  0.00  0.00    +0.000 HD
ENDBRANCH  21  24
ENDBRANCH  19  20
ENDBRANCH   4  19
TORSDOF 6
ENDMDL
MODEL 4
REMARK VINA RESULT:    -7.600      2.521      3.690
REMARK INTER + INTRA:         -11.262
REMARK INTER:                 -10.292
REMARK INTRA:                  -0.971
REMARK UNBOUND:                -0.996
REMARK  Name = 
REMARK  7 active torsions:
REMARK  status: ('A' for Active; 'I' for Inactive)
REMARK    1  A    between atoms: C_1  and  C_2
REMARK    2  A    between atoms: C_2  and  N_3
REMARK    3  A    between atoms: C_2  and  C_11
REMARK    4  A    between atoms: C_4  and  C_6
REMARK    5  A    between atoms: C_14  and  C_15
REMARK    6  A    between atoms: C_15  and  N_16
REMARK    7  A    between atoms: C_17  and  C_19
REMARK                            x       y       z     vdW  Elec       q    Type
REMARK                         _______ _______ _______ _____ _____    ______ ____
ROOT
ATOM      1  C   UNL     1      45.815   4.969  12.038  0.00  0.00    +0.000 A 
ATOM      2  C   UNL     1      46.336   4.297  13.155  0.00  0.00    +0.000 A 
ATOM      3  C   UNL     1      47.085   4.974  14.123  0.00  0.00    +0.000 A 
ATOM      4  C   UNL     1      47.335   6.344  13.999  0.00  0.00    +0.000 A 
ATOM      5  C   UNL     1      46.882   7.006  12.850  0.00  0.00    +0.000 A 
ATOM      6  C   UNL     1      46.125   6.329  11.882  0.00  0.00    +0.000 A 
ENDROOT
BRANCH   1   8
ATOM      7  C   UNL     1      43.635   5.013  10.752  0.00  0.00    +0.000 C 
ATOM      8  C   UNL     1      44.903   4.219  11.080  0.00  0.00    +0.000 C 
BRANCH   8   9
ATOM      9  N   UNL     1      45.599   3.834   9.865  0.00  0.00    +0.000 N 
ATOM     10  C   UNL     1      45.310   2.658   9.209  0.00  0.00    +0.000 C 
ATOM     11  O   UNL     1      44.494   1.844   9.630  0.00  0.00    +0.000 OA
ATOM     12  H   UNL     1      46.215   4.506   9.434  0.00  0.00    +0.000 HD
BRANCH  10  13
ATOM     13  C   UNL     1      46.039   2.435   7.988  0.00  0.00    +0.000 A 
ATOM     14  C   UNL     1      46.317   3.218   6.884  0.00  0.00    +0.000 A 
ATOM     15  C   UNL     1      47.100   2.407   6.041  0.00  0.00    +0.000 A 
ATOM     16  N   UNL     1      47.304   1.194   6.553  0.00  0.00    +0.000 NA
ATOM     17  N   UNL     1      46.649   1.234   7.727  0.00  0.00    +0.000 N 
ATOM     18  H   UNL     1      46.654   0.409   8.323  0.00  0.00    +0.000 HD
ENDBRANCH  10  13
ENDBRANCH   8   9
ENDBRANCH   1   8
BRANCH   4  19
ATOM     19  C   UNL     1      48.078   7.091  15.079  0.00  0.00    +0.000 C 
BRANCH  19  20
ATOM     20  N   UNL     1      49.185   6.329  15.598  0.00  0.00    +0.000 N 
ATOM     21  C   UNL     1      49.262   6.014  16.931  0.00  0.00    +0.000 C 
ATOM     22  O   UNL     1      48.380   6.326  17.726  0.00  0.00    +0.000 OA
ATOM     23  H   UNL     1      50.012   6.258  15.015  0.00  0.00    +0.000 HD
BRANCH  21  24
ATOM     24  C   UNL     1      50.428   5.226  17.354  0.00  0.00    +0.000 A 
ATOM     25  C   UNL     1      51.554   5.873  17.846  0.00  0.00    +0.000 A 
ATOM     26  S   UNL     1      52.798   4.812  18.331  0.00  0.00    +0.000 S 
ATOM     27  C   UNL     1      51.899   3.451  17.848  0.00  0.00    +0.000 A 
ATOM     28  N   UNL     1      52.411   2.196  17.967  0.00  0.00    +0.000 NA
ATOM     29  C   UNL     1      51.635   1.259  17.538  0.00  0.00    +0.000 A 
ATOM     30  N   UNL     1      50.387   1.463  17.006  0.00  0.00    +0.000 N 
ATOM     31  C   UNL     1      49.815   2.707  16.896  0.00  0.00    +0.000 A 
ATOM     32  O   UNL     1      48.677   2.849  16.459  0.00  0.00    +0.000 OA
ATOM     33  C   UNL     1      50.656   3.800  17.349  0.00  0.00    +0.000 A 
ATOM     34  H   UNL     1      49.823   0.685  16.700  0.00  0.00    +0.000 HD
ENDBRANCH  21  24
ENDBRANCH  19  20
ENDBRANCH   4  19
TORSDOF 6
ENDMDL
MODEL 5
REMARK VINA RESULT:    -7.425      1.970      2.521
REMARK INTER + INTRA:         -11.026
REMARK INTER:                  -9.919
REMARK INTRA:                  -1.107
REMARK UNBOUND:                -0.996
REMARK  Name = 
REMARK  7 active torsions:
REMARK  status: ('A' for Active; 'I' for Inactive)
REMARK    1  A    between atoms: C_1  and  C_2
REMARK    2  A    between atoms: C_2  and  N_3
REMARK    3  A    between atoms: C_2  and  C_11
REMARK    4  A    between atoms: C_4  and  C_6
REMARK    5  A    between atoms: C_14  and  C_15
REMARK    6  A    between atoms: C_15  and  N_16
REMARK    7  A    between atoms: C_17  and  C_19
REMARK                            x       y       z     vdW  Elec       q    Type
REMARK                         _______ _______ _______ _____ _____    ______ ____
ROOT
ATOM      1  C   UNL     1      45.312   4.207  11.865  0.00  0.00    +0.000 A 
ATOM      2  C   UNL     1      45.558   5.524  12.286  0.00  0.00    +0.000 A 
ATOM      3  C   UNL     1      46.381   5.790  13.386  0.00  0.00    +0.000 A 
ATOM      4  C   UNL     1      46.979   4.745  14.097  0.00  0.00    +0.000 A 
ATOM      5  C   UNL     1      46.678   3.427  13.728  0.00  0.00    +0.000 A 
ATOM      6  C   UNL     1      45.858   3.159  12.622  0.00  0.00    +0.000 A 
ENDROOT
BRANCH   1   8
ATOM      7  C   UNL     1      43.566   5.137  10.286  0.00  0.00    +0.000 C 
ATOM      8  C   UNL     1      44.514   3.974  10.591  0.00  0.00    +0.000 C 
BRANCH   8   9
ATOM      9  N   UNL     1      45.379   3.703   9.457  0.00  0.00    +0.000 N 
ATOM     10  C   UNL     1      45.359   2.489   8.807  0.00  0.00    +0.000 C 
ATOM     11  O   UNL     1      44.656   1.551   9.170  0.00  0.00    +0.000 OA
ATOM     12  H   UNL     1      45.911   4.467   9.069  0.00  0.00    +0.000 HD
BRANCH  10  13
ATOM     13  C   UNL     1      46.230   2.383   7.666  0.00  0.00    +0.000 A 
ATOM     14  C   UNL     1      46.448   3.173   6.554  0.00  0.00    +0.000 A 
ATOM     15  C   UNL     1      47.453   2.513   5.822  0.00  0.00    +0.000 A 
ATOM     16  N   UNL     1      47.846   1.383   6.407  0.00  0.00    +0.000 NA
ATOM     17  N   UNL     1      47.088   1.323   7.517  0.00  0.00    +0.000 N 
ATOM     18  H   UNL     1      47.202   0.535   8.150  0.00  0.00    +0.000 HD
ENDBRANCH  10  13
ENDBRANCH   8   9
ENDBRANCH   1   8
BRANCH   4  19
ATOM     19  C   UNL     1      47.926   5.032  15.235  0.00  0.00    +0.000 C 
BRANCH  19  20
ATOM     20  N   UNL     1      47.910   6.423  15.611  0.00  0.00    +0.000 N 
ATOM     21  C   UNL     1      49.076   7.138  15.721  0.00  0.00    +0.000 C 
ATOM     22  O   UNL     1      50.170   6.642  15.465  0.00  0.00    +0.000 OA
ATOM     23  H   UNL     1      47.060   6.779  16.034  0.00  0.00    +0.000 HD
BRANCH  21  24
ATOM     24  C   UNL     1      48.947   8.551  16.102  0.00  0.00    +0.000 A 
ATOM     25  C   UNL     1      49.458   9.537  15.269  0.00  0.00    +0.000 A 
ATOM     26  S   UNL     1      49.186  11.122  15.836  0.00  0.00    +0.000 S 
ATOM     27  C   UNL     1      48.425  10.546  17.244  0.00  0.00    +0.000 A 
ATOM     28  N   UNL     1      47.967  11.406  18.194  0.00  0.00    +0.000 NA
ATOM     29  C   UNL     1      47.437  10.834  19.222  0.00  0.00    +0.000 A 
ATOM     30  N   UNL     1      47.316   9.477  19.383  0.00  0.00    +0.000 N 
ATOM     31  C   UNL     1      47.734   8.572  18.438  0.00  0.00    +0.000 A 
ATOM     32  O   UNL     1      47.568   7.366  18.594  0.00  0.00    +0.000 OA
ATOM     33  C   UNL     1      48.356   9.164  17.268  0.00  0.00    +0.000 A 
ATOM     34  H   UNL     1      46.879   9.093  20.207  0.00  0.00    +0.000 HD
ENDBRANCH  21  24
ENDBRANCH  19  20
ENDBRANCH   4  19
TORSDOF 6
ENDMDL
MODEL 6
REMARK VINA RESULT:    -7.085      4.279      9.302
REMARK INTER + INTRA:         -10.567
REMARK INTER:                  -9.401
REMARK INTRA:                  -1.166
REMARK UNBOUND:                -0.996
REMARK  Name = 
REMARK  7 active torsions:
REMARK  status: ('A' for Active; 'I' for Inactive)
REMARK    1  A    between atoms: C_1  and  C_2
REMARK    2  A    between atoms: C_2  and  N_3
REMARK    3  A    between atoms: C_2  and  C_11
REMARK    4  A    between atoms: C_4  and  C_6
REMARK    5  A    between atoms: C_14  and  C_15
REMARK    6  A    between atoms: C_15  and  N_16
REMARK    7  A    between atoms: C_17  and  C_19
REMARK                            x       y       z     vdW  Elec       q    Type
REMARK                         _______ _______ _______ _____ _____    ______ ____
ROOT
ATOM      1  C   UNL     1      49.432   5.422  17.377  0.00  0.00    +0.000 A 
ATOM      2  C   UNL     1      48.327   4.947  16.653  0.00  0.00    +0.000 A 
ATOM      3  C   UNL     1      47.952   5.531  15.438  0.00  0.00    +0.000 A 
ATOM      4  C   UNL     1      48.673   6.609  14.914  0.00  0.00    +0.000 A 
ATOM      5  C   UNL     1      49.731   7.135  15.667  0.00  0.00    +0.000 A 
ATOM      6  C   UNL     1      50.111   6.547  16.882  0.00  0.00    +0.000 A 
ENDROOT
BRANCH   1   8
ATOM      7  C   UNL     1      48.686   4.220  19.475  0.00  0.00    +0.000 C 
ATOM      8  C   UNL     1      49.876   4.677  18.626  0.00  0.00    +0.000 C 
BRANCH   8   9
ATOM      9  N   UNL     1      50.741   3.556  18.306  0.00  0.00    +0.000 N 
ATOM     10  C   UNL     1      52.111   3.651  18.404  0.00  0.00    +0.000 C 
ATOM     11  O   UNL     1      52.686   4.690  18.714  0.00  0.00    +0.000 OA
ATOM     12  H   UNL     1      50.315   2.660  18.129  0.00  0.00    +0.000 HD
BRANCH  10  13
ATOM     13  C   UNL     1      52.838   2.444  18.108  0.00  0.00    +0.000 A 
ATOM     14  C   UNL     1      54.089   2.187  17.580  0.00  0.00    +0.000 A 
ATOM     15  C   UNL     1      54.204   0.784  17.568  0.00  0.00    +0.000 A 
ATOM     16  N   UNL     1      53.114   0.182  18.040  0.00  0.00    +0.000 NA
ATOM     17  N   UNL     1      52.300   1.206  18.354  0.00  0.00    +0.000 N 
ATOM     18  H   UNL     1      51.383   1.005  18.745  0.00  0.00    +0.000 HD
ENDBRANCH  10  13
ENDBRANCH   8   9
ENDBRANCH   1   8
BRANCH   4  19
ATOM     19  C   UNL     1      48.317   7.190  13.568  0.00  0.00    +0.000 C 
BRANCH  19  20
ATOM     20  N   UNL     1      47.561   6.264  12.764  0.00  0.00    +0.000 N 
ATOM     21  C   UNL     1      46.572   6.705  11.921  0.00  0.00    +0.000 C 
ATOM     22  O   UNL     1      46.319   7.898  11.783  0.00  0.00    +0.000 OA
ATOM     23  H   UNL     1      47.600   5.285  13.025  0.00  0.00    +0.000 HD
BRANCH  21  24
ATOM     24  C   UNL     1      45.868   5.679  11.141  0.00  0.00    +0.000 A 
ATOM     25  C   UNL     1      45.965   5.682   9.755  0.00  0.00    +0.000 A 
ATOM     26  S   UNL     1      45.126   4.399   9.006  0.00  0.00    +0.000 S 
ATOM     27  C   UNL     1      44.556   3.826  10.503  0.00  0.00    +0.000 A 
ATOM     28  N   UNL     1      43.737   2.741  10.571  0.00  0.00    +0.000 NA
ATOM     29  C   UNL     1      43.359   2.432  11.765  0.00  0.00    +0.000 A 
ATOM     30  N   UNL     1      43.731   3.107  12.901  0.00  0.00    +0.000 N 
ATOM     31  C   UNL     1      44.580   4.186  12.885  0.00  0.00    +0.000 A 
ATOM     32  O   UNL     1      44.930   4.737  13.924  0.00  0.00    +0.000 OA
ATOM     33  C   UNL     1      45.022   4.587  11.562  0.00  0.00    +0.000 A 
ATOM     34  H   UNL     1      43.409   2.806  13.808  0.00  0.00    +0.000 HD
ENDBRANCH  21  24
ENDBRANCH  19  20
ENDBRANCH   4  19
TORSDOF 6
ENDMDL
MODEL 7
REMARK VINA RESULT:    -7.055      5.428      9.700
REMARK INTER + INTRA:         -10.526
REMARK INTER:                  -9.354
REMARK INTRA:                  -1.171
REMARK UNBOUND:                -0.996
REMARK  Name = 
REMARK  7 active torsions:
REMARK  status: ('A' for Active; 'I' for Inactive)
REMARK    1  A    between atoms: C_1  and  C_2
REMARK    2  A    between atoms: C_2  and  N_3
REMARK    3  A    between atoms: C_2  and  C_11
REMARK    4  A    between atoms: C_4  and  C_6
REMARK    5  A    between atoms: C_14  and  C_15
REMARK    6  A    between atoms: C_15  and  N_16
REMARK    7  A    between atoms: C_17  and  C_19
REMARK                            x       y       z     vdW  Elec       q    Type
REMARK                         _______ _______ _______ _____ _____    ______ ____
ROOT
ATOM      1  C   UNL     1      51.462   3.001  17.818  0.00  0.00    +0.000 A 
ATOM      2  C   UNL     1      50.871   4.269  17.939  0.00  0.00    +0.000 A 
ATOM      3  C   UNL     1      49.528   4.476  17.608  0.00  0.00    +0.000 A 
ATOM      4  C   UNL     1      48.738   3.419  17.144  0.00  0.00    +0.000 A 
ATOM      5  C   UNL     1      49.340   2.169  16.951  0.00  0.00    +0.000 A 
ATOM      6  C   UNL     1      50.685   1.959  17.288  0.00  0.00    +0.000 A 
ENDROOT
BRANCH   1   8
ATOM      7  C   UNL     1      53.200   3.654  19.538  0.00  0.00    +0.000 C 
ATOM      8  C   UNL     1      52.887   2.797  18.308  0.00  0.00    +0.000 C 
BRANCH   8   9
ATOM      9  N   UNL     1      53.172   1.398  18.569  0.00  0.00    +0.000 N 
ATOM     10  C   UNL     1      54.418   0.858  18.334  0.00  0.00    +0.000 C 
ATOM     11  O   UNL     1      55.341   1.503  17.848  0.00  0.00    +0.000 OA
ATOM     12  H   UNL     1      52.474   0.850  19.046  0.00  0.00    +0.000 HD
BRANCH  10  13
ATOM     13  C   UNL     1      54.569  -0.527  18.692  0.00  0.00    +0.000 A 
ATOM     14  C   UNL     1      54.670  -1.697  17.963  0.00  0.00    +0.000 A 
ATOM     15  C   UNL     1      54.821  -2.718  18.920  0.00  0.00    +0.000 A 
ATOM     16  N   UNL     1      54.809  -2.249  20.166  0.00  0.00    +0.000 NA
ATOM     17  N   UNL     1      54.650  -0.924  20.003  0.00  0.00    +0.000 N 
ATOM     18  H   UNL     1      54.610  -0.327  20.825  0.00  0.00    +0.000 HD
ENDBRANCH  10  13
ENDBRANCH   8   9
ENDBRANCH   1   8
BRANCH   4  19
ATOM     19  C   UNL     1      47.271   3.623  16.859  0.00  0.00    +0.000 C 
BRANCH  19  20
ATOM     20  N   UNL     1      47.055   4.595  15.817  0.00  0.00    +0.000 N 
ATOM     21  C   UNL     1      47.091   4.232  14.494  0.00  0.00    +0.000 C 
ATOM     22  O   UNL     1      47.263   3.069  14.143  0.00  0.00    +0.000 OA
ATOM     23  H   UNL     1      47.134   5.574  16.073  0.00  0.00    +0.000 HD
BRANCH  21  24
ATOM     24  C   UNL     1      46.850   5.299  13.513  0.00  0.00    +0.000 A 
ATOM     25  C   UNL     1      45.763   5.209  12.653  0.00  0.00    +0.000 A 
ATOM     26  S   UNL     1      45.603   6.549  11.609  0.00  0.00    +0.000 S 
ATOM     27  C   UNL     1      47.012   7.270  12.230  0.00  0.00    +0.000 A 
ATOM     28  N   UNL     1      47.467   8.455  11.739  0.00  0.00    +0.000 NA
ATOM     29  C   UNL     1      48.560   8.874  12.281  0.00  0.00    +0.000 A 
ATOM     30  N   UNL     1      49.238   8.218  13.278  0.00  0.00    +0.000 N 
ATOM     31  C   UNL     1      48.801   7.038  13.827  0.00  0.00    +0.000 A 
ATOM     32  O   UNL     1      49.406   6.502  14.750  0.00  0.00    +0.000 OA
ATOM     33  C   UNL     1      47.582   6.512  13.239  0.00  0.00    +0.000 A 
ATOM     34  H   UNL     1      50.082   8.607  13.669  0.00  0.00    +0.000 HD
ENDBRANCH  21  24
ENDBRANCH  19  20
ENDBRANCH   4  19
TORSDOF 6
ENDMDL
MODEL 8
REMARK VINA RESULT:    -6.968      3.636      5.529
REMARK INTER + INTRA:         -10.409
REMARK INTER:                  -9.297
REMARK INTRA:                  -1.111
REMARK UNBOUND:                -0.996
REMARK  Name = 
REMARK  7 active torsions:
REMARK  status: ('A' for Active; 'I' for Inactive)
REMARK    1  A    between atoms: C_1  and  C_2
REMARK    2  A    between atoms: C_2  and  N_3
REMARK    3  A    between atoms: C_2  and  C_11
REMARK    4  A    between atoms: C_4  and  C_6
REMARK    5  A    between atoms: C_14  and  C_15
REMARK    6  A    between atoms: C_15  and  N_16
REMARK    7  A    between atoms: C_17  and  C_19
REMARK                            x       y       z     vdW  Elec       q    Type
REMARK                         _______ _______ _______ _____ _____    ______ ____
ROOT
ATOM      1  C   UNL     1      45.643   4.901  11.793  0.00  0.00    +0.000 A 
ATOM      2  C   UNL     1      46.172   6.168  11.499  0.00  0.00    +0.000 A 
ATOM      3  C   UNL     1      47.012   6.829  12.402  0.00  0.00    +0.000 A 
ATOM      4  C   UNL     1      47.344   6.242  13.627  0.00  0.00    +0.000 A 
ATOM      5  C   UNL     1      46.760   5.011  13.958  0.00  0.00    +0.000 A 
ATOM      6  C   UNL     1      45.923   4.345  13.051  0.00  0.00    +0.000 A 
ENDROOT
BRANCH   1   8
ATOM      7  C   UNL     1      43.591   4.952  10.312  0.00  0.00    +0.000 C 
ATOM      8  C   UNL     1      44.839   4.168  10.731  0.00  0.00    +0.000 C 
BRANCH   8   9
ATOM      9  N   UNL     1      45.652   3.837   9.574  0.00  0.00    +0.000 N 
ATOM     10  C   UNL     1      45.459   2.671   8.866  0.00  0.00    +0.000 C 
ATOM     11  O   UNL     1      44.634   1.823   9.192  0.00  0.00    +0.000 OA
ATOM     12  H   UNL     1      46.282   4.538   9.217  0.00  0.00    +0.000 HD
BRANCH  10  13
ATOM     13  C   UNL     1      46.300   2.503   7.711  0.00  0.00    +0.000 A 
ATOM     14  C   UNL     1      46.528   3.257   6.576  0.00  0.00    +0.000 A 
ATOM     15  C   UNL     1      47.489   2.539   5.840  0.00  0.00    +0.000 A 
ATOM     16  N   UNL     1      47.847   1.407   6.444  0.00  0.00    +0.000 NA
ATOM     17  N   UNL     1      47.111   1.405   7.570  0.00  0.00    +0.000 N 
ATOM     18  H   UNL     1      47.205   0.627   8.219  0.00  0.00    +0.000 HD
ENDBRANCH  10  13
ENDBRANCH   8   9
ENDBRANCH   1   8
BRANCH   4  19
ATOM     19  C   UNL     1      48.308   6.919  14.568  0.00  0.00    +0.000 C 
BRANCH  19  20
ATOM     20  N   UNL     1      49.586   7.161  13.947  0.00  0.00    +0.000 N 
ATOM     21  C   UNL     1      50.205   8.381  14.058  0.00  0.00    +0.000 C 
ATOM     22  O   UNL     1      49.724   9.296  14.720  0.00  0.00    +0.000 OA
ATOM     23  H   UNL     1      49.883   6.509  13.229  0.00  0.00    +0.000 HD
BRANCH  21  24
ATOM     24  C   UNL     1      51.508   8.520  13.395  0.00  0.00    +0.000 A 
ATOM     25  C   UNL     1      52.588   9.033  14.101  0.00  0.00    +0.000 A 
ATOM     26  S   UNL     1      54.034   9.086  13.198  0.00  0.00    +0.000 S 
ATOM     27  C   UNL     1      53.256   8.478  11.814  0.00  0.00    +0.000 A 
ATOM     28  N   UNL     1      53.937   8.303  10.648  0.00  0.00    +0.000 NA
ATOM     29  C   UNL     1      53.219   7.861   9.672  0.00  0.00    +0.000 A 
ATOM     30  N   UNL     1      51.881   7.571   9.756  0.00  0.00    +0.000 N 
ATOM     31  C   UNL     1      51.159   7.700  10.918  0.00  0.00    +0.000 A 
ATOM     32  O   UNL     1      49.974   7.387  10.970  0.00  0.00    +0.000 OA
ATOM     33  C   UNL     1      51.917   8.212  12.045  0.00  0.00    +0.000 A 
ATOM     34  H   UNL     1      51.379   7.216   8.957  0.00  0.00    +0.000 HD
ENDBRANCH  21  24
ENDBRANCH  19  20
ENDBRANCH   4  19
TORSDOF 6
ENDMDL
MODEL 9
REMARK VINA RESULT:    -6.775      4.151      5.836
REMARK INTER + INTRA:         -10.148
REMARK INTER:                  -9.170
REMARK INTRA:                  -0.978
REMARK UNBOUND:                -0.996
REMARK  Name = 
REMARK  7 active torsions:
REMARK  status: ('A' for Active; 'I' for Inactive)
REMARK    1  A    between atoms: C_1  and  C_2
REMARK    2  A    between atoms: C_2  and  N_3
REMARK    3  A    between atoms: C_2  and  C_11
REMARK    4  A    between atoms: C_4  and  C_6
REMARK    5  A    between atoms: C_14  and  C_15
REMARK    6  A    between atoms: C_15  and  N_16
REMARK    7  A    between atoms: C_17  and  C_19
REMARK                            x       y       z     vdW  Elec       q    Type
REMARK                         _______ _______ _______ _____ _____    ______ ____
ROOT
ATOM      1  C   UNL     1      47.252   5.804  14.063  0.00  0.00    +0.000 A 
ATOM      2  C   UNL     1      48.194   6.484  14.850  0.00  0.00    +0.000 A 
ATOM      3  C   UNL     1      48.667   5.937  16.048  0.00  0.00    +0.000 A 
ATOM      4  C   UNL     1      48.207   4.693  16.493  0.00  0.00    +0.000 A 
ATOM      5  C   UNL     1      47.212   4.044  15.750  0.00  0.00    +0.000 A 
ATOM      6  C   UNL     1      46.742   4.589  14.546  0.00  0.00    +0.000 A 
ENDROOT
BRANCH   1   8
ATOM      7  C   UNL     1      47.985   7.227  12.102  0.00  0.00    +0.000 C 
ATOM      8  C   UNL     1      46.864   6.380  12.710  0.00  0.00    +0.000 C 
BRANCH   8   9
ATOM      9  N   UNL     1      46.442   5.343  11.785  0.00  0.00    +0.000 N 
ATOM     10  C   UNL     1      45.225   5.399  11.143  0.00  0.00    +0.000 C 
ATOM     11  O   UNL     1      44.406   6.290  11.347  0.00  0.00    +0.000 OA
ATOM     12  H   UNL     1      47.112   4.638  11.521  0.00  0.00    +0.000 HD
BRANCH  10  13
ATOM     13  C   UNL     1      44.965   4.332  10.213  0.00  0.00    +0.000 A 
ATOM     14  C   UNL     1      44.780   4.280   8.845  0.00  0.00    +0.000 A 
ATOM     15  C   UNL     1      44.586   2.918   8.548  0.00  0.00    +0.000 A 
ATOM     16  N   UNL     1      44.632   2.152   9.637  0.00  0.00    +0.000 NA
ATOM     17  N   UNL     1      44.856   3.029  10.631  0.00  0.00    +0.000 N 
ATOM     18  H   UNL     1      44.935   2.685  11.584  0.00  0.00    +0.000 HD
ENDBRANCH  10  13
ENDBRANCH   8   9
ENDBRANCH   1   8
BRANCH   4  19
ATOM     19  C   UNL     1      48.770   4.067  17.744  0.00  0.00    +0.000 C 
BRANCH  19  20
ATOM     20  N   UNL     1      50.145   3.669  17.575  0.00  0.00    +0.000 N 
ATOM     21  C   UNL     1      51.112   4.080  18.458  0.00  0.00    +0.000 C 
ATOM     22  O   UNL     1      50.846   4.760  19.444  0.00  0.00    +0.000 OA
ATOM     23  H   UNL     1      50.414   3.306  16.667  0.00  0.00    +0.000 HD
BRANCH  21  24
ATOM     24  C   UNL     1      52.480   3.611  18.198  0.00  0.00    +0.000 A 
ATOM     25  C   UNL     1      53.545   4.493  18.328  0.00  0.00    +0.000 A 
ATOM     26  S   UNL     1      55.066   3.779  18.034  0.00  0.00    +0.000 S 
ATOM     27  C   UNL     1      54.352   2.279  17.668  0.00  0.00    +0.000 A 
ATOM     28  N   UNL     1      55.112   1.213  17.298  0.00  0.00    +0.000 NA
ATOM     29  C   UNL     1      54.440   0.147  17.023  0.00  0.00    +0.000 A 
ATOM     30  N   UNL     1      53.073   0.047  17.091  0.00  0.00    +0.000 N 
ATOM     31  C   UNL     1      52.267   1.085  17.491  0.00  0.00    +0.000 A 
ATOM     32  O   UNL     1      51.052   0.947  17.586  0.00  0.00    +0.000 OA
ATOM     33  C   UNL     1      52.973   2.316  17.795  0.00  0.00    +0.000 A 
ATOM     34  H   UNL     1      52.608  -0.821  16.875  0.00  0.00    +0.000 HD
ENDBRANCH  21  24
ENDBRANCH  19  20
ENDBRANCH   4  19
TORSDOF 6
ENDMDL
