MODEL 1
REMARK VINA RESULT:    -7.987      0.000      0.000
REMARK INTER + INTRA:         -11.769
REMARK INTER:                 -10.789
REMARK INTRA:                  -0.980
REMARK UNBOUND:                -0.980
REMARK  Name = 
REMARK  7 active torsions:
REMARK  status: ('A' for Active; 'I' for Inactive)
REMARK    1  A    between atoms: C_1  and  C_2
REMARK    2  A    between atoms: C_2  and  C_3
REMARK    3  A    between atoms: C_7  and  C_8
REMARK    4  A    between atoms: C_8  and  C_9
REMARK    5  A    between atoms: C_9  and  N_10
REMARK    6  A    between atoms: N_10  and  C_11
REMARK    7  A    between atoms: C_14  and  C_15
REMARK                            x       y       z     vdW  Elec       q    Type
REMARK                         _______ _______ _______ _____ _____    ______ ____
ROOT
ATOM      1  C   UNL     1      43.204   4.537  11.167  0.00  0.00    +0.000 C 
ENDROOT
BRANCH   1   2
ATOM      2  N   UNL     1      43.766   4.927   9.865  0.00  0.00    +0.000 N 
ATOM      3  H   UNL     1      44.213   5.843   9.894  0.00  0.00    +0.000 HD
BRANCH   2   4
ATOM      4  C   UNL     1      44.602   3.969   9.257  0.00  0.00    +0.000 A 
ATOM      5  C   UNL     1      45.487   4.353   8.244  0.00  0.00    +0.000 A 
ATOM      6  C   UNL     1      46.311   3.410   7.628  0.00  0.00    +0.000 A 
ATOM      7  C   UNL     1      46.203   2.080   8.015  0.00  0.00    +0.000 A 
ATOM      8  N   UNL     1      45.317   1.641   8.945  0.00  0.00    +0.000 NA
ATOM      9  C   UNL     1      44.536   2.592   9.515  0.00  0.00    +0.000 A 
BRANCH   7  10
ATOM     10  C   UNL     1      47.099   1.048   7.408  0.00  0.00    +0.000 C 
ATOM     11  N   UNL     1      46.743  -0.258   7.655  0.00  0.00    +0.000 N 
ATOM     12  O   UNL     1      48.087   1.330   6.743  0.00  0.00    +0.000 OA
ATOM     13  H   UNL     1      45.918  -0.452   8.211  0.00  0.00    +0.000 HD
ATOM     14  H   UNL     1      47.306  -1.007   7.284  0.00  0.00    +0.000 HD
ENDBRANCH   7  10
ENDBRANCH   2   4
ENDBRANCH   1   2
BRANCH   1  15
ATOM     15  C   UNL     1      43.585   5.519  12.284  0.00  0.00    +0.000 C 
BRANCH  15  20
ATOM     16  C   UNL     1      47.263   6.353  12.934  0.00  0.00    +0.000 A 
ATOM     17  C   UNL     1      47.670   5.169  13.580  0.00  0.00    +0.000 A 
ATOM     18  C   UNL     1      46.799   4.091  13.744  0.00  0.00    +0.000 A 
ATOM     19  C   UNL     1      45.487   4.178  13.288  0.00  0.00    +0.000 A 
ATOM     20  C   UNL     1      45.047   5.336  12.640  0.00  0.00    +0.000 A 
ATOM     21  C   UNL     1      45.950   6.396  12.437  0.00  0.00    +0.000 A 
BRANCH  16  23
ATOM     22  C   UNL     1      48.672   7.769  11.443  0.00  0.00    +0.000 C 
ATOM     23  C   UNL     1      48.210   7.565  12.898  0.00  0.00    +0.000 C 
ATOM     24  C   UNL     1      47.538   8.817  13.471  0.00  0.00    +0.000 C 
ATOM     25  C   UNL     1      48.005   8.889  14.919  0.00  0.00    +0.000 C 
ATOM     26  O   UNL     1      49.016   7.894  15.106  0.00  0.00    +0.000 OA
ATOM     27  C   UNL     1      49.449   7.487  13.803  0.00  0.00    +0.000 C 
ENDBRANCH  16  23
ENDBRANCH  15  20
ENDBRANCH   1  15
TORSDOF 6
ENDMDL
MODEL 2
REMARK VINA RESULT:    -7.725      2.377      3.462
REMARK INTER + INTRA:         -11.414
REMARK INTER:                 -10.671
REMARK INTRA:                  -0.743
REMARK UNBOUND:                -0.980
REMARK  Name = 
REMARK  7 active torsions:
REMARK  status: ('A' for Active; 'I' for Inactive)
REMARK    1  A    between atoms: C_1  and  C_2
REMARK    2  A    between atoms: C_2  and  C_3
REMARK    3  A    between atoms: C_7  and  C_8
REMARK    4  A    between atoms: C_8  and  C_9
REMARK    5  A    between atoms: C_9  and  N_10
REMARK    6  A    between atoms: N_10  and  C_11
REMARK    7  A    between atoms: C_14  and  C_15
REMARK                            x       y       z     vdW  Elec       q    Type
REMARK                         _______ _______ _______ _____ _____    ______ ____
ROOT
ATOM      1  C   UNL     1      44.712   5.123  11.712  0.00  0.00    +0.000 C 
ENDROOT
BRANCH   1   2
ATOM      2  N   UNL     1      44.003   4.460  10.608  0.00  0.00    +0.000 N 
ATOM      3  H   UNL     1      43.346   5.082  10.140  0.00  0.00    +0.000 HD
BRANCH   2   4
ATOM      4  C   UNL     1      44.825   3.792   9.678  0.00  0.00    +0.000 A 
ATOM      5  C   UNL     1      45.568   4.524   8.746  0.00  0.00    +0.000 A 
ATOM      6  C   UNL     1      46.377   3.872   7.813  0.00  0.00    +0.000 A 
ATOM      7  C   UNL     1      46.395   2.483   7.808  0.00  0.00    +0.000 A 
ATOM      8  N   UNL     1      45.645   1.721   8.644  0.00  0.00    +0.000 NA
ATOM      9  C   UNL     1      44.874   2.398   9.532  0.00  0.00    +0.000 A 
BRANCH   7  10
ATOM     10  C   UNL     1      47.281   1.749   6.851  0.00  0.00    +0.000 C 
ATOM     11  N   UNL     1      48.292   2.497   6.295  0.00  0.00    +0.000 N 
ATOM     12  O   UNL     1      47.123   0.570   6.567  0.00  0.00    +0.000 OA
ATOM     13  H   UNL     1      48.391   3.472   6.554  0.00  0.00    +0.000 HD
ATOM     14  H   UNL     1      48.922   2.071   5.634  0.00  0.00    +0.000 HD
ENDBRANCH   7  10
ENDBRANCH   2   4
ENDBRANCH   1   2
BRANCH   1  15
ATOM     15  C   UNL     1      45.607   4.152  12.496  0.00  0.00    +0.000 C 
BRANCH  15  20
ATOM     16  C   UNL     1      47.627   5.035  15.624  0.00  0.00    +0.000 A 
ATOM     17  C   UNL     1      48.345   6.148  15.144  0.00  0.00    +0.000 A 
ATOM     18  C   UNL     1      48.136   6.651  13.859  0.00  0.00    +0.000 A 
ATOM     19  C   UNL     1      47.219   6.038  13.009  0.00  0.00    +0.000 A 
ATOM     20  C   UNL     1      46.485   4.934  13.452  0.00  0.00    +0.000 A 
ATOM     21  C   UNL     1      46.670   4.467  14.767  0.00  0.00    +0.000 A 
BRANCH  16  23
ATOM     22  C   UNL     1      47.190   5.183  18.074  0.00  0.00    +0.000 C 
ATOM     23  C   UNL     1      47.987   4.430  16.992  0.00  0.00    +0.000 C 
ATOM     24  C   UNL     1      47.719   2.921  17.024  0.00  0.00    +0.000 C 
ATOM     25  C   UNL     1      49.067   2.275  16.732  0.00  0.00    +0.000 C 
ATOM     26  O   UNL     1      50.060   3.304  16.740  0.00  0.00    +0.000 OA
ATOM     27  C   UNL     1      49.475   4.446  17.373  0.00  0.00    +0.000 C 
ENDBRANCH  16  23
ENDBRANCH  15  20
ENDBRANCH   1  15
TORSDOF 6
ENDMDL
MODEL 3
REMARK VINA RESULT:    -7.690      1.486      1.798
REMARK INTER + INTRA:         -11.367
REMARK INTER:                 -10.454
REMARK INTRA:                  -0.912
REMARK UNBOUND:                -0.980
REMARK  Name = 
REMARK  7 active torsions:
REMARK  status: ('A' for Active; 'I' for Inactive)
REMARK    1  A    between atoms: C_1  and  C_2
REMARK    2  A    between atoms: C_2  and  C_3
REMARK    3  A    between atoms: C_7  and  C_8
REMARK    4  A    between atoms: C_8  and  C_9
REMARK    5  A    between atoms: C_9  and  N_10
REMARK    6  A    between atoms: N_10  and  C_11
REMARK    7  A    between atoms: C_14  and  C_15
REMARK                            x       y       z     vdW  Elec       q    Type
REMARK                         _______ _______ _______ _____ _____    ______ ____
ROOT
ATOM      1  C   UNL     1      43.989   5.000  11.280  0.00  0.00    +0.000 C 
ENDROOT
BRANCH   1   2
ATOM      2  N   UNL     1      43.658   4.750   9.869  0.00  0.00    +0.000 N 
ATOM      3  H   UNL     1      43.400   5.602   9.374  0.00  0.00    +0.000 HD
BRANCH   2   4
ATOM      4  C   UNL     1      44.615   4.009   9.147  0.00  0.00    +0.000 A 
ATOM      5  C   UNL     1      44.677   2.619   9.287  0.00  0.00    +0.000 A 
ATOM      6  C   UNL     1      45.629   1.877   8.585  0.00  0.00    +0.000 A 
ATOM      7  C   UNL     1      46.534   2.554   7.777  0.00  0.00    +0.000 A 
ATOM      8  N   UNL     1      46.563   3.906   7.654  0.00  0.00    +0.000 NA
ATOM      9  C   UNL     1      45.621   4.585   8.357  0.00  0.00    +0.000 A 
BRANCH   7  10
ATOM     10  C   UNL     1      47.541   1.790   6.977  0.00  0.00    +0.000 C 
ATOM     11  N   UNL     1      48.497   2.555   6.352  0.00  0.00    +0.000 N 
ATOM     12  O   UNL     1      47.521   0.572   6.870  0.00  0.00    +0.000 OA
ATOM     13  H   UNL     1      48.480   3.562   6.464  0.00  0.00    +0.000 HD
ATOM     14  H   UNL     1      49.203   2.108   5.788  0.00  0.00    +0.000 HD
ENDBRANCH   7  10
ENDBRANCH   2   4
ENDBRANCH   1   2
BRANCH   1  15
ATOM     15  C   UNL     1      44.562   6.407  11.503  0.00  0.00    +0.000 C 
BRANCH  15  20
ATOM     16  C   UNL     1      48.147   7.250  12.540  0.00  0.00    +0.000 A 
ATOM     17  C   UNL     1      48.297   6.373  13.632  0.00  0.00    +0.000 A 
ATOM     18  C   UNL     1      47.290   5.476  13.990  0.00  0.00    +0.000 A 
ATOM     19  C   UNL     1      46.094   5.449  13.279  0.00  0.00    +0.000 A 
ATOM     20  C   UNL     1      45.909   6.302  12.187  0.00  0.00    +0.000 A 
ATOM     21  C   UNL     1      46.952   7.167  11.807  0.00  0.00    +0.000 A 
BRANCH  16  23
ATOM     22  C   UNL     1      50.286   7.698  11.339  0.00  0.00    +0.000 C 
ATOM     23  C   UNL     1      49.223   8.316  12.267  0.00  0.00    +0.000 C 
ATOM     24  C   UNL     1      48.610   9.589  11.673  0.00  0.00    +0.000 C 
ATOM     25  C   UNL     1      48.425  10.528  12.858  0.00  0.00    +0.000 C 
ATOM     26  O   UNL     1      49.063   9.936  13.994  0.00  0.00    +0.000 OA
ATOM     27  C   UNL     1      49.925   8.906  13.499  0.00  0.00    +0.000 C 
ENDBRANCH  16  23
ENDBRANCH  15  20
ENDBRANCH   1  15
TORSDOF 6
ENDMDL
MODEL 4
REMARK VINA RESULT:    -7.153      1.540      2.170
REMARK INTER + INTRA:         -10.642
REMARK INTER:                 -10.325
REMARK INTRA:                  -0.316
REMARK UNBOUND:                -0.980
REMARK  Name = 
REMARK  7 active torsions:
REMARK  status: ('A' for Active; 'I' for Inactive)
REMARK    1  A    between atoms: C_1  and  C_2
REMARK    2  A    between atoms: C_2  and  C_3
REMARK    3  A    between atoms: C_7  and  C_8
REMARK    4  A    between atoms: C_8  and  C_9
REMARK    5  A    between atoms: C_9  and  N_10
REMARK    6  A    between atoms: N_10  and  C_11
REMARK    7  A    between atoms: C_14  and  C_15
REMARK                            x       y       z     vdW  Elec       q    Type
REMARK                         _______ _______ _______ _____ _____    ______ ____
ROOT
ATOM      1  C   UNL     1      44.018   3.793  11.724  0.00  0.00    +0.000 C 
ENDROOT
BRANCH   1   2
ATOM      2  N   UNL     1      43.570   3.820  10.323  0.00  0.00    +0.000 N 
ATOM      3  H   UNL     1      43.131   4.705  10.073  0.00  0.00    +0.000 HD
BRANCH   2   4
ATOM      4  C   UNL     1      44.540   3.444   9.372  0.00  0.00    +0.000 A 
ATOM      5  C   UNL     1      44.982   2.118   9.308  0.00  0.00    +0.000 A 
ATOM      6  C   UNL     1      45.950   1.738   8.377  0.00  0.00    +0.000 A 
ATOM      7  C   UNL     1      46.491   2.711   7.547  0.00  0.00    +0.000 A 
ATOM      8  N   UNL     1      46.149   4.024   7.610  0.00  0.00    +0.000 NA
ATOM      9  C   UNL     1      45.206   4.347   8.530  0.00  0.00    +0.000 A 
BRANCH   7  10
ATOM     10  C   UNL     1      47.500   2.335   6.509  0.00  0.00    +0.000 C 
ATOM     11  N   UNL     1      47.546   3.157   5.408  0.00  0.00    +0.000 N 
ATOM     12  O   UNL     1      48.232   1.360   6.614  0.00  0.00    +0.000 OA
ATOM     13  H   UNL     1      46.923   3.955   5.356  0.00  0.00    +0.000 HD
ATOM     14  H   UNL     1      48.196   2.959   4.664  0.00  0.00    +0.000 HD
ENDBRANCH   7  10
ENDBRANCH   2   4
ENDBRANCH   1   2
BRANCH   1  15
ATOM     15  C   UNL     1      45.493   4.193  11.872  0.00  0.00    +0.000 C 
BRANCH  15  20
ATOM     16  C   UNL     1      46.996   7.641  12.573  0.00  0.00    +0.000 A 
ATOM     17  C   UNL     1      45.958   8.462  12.091  0.00  0.00    +0.000 A 
ATOM     18  C   UNL     1      44.765   7.921  11.611  0.00  0.00    +0.000 A 
ATOM     19  C   UNL     1      44.587   6.541  11.577  0.00  0.00    +0.000 A 
ATOM     20  C   UNL     1      45.594   5.694  12.050  0.00  0.00    +0.000 A 
ATOM     21  C   UNL     1      46.772   6.254  12.577  0.00  0.00    +0.000 A 
BRANCH  16  23
ATOM     22  C   UNL     1      48.713   9.317  11.893  0.00  0.00    +0.000 C 
ATOM     23  C   UNL     1      48.345   8.270  12.962  0.00  0.00    +0.000 C 
ATOM     24  C   UNL     1      48.294   8.877  14.369  0.00  0.00    +0.000 C 
ATOM     25  C   UNL     1      48.883   7.808  15.281  0.00  0.00    +0.000 C 
ATOM     26  O   UNL     1      49.417   6.769  14.456  0.00  0.00    +0.000 OA
ATOM     27  C   UNL     1      49.525   7.301  13.131  0.00  0.00    +0.000 C 
ENDBRANCH  16  23
ENDBRANCH  15  20
ENDBRANCH   1  15
TORSDOF 6
ENDMDL
MODEL 5
REMARK VINA RESULT:    -6.779      1.795      2.206
REMARK INTER + INTRA:         -10.137
REMARK INTER:                  -9.349
REMARK INTRA:                  -0.788
REMARK UNBOUND:                -0.980
REMARK  Name = 
REMARK  7 active torsions:
REMARK  status: ('A' for Active; 'I' for Inactive)
REMARK    1  A    between atoms: C_1  and  C_2
REMARK    2  A    between atoms: C_2  and  C_3
REMARK    3  A    between atoms: C_7  and  C_8
REMARK    4  A    between atoms: C_8  and  C_9
REMARK    5  A    between atoms: C_9  and  N_10
REMARK    6  A    between atoms: N_10  and  C_11
REMARK    7  A    between atoms: C_14  and  C_15
REMARK                            x       y       z     vdW  Elec       q    Type
REMARK                         _______ _______ _______ _____ _____    ______ ____
ROOT
ATOM      1  C   UNL     1      43.997   2.877  11.625  0.00  0.00    +0.000 C 
ENDROOT
BRANCH   1   2
ATOM      2  N   UNL     1      43.781   3.661  10.399  0.00  0.00    +0.000 N 
ATOM      3  H   UNL     1      43.713   4.660  10.585  0.00  0.00    +0.000 HD
BRANCH   2   4
ATOM      4  C   UNL     1      44.681   3.396   9.347  0.00  0.00    +0.000 A 
ATOM      5  C   UNL     1      45.135   2.092   9.124  0.00  0.00    +0.000 A 
ATOM      6  C   UNL     1      46.035   1.821   8.091  0.00  0.00    +0.000 A 
ATOM      7  C   UNL     1      46.498   2.880   7.321  0.00  0.00    +0.000 A 
ATOM      8  N   UNL     1      46.144   4.173   7.534  0.00  0.00    +0.000 NA
ATOM      9  C   UNL     1      45.269   4.388   8.548  0.00  0.00    +0.000 A 
BRANCH   7  10
ATOM     10  C   UNL     1      47.431   2.624   6.180  0.00  0.00    +0.000 C 
ATOM     11  N   UNL     1      48.650   2.091   6.526  0.00  0.00    +0.000 N 
ATOM     12  O   UNL     1      47.146   2.875   5.017  0.00  0.00    +0.000 OA
ATOM     13  H   UNL     1      48.850   1.897   7.500  0.00  0.00    +0.000 HD
ATOM     14  H   UNL     1      49.333   1.900   5.809  0.00  0.00    +0.000 HD
ENDBRANCH   7  10
ENDBRANCH   2   4
ENDBRANCH   1   2
BRANCH   1  15
ATOM     15  C   UNL     1      43.884   3.735  12.893  0.00  0.00    +0.000 C 
BRANCH  15  20
ATOM     16  C   UNL     1      46.670   6.357  12.797  0.00  0.00    +0.000 A 
ATOM     17  C   UNL     1      47.483   5.886  13.847  0.00  0.00    +0.000 A 
ATOM     18  C   UNL     1      47.181   4.709  14.532  0.00  0.00    +0.000 A 
ATOM     19  C   UNL     1      46.041   3.981  14.201  0.00  0.00    +0.000 A 
ATOM     20  C   UNL     1      45.212   4.415  13.162  0.00  0.00    +0.000 A 
ATOM     21  C   UNL     1      45.555   5.577  12.447  0.00  0.00    +0.000 A 
BRANCH  16  23
ATOM     22  C   UNL     1      48.378   7.683  11.557  0.00  0.00    +0.000 C 
ATOM     23  C   UNL     1      46.963   7.728  12.163  0.00  0.00    +0.000 C 
ATOM     24  C   UNL     1      45.901   8.101  11.123  0.00  0.00    +0.000 C 
ATOM     25  C   UNL     1      44.921   9.001  11.864  0.00  0.00    +0.000 C 
ATOM     26  O   UNL     1      45.476   9.292  13.151  0.00  0.00    +0.000 OA
ATOM     27  C   UNL     1      46.864   8.944  13.097  0.00  0.00    +0.000 C 
ENDBRANCH  16  23
ENDBRANCH  15  20
ENDBRANCH   1  15
TORSDOF 6
ENDMDL
MODEL 6
REMARK VINA RESULT:    -6.743      5.030      7.821
REMARK INTER + INTRA:         -10.088
REMARK INTER:                  -9.406
REMARK INTRA:                  -0.682
REMARK UNBOUND:                -0.980
REMARK  Name = 
REMARK  7 active torsions:
REMARK  status: ('A' for Active; 'I' for Inactive)
REMARK    1  A    between atoms: C_1  and  C_2
REMARK    2  A    between atoms: C_2  and  C_3
REMARK    3  A    between atoms: C_7  and  C_8
REMARK    4  A    between atoms: C_8  and  C_9
REMARK    5  A    between atoms: C_9  and  N_10
REMARK    6  A    between atoms: N_10  and  C_11
REMARK    7  A    between atoms: C_14  and  C_15
REMARK                            x       y       z     vdW  Elec       q    Type
REMARK                         _______ _______ _______ _____ _____    ______ ____
ROOT
ATOM      1  C   UNL     1      47.145   4.383  15.531  0.00  0.00    +0.000 C 
ENDROOT
BRANCH   1   2
ATOM      2  N   UNL     1      47.562   4.237  16.934  0.00  0.00    +0.000 N 
ATOM      3  H   UNL     1      46.821   3.858  17.522  0.00  0.00    +0.000 HD
BRANCH   2   4
ATOM      4  C   UNL     1      48.775   3.548  17.134  0.00  0.00    +0.000 A 
ATOM      5  C   UNL     1      49.879   4.216  17.674  0.00  0.00    +0.000 A 
ATOM      6  C   UNL     1      51.089   3.545  17.866  0.00  0.00    +0.000 A 
ATOM      7  C   UNL     1      51.180   2.216  17.473  0.00  0.00    +0.000 A 
ATOM      8  N   UNL     1      50.163   1.537  16.884  0.00  0.00    +0.000 NA
ATOM      9  C   UNL     1      49.008   2.230  16.716  0.00  0.00    +0.000 A 
BRANCH   7  10
ATOM     10  C   UNL     1      52.446   1.453  17.701  0.00  0.00    +0.000 C 
ATOM     11  N   UNL     1      52.285   0.180  18.195  0.00  0.00    +0.000 N 
ATOM     12  O   UNL     1      53.555   1.920  17.478  0.00  0.00    +0.000 OA
ATOM     13  H   UNL     1      51.350  -0.171  18.369  0.00  0.00    +0.000 HD
ATOM     14  H   UNL     1      53.095  -0.389  18.382  0.00  0.00    +0.000 HD
ENDBRANCH   7  10
ENDBRANCH   2   4
ENDBRANCH   1   2
BRANCH   1  15
ATOM     15  C   UNL     1      47.845   5.560  14.836  0.00  0.00    +0.000 C 
BRANCH  15  20
ATOM     16  C   UNL     1      45.248   5.578  12.025  0.00  0.00    +0.000 A 
ATOM     17  C   UNL     1      45.888   6.437  11.109  0.00  0.00    +0.000 A 
ATOM     18  C   UNL     1      47.162   6.948  11.357  0.00  0.00    +0.000 A 
ATOM     19  C   UNL     1      47.823   6.635  12.541  0.00  0.00    +0.000 A 
ATOM     20  C   UNL     1      47.222   5.784  13.473  0.00  0.00    +0.000 A 
ATOM     21  C   UNL     1      45.957   5.235  13.188  0.00  0.00    +0.000 A 
BRANCH  16  23
ATOM     22  C   UNL     1      42.989   6.397  11.362  0.00  0.00    +0.000 C 
ATOM     23  C   UNL     1      43.792   5.150  11.777  0.00  0.00    +0.000 C 
ATOM     24  C   UNL     1      43.708   4.034  10.729  0.00  0.00    +0.000 C 
ATOM     25  C   UNL     1      43.624   2.743  11.532  0.00  0.00    +0.000 C 
ATOM     26  O   UNL     1      43.461   3.091  12.910  0.00  0.00    +0.000 OA
ATOM     27  C   UNL     1      43.073   4.468  12.952  0.00  0.00    +0.000 C 
ENDBRANCH  16  23
ENDBRANCH  15  20
ENDBRANCH   1  15
TORSDOF 6
ENDMDL
MODEL 7
REMARK VINA RESULT:    -6.540      3.609      5.713
REMARK INTER + INTRA:          -9.814
REMARK INTER:                  -8.995
REMARK INTRA:                  -0.819
REMARK UNBOUND:                -0.980
REMARK  Name = 
REMARK  7 active torsions:
REMARK  status: ('A' for Active; 'I' for Inactive)
REMARK    1  A    between atoms: C_1  and  C_2
REMARK    2  A    between atoms: C_2  and  C_3
REMARK    3  A    between atoms: C_7  and  C_8
REMARK    4  A    between atoms: C_8  and  C_9
REMARK    5  A    between atoms: C_9  and  N_10
REMARK    6  A    between atoms: N_10  and  C_11
REMARK    7  A    between atoms: C_14  and  C_15
REMARK                            x       y       z     vdW  Elec       q    Type
REMARK                         _______ _______ _______ _____ _____    ______ ____
ROOT
ATOM      1  C   UNL     1      48.478   7.012  13.468  0.00  0.00    +0.000 C 
ENDROOT
BRANCH   1   2
ATOM      2  N   UNL     1      47.022   7.062  13.668  0.00  0.00    +0.000 N 
ATOM      3  H   UNL     1      46.632   7.979  13.456  0.00  0.00    +0.000 HD
BRANCH   2   4
ATOM      4  C   UNL     1      46.291   6.037  13.035  0.00  0.00    +0.000 A 
ATOM      5  C   UNL     1      45.893   6.181  11.701  0.00  0.00    +0.000 A 
ATOM      6  C   UNL     1      45.159   5.176  11.068  0.00  0.00    +0.000 A 
ATOM      7  C   UNL     1      44.801   4.053  11.803  0.00  0.00    +0.000 A 
ATOM      8  N   UNL     1      45.102   3.889  13.117  0.00  0.00    +0.000 NA
ATOM      9  C   UNL     1      45.815   4.892  13.690  0.00  0.00    +0.000 A 
BRANCH   7  10
ATOM     10  C   UNL     1      44.050   2.937  11.148  0.00  0.00    +0.000 C 
ATOM     11  N   UNL     1      44.674   2.366  10.063  0.00  0.00    +0.000 N 
ATOM     12  O   UNL     1      42.953   2.555  11.532  0.00  0.00    +0.000 OA
ATOM     13  H   UNL     1      45.582   2.710   9.773  0.00  0.00    +0.000 HD
ATOM     14  H   UNL     1      44.223   1.614   9.566  0.00  0.00    +0.000 HD
ENDBRANCH   7  10
ENDBRANCH   2   4
ENDBRANCH   1   2
BRANCH   1  15
ATOM     15  C   UNL     1      49.225   7.997  14.379  0.00  0.00    +0.000 C 
BRANCH  15  20
ATOM     16  C   UNL     1      49.985   5.416  17.099  0.00  0.00    +0.000 A 
ATOM     17  C   UNL     1      51.384   5.552  17.180  0.00  0.00    +0.000 A 
ATOM     18  C   UNL     1      52.069   6.504  16.423  0.00  0.00    +0.000 A 
ATOM     19  C   UNL     1      51.373   7.331  15.545  0.00  0.00    +0.000 A 
ATOM     20  C   UNL     1      49.983   7.227  15.441  0.00  0.00    +0.000 A 
ATOM     21  C   UNL     1      49.300   6.297  16.246  0.00  0.00    +0.000 A 
BRANCH  16  23
ATOM     22  C   UNL     1      49.347   4.564  19.354  0.00  0.00    +0.000 C 
ATOM     23  C   UNL     1      49.288   4.264  17.844  0.00  0.00    +0.000 C 
ATOM     24  C   UNL     1      47.850   4.068  17.351  0.00  0.00    +0.000 C 
ATOM     25  C   UNL     1      47.933   2.942  16.329  0.00  0.00    +0.000 C 
ATOM     26  O   UNL     1      49.255   2.397  16.380  0.00  0.00    +0.000 OA
ATOM     27  C   UNL     1      49.850   2.855  17.598  0.00  0.00    +0.000 C 
ENDBRANCH  16  23
ENDBRANCH  15  20
ENDBRANCH   1  15
TORSDOF 6
ENDMDL
MODEL 8
REMARK VINA RESULT:    -6.366      3.297      4.200
REMARK INTER + INTRA:          -9.578
REMARK INTER:                  -8.941
REMARK INTRA:                  -0.637
REMARK UNBOUND:                -0.980
REMARK  Name = 
REMARK  7 active torsions:
REMARK  status: ('A' for Active; 'I' for Inactive)
REMARK    1  A    between atoms: C_1  and  C_2
REMARK    2  A    between atoms: C_2  and  C_3
REMARK    3  A    between atoms: C_7  and  C_8
REMARK    4  A    between atoms: C_8  and  C_9
REMARK    5  A    between atoms: C_9  and  N_10
REMARK    6  A    between atoms: N_10  and  C_11
REMARK    7  A    between atoms: C_14  and  C_15
REMARK                            x       y       z     vdW  Elec       q    Type
REMARK                         _______ _______ _______ _____ _____    ______ ____
ROOT
ATOM      1  C   UNL     1      43.364   4.335  11.386  0.00  0.00    +0.000 C 
ENDROOT
BRANCH   1   2
ATOM      2  N   UNL     1      43.628   4.762  10.004  0.00  0.00    +0.000 N 
ATOM      3  H   UNL     1      43.885   5.746   9.944  0.00  0.00    +0.000 HD
BRANCH   2   4
ATOM      4  C   UNL     1      44.530   3.954   9.284  0.00  0.00    +0.000 A 
ATOM      5  C   UNL     1      44.501   2.563   9.437  0.00  0.00    +0.000 A 
ATOM      6  C   UNL     1      45.397   1.754   8.736  0.00  0.00    +0.000 A 
ATOM      7  C   UNL     1      46.340   2.363   7.918  0.00  0.00    +0.000 A 
ATOM      8  N   UNL     1      46.458   3.708   7.783  0.00  0.00    +0.000 NA
ATOM      9  C   UNL     1      45.567   4.454   8.483  0.00  0.00    +0.000 A 
BRANCH   7  10
ATOM     10  C   UNL     1      47.290   1.527   7.120  0.00  0.00    +0.000 C 
ATOM     11  N   UNL     1      47.069   0.171   7.175  0.00  0.00    +0.000 N 
ATOM     12  O   UNL     1      48.210   2.002   6.468  0.00  0.00    +0.000 OA
ATOM     13  H   UNL     1      46.298  -0.186   7.727  0.00  0.00    +0.000 HD
ATOM     14  H   UNL     1      47.677  -0.455   6.669  0.00  0.00    +0.000 HD
ENDBRANCH   7  10
ENDBRANCH   2   4
ENDBRANCH   1   2
BRANCH   1  15
ATOM     15  C   UNL     1      43.018   5.515  12.305  0.00  0.00    +0.000 C 
BRANCH  15  20
ATOM     16  C   UNL     1      43.923   9.002  11.016  0.00  0.00    +0.000 A 
ATOM     17  C   UNL     1      45.254   9.092  11.469  0.00  0.00    +0.000 A 
ATOM     18  C   UNL     1      45.875   8.025  12.118  0.00  0.00    +0.000 A 
ATOM     19  C   UNL     1      45.174   6.846  12.355  0.00  0.00    +0.000 A 
ATOM     20  C   UNL     1      43.853   6.719  11.917  0.00  0.00    +0.000 A 
ATOM     21  C   UNL     1      43.254   7.784  11.219  0.00  0.00    +0.000 A 
BRANCH  16  23
ATOM     22  C   UNL     1      43.885  10.560   9.069  0.00  0.00    +0.000 C 
ATOM     23  C   UNL     1      43.234  10.247  10.430  0.00  0.00    +0.000 C 
ATOM     24  C   UNL     1      41.719  10.043  10.310  0.00  0.00    +0.000 C 
ATOM     25  C   UNL     1      41.134  10.689  11.559  0.00  0.00    +0.000 C 
ATOM     26  O   UNL     1      42.188  11.386  12.230  0.00  0.00    +0.000 OA
ATOM     27  C   UNL     1      43.266  11.514  11.297  0.00  0.00    +0.000 C 
ENDBRANCH  16  23
ENDBRANCH  15  20
ENDBRANCH   1  15
TORSDOF 6
ENDMDL
MODEL 9
REMARK VINA RESULT:    -6.212      2.331      7.197
REMARK INTER + INTRA:          -9.370
REMARK INTER:                  -8.731
REMARK INTRA:                  -0.640
REMARK UNBOUND:                -0.980
REMARK  Name = 
REMARK  7 active torsions:
REMARK  status: ('A' for Active; 'I' for Inactive)
REMARK    1  A    between atoms: C_1  and  C_2
REMARK    2  A    between atoms: C_2  and  C_3
REMARK    3  A    between atoms: C_7  and  C_8
REMARK    4  A    between atoms: C_8  and  C_9
REMARK    5  A    between atoms: C_9  and  N_10
REMARK    6  A    between atoms: N_10  and  C_11
REMARK    7  A    between atoms: C_14  and  C_15
REMARK                            x       y       z     vdW  Elec       q    Type
REMARK                         _______ _______ _______ _____ _____    ______ ____
ROOT
ATOM      1  C   UNL     1      44.253   2.874  12.449  0.00  0.00    +0.000 C 
ENDROOT
BRANCH   1   2
ATOM      2  N   UNL     1      44.088   4.152  13.157  0.00  0.00    +0.000 N 
ATOM      3  H   UNL     1      43.587   4.046  14.038  0.00  0.00    +0.000 HD
BRANCH   2   4
ATOM      4  C   UNL     1      45.268   4.905  13.327  0.00  0.00    +0.000 A 
ATOM      5  C   UNL     1      45.318   6.236  12.900  0.00  0.00    +0.000 A 
ATOM      6  C   UNL     1      46.485   6.986  13.054  0.00  0.00    +0.000 A 
ATOM      7  C   UNL     1      47.602   6.370  13.603  0.00  0.00    +0.000 A 
ATOM      8  N   UNL     1      47.631   5.064  13.975  0.00  0.00    +0.000 NA
ATOM      9  C   UNL     1      46.475   4.375  13.805  0.00  0.00    +0.000 A 
BRANCH   7  10
ATOM     10  C   UNL     1      48.858   7.153  13.822  0.00  0.00    +0.000 C 
ATOM     11  N   UNL     1      48.973   8.301  13.074  0.00  0.00    +0.000 N 
ATOM     12  O   UNL     1      49.734   6.804  14.601  0.00  0.00    +0.000 OA
ATOM     13  H   UNL     1      48.226   8.558  12.438  0.00  0.00    +0.000 HD
ATOM     14  H   UNL     1      49.797   8.874  13.163  0.00  0.00    +0.000 HD
ENDBRANCH   7  10
ENDBRANCH   2   4
ENDBRANCH   1   2
BRANCH   1  15
ATOM     15  C   UNL     1      43.611   2.894  11.054  0.00  0.00    +0.000 C 
BRANCH  15  20
ATOM     16  C   UNL     1      46.143   2.686   8.193  0.00  0.00    +0.000 A 
ATOM     17  C   UNL     1      46.302   4.057   7.909  0.00  0.00    +0.000 A 
ATOM     18  C   UNL     1      45.662   5.037   8.667  0.00  0.00    +0.000 A 
ATOM     19  C   UNL     1      44.822   4.672   9.716  0.00  0.00    +0.000 A 
ATOM     20  C   UNL     1      44.642   3.322  10.030  0.00  0.00    +0.000 A 
ATOM     21  C   UNL     1      45.333   2.346   9.288  0.00  0.00    +0.000 A 
BRANCH  16  23
ATOM     22  C   UNL     1      46.380   0.240   7.776  0.00  0.00    +0.000 C 
ATOM     23  C   UNL     1      46.755   1.638   7.248  0.00  0.00    +0.000 C 
ATOM     24  C   UNL     1      46.294   1.851   5.802  0.00  0.00    +0.000 C 
ATOM     25  C   UNL     1      47.415   2.644   5.143  0.00  0.00    +0.000 C 
ATOM     26  O   UNL     1      48.512   2.702   6.059  0.00  0.00    +0.000 OA
ATOM     27  C   UNL     1      48.278   1.701   7.056  0.00  0.00    +0.000 C 
ENDBRANCH  16  23
ENDBRANCH  15  20
ENDBRANCH   1  15
TORSDOF 6
ENDMDL
