MODEL 1
REMARK VINA RESULT:    -8.469      0.000      0.000
REMARK INTER + INTRA:         -11.352
REMARK INTER:                 -10.945
REMARK INTRA:                  -0.407
REMARK UNBOUND:                -0.407
REMARK  Name = 
REMARK  5 active torsions:
REMARK  status: ('A' for Active; 'I' for Inactive)
REMARK    1  A    between atoms: C_2  and  C_4
REMARK    2  A    between atoms: C_8  and  N_9
REMARK    3  A    between atoms: N_9  and  C_10
REMARK    4  A    between atoms: C_10  and  C_11
REMARK    5  A    between atoms: C_15  and  C_16
REMARK                            x       y       z     vdW  Elec       q    Type
REMARK                         _______ _______ _______ _____ _____    ______ ____
ROOT
ATOM      1  N   UNL     1      44.285   2.509  10.879  0.00  0.00    +0.000 N 
ATOM      2  H   UNL     1      44.185   1.527  11.106  0.00  0.00    +0.000 HD
ENDROOT
BRANCH   1   7
ATOM      3  C   UNL     1      46.177   2.029   7.957  0.00  0.00    +0.000 A 
ATOM      4  N   UNL     1      45.949   3.096   7.156  0.00  0.00    +0.000 NA
ATOM      5  C   UNL     1      45.089   3.993   7.652  0.00  0.00    +0.000 A 
ATOM      6  C   UNL     1      44.482   3.864   8.881  0.00  0.00    +0.000 A 
ATOM      7  C   UNL     1      44.788   2.743   9.627  0.00  0.00    +0.000 A 
ATOM      8  N   UNL     1      45.635   1.813   9.171  0.00  0.00    +0.000 NA
BRANCH   3  10
ATOM      9  N   UNL     1      46.806  -0.314   7.677  0.00  0.00    +0.000 N 
ATOM     10  C   UNL     1      47.141   0.997   7.414  0.00  0.00    +0.000 C 
ATOM     11  O   UNL     1      48.156   1.264   6.782  0.00  0.00    +0.000 OA
ATOM     12  H   UNL     1      47.410  -1.053   7.350  0.00  0.00    +0.000 HD
ATOM     13  H   UNL     1      45.968  -0.525   8.205  0.00  0.00    +0.000 HD
ENDBRANCH   3  10
ENDBRANCH   1   7
BRANCH   1  14
ATOM     14  C   UNL     1      43.893   3.509  11.849  0.00  0.00    +0.000 C 
BRANCH  14  15
ATOM     15  C   UNL     1      45.079   4.284  12.391  0.00  0.00    +0.000 A 
ATOM     16  C   UNL     1      45.507   5.434  11.735  0.00  0.00    +0.000 A 
ATOM     17  C   UNL     1      46.574   6.148  12.261  0.00  0.00    +0.000 A 
ATOM     18  C   UNL     1      47.193   5.691  13.420  0.00  0.00    +0.000 A 
ATOM     19  C   UNL     1      46.730   4.529  14.037  0.00  0.00    +0.000 A 
ATOM     20  N   UNL     1      45.676   3.827  13.527  0.00  0.00    +0.000 NA
BRANCH  19  21
ATOM     21  C   UNL     1      47.333   4.019  15.288  0.00  0.00    +0.000 A 
ATOM     22  C   UNL     1      47.359   4.764  16.466  0.00  0.00    +0.000 A 
ATOM     23  N   UNL     1      47.939   4.334  17.620  0.00  0.00    +0.000 NA
ATOM     24  C   UNL     1      48.501   3.109  17.556  0.00  0.00    +0.000 A 
ATOM     25  C   UNL     1      48.479   2.348  16.402  0.00  0.00    +0.000 A 
ATOM     26  N   UNL     1      47.901   2.778  15.256  0.00  0.00    +0.000 NA
ENDBRANCH  19  21
ENDBRANCH  14  15
ENDBRANCH   1  14
TORSDOF 5
ENDMDL
MODEL 2
REMARK VINA RESULT:    -8.392      2.385      6.922
REMARK INTER + INTRA:         -11.252
REMARK INTER:                 -10.707
REMARK INTRA:                  -0.545
REMARK UNBOUND:                -0.407
REMARK  Name = 
REMARK  5 active torsions:
REMARK  status: ('A' for Active; 'I' for Inactive)
REMARK    1  A    between atoms: C_2  and  C_4
REMARK    2  A    between atoms: C_8  and  N_9
REMARK    3  A    between atoms: N_9  and  C_10
REMARK    4  A    between atoms: C_10  and  C_11
REMARK    5  A    between atoms: C_15  and  C_16
REMARK                            x       y       z     vdW  Elec       q    Type
REMARK                         _______ _______ _______ _____ _____    ______ ____
ROOT
ATOM      1  N   UNL     1      44.433   7.152  12.276  0.00  0.00    +0.000 N 
ATOM      2  H   UNL     1      44.089   7.882  12.888  0.00  0.00    +0.000 HD
ENDROOT
BRANCH   1   7
ATOM      3  C   UNL     1      47.018   5.302  13.774  0.00  0.00    +0.000 A 
ATOM      4  N   UNL     1      48.186   5.810  13.317  0.00  0.00    +0.000 NA
ATOM      5  C   UNL     1      48.055   6.815  12.442  0.00  0.00    +0.000 A 
ATOM      6  C   UNL     1      46.838   7.311  12.034  0.00  0.00    +0.000 A 
ATOM      7  C   UNL     1      45.703   6.732  12.566  0.00  0.00    +0.000 A 
ATOM      8  N   UNL     1      45.781   5.719  13.438  0.00  0.00    +0.000 NA
BRANCH   3  10
ATOM      9  N   UNL     1      46.796   4.468  16.059  0.00  0.00    +0.000 N 
ATOM     10  C   UNL     1      47.141   4.161  14.760  0.00  0.00    +0.000 C 
ATOM     11  O   UNL     1      47.515   3.032  14.466  0.00  0.00    +0.000 OA
ATOM     12  H   UNL     1      46.863   3.755  16.769  0.00  0.00    +0.000 HD
ATOM     13  H   UNL     1      46.493   5.406  16.292  0.00  0.00    +0.000 HD
ENDBRANCH   3  10
ENDBRANCH   1   7
BRANCH   1  14
ATOM     14  C   UNL     1      43.581   6.647  11.219  0.00  0.00    +0.000 C 
BRANCH  14  15
ATOM     15  C   UNL     1      43.750   5.154  11.005  0.00  0.00    +0.000 A 
ATOM     16  C   UNL     1      43.093   4.260  11.844  0.00  0.00    +0.000 A 
ATOM     17  C   UNL     1      43.234   2.899  11.615  0.00  0.00    +0.000 A 
ATOM     18  C   UNL     1      44.035   2.465  10.564  0.00  0.00    +0.000 A 
ATOM     19  C   UNL     1      44.678   3.402   9.755  0.00  0.00    +0.000 A 
ATOM     20  N   UNL     1      44.537   4.742   9.971  0.00  0.00    +0.000 NA
BRANCH  19  21
ATOM     21  C   UNL     1      45.515   2.993   8.605  0.00  0.00    +0.000 A 
ATOM     22  C   UNL     1      46.003   1.696   8.456  0.00  0.00    +0.000 A 
ATOM     23  N   UNL     1      46.803   1.303   7.428  0.00  0.00    +0.000 NA
ATOM     24  C   UNL     1      47.104   2.269   6.534  0.00  0.00    +0.000 A 
ATOM     25  C   UNL     1      46.623   3.560   6.656  0.00  0.00    +0.000 A 
ATOM     26  N   UNL     1      45.827   3.948   7.680  0.00  0.00    +0.000 NA
ENDBRANCH  19  21
ENDBRANCH  14  15
ENDBRANCH   1  14
TORSDOF 5
ENDMDL
MODEL 3
REMARK VINA RESULT:    -8.046      2.307      3.940
REMARK INTER + INTRA:         -10.805
REMARK INTER:                 -10.299
REMARK INTRA:                  -0.506
REMARK UNBOUND:                -0.407
REMARK  Name = 
REMARK  5 active torsions:
REMARK  status: ('A' for Active; 'I' for Inactive)
REMARK    1  A    between atoms: C_2  and  C_4
REMARK    2  A    between atoms: C_8  and  N_9
REMARK    3  A    between atoms: N_9  and  C_10
REMARK    4  A    between atoms: C_10  and  C_11
REMARK    5  A    between atoms: C_15  and  C_16
REMARK                            x       y       z     vdW  Elec       q    Type
REMARK                         _______ _______ _______ _____ _____    ______ ____
ROOT
ATOM      1  N   UNL     1      43.937   2.247  10.641  0.00  0.00    +0.000 N 
ATOM      2  H   UNL     1      43.659   1.274  10.634  0.00  0.00    +0.000 HD
ENDROOT
BRANCH   1   7
ATOM      3  C   UNL     1      46.240   2.040   7.995  0.00  0.00    +0.000 A 
ATOM      4  N   UNL     1      46.258   3.250   7.388  0.00  0.00    +0.000 NA
ATOM      5  C   UNL     1      45.419   4.151   7.914  0.00  0.00    +0.000 A 
ATOM      6  C   UNL     1      44.603   3.891   8.991  0.00  0.00    +0.000 A 
ATOM      7  C   UNL     1      44.666   2.628   9.546  0.00  0.00    +0.000 A 
ATOM      8  N   UNL     1      45.481   1.689   9.052  0.00  0.00    +0.000 NA
BRANCH   3  10
ATOM      9  N   UNL     1      46.832  -0.307   7.673  0.00  0.00    +0.000 N 
ATOM     10  C   UNL     1      47.175   1.002   7.414  0.00  0.00    +0.000 C 
ATOM     11  O   UNL     1      48.175   1.264   6.756  0.00  0.00    +0.000 OA
ATOM     12  H   UNL     1      47.417  -1.050   7.322  0.00  0.00    +0.000 HD
ATOM     13  H   UNL     1      46.007  -0.513   8.224  0.00  0.00    +0.000 HD
ENDBRANCH   3  10
ENDBRANCH   1   7
BRANCH   1  14
ATOM     14  C   UNL     1      43.544   3.093  11.749  0.00  0.00    +0.000 C 
BRANCH  14  15
ATOM     15  C   UNL     1      44.707   3.893  12.306  0.00  0.00    +0.000 A 
ATOM     16  C   UNL     1      45.746   3.233  12.955  0.00  0.00    +0.000 A 
ATOM     17  C   UNL     1      46.817   3.976  13.432  0.00  0.00    +0.000 A 
ATOM     18  C   UNL     1      46.817   5.357  13.260  0.00  0.00    +0.000 A 
ATOM     19  C   UNL     1      45.748   5.971  12.608  0.00  0.00    +0.000 A 
ATOM     20  N   UNL     1      44.696   5.244  12.131  0.00  0.00    +0.000 NA
BRANCH  19  21
ATOM     21  C   UNL     1      45.716   7.432  12.371  0.00  0.00    +0.000 A 
ATOM     22  C   UNL     1      44.725   8.047  11.608  0.00  0.00    +0.000 A 
ATOM     23  N   UNL     1      44.693   9.381  11.345  0.00  0.00    +0.000 NA
ATOM     24  C   UNL     1      45.705  10.096  11.883  0.00  0.00    +0.000 A 
ATOM     25  C   UNL     1      46.693   9.509  12.651  0.00  0.00    +0.000 A 
ATOM     26  N   UNL     1      46.722   8.181  12.911  0.00  0.00    +0.000 NA
ENDBRANCH  19  21
ENDBRANCH  14  15
ENDBRANCH   1  14
TORSDOF 5
ENDMDL
MODEL 4
REMARK VINA RESULT:    -7.786      1.677      2.202
REMARK INTER + INTRA:         -10.469
REMARK INTER:                  -9.830
REMARK INTRA:                  -0.639
REMARK UNBOUND:                -0.407
REMARK  Name = 
REMARK  5 active torsions:
REMARK  status: ('A' for Active; 'I' for Inactive)
REMARK    1  A    between atoms: C_2  and  C_4
REMARK    2  A    between atoms: C_8  and  N_9
REMARK    3  A    between atoms: N_9  and  C_10
REMARK    4  A    between atoms: C_10  and  C_11
REMARK    5  A    between atoms: C_15  and  C_16
REMARK                            x       y       z     vdW  Elec       q    Type
REMARK                         _______ _______ _______ _____ _____    ______ ____
ROOT
ATOM      1  N   UNL     1      44.963   5.407   9.609  0.00  0.00    +0.000 N 
ATOM      2  H   UNL     1      44.886   6.124   8.898  0.00  0.00    +0.000 HD
ENDROOT
BRANCH   1   7
ATOM      3  C   UNL     1      46.348   2.959   7.502  0.00  0.00    +0.000 A 
ATOM      4  N   UNL     1      45.927   1.756   7.960  0.00  0.00    +0.000 NA
ATOM      5  C   UNL     1      45.155   1.813   9.052  0.00  0.00    +0.000 A 
ATOM      6  C   UNL     1      44.799   2.991   9.669  0.00  0.00    +0.000 A 
ATOM      7  C   UNL     1      45.271   4.166   9.119  0.00  0.00    +0.000 A 
ATOM      8  N   UNL     1      46.053   4.162   8.033  0.00  0.00    +0.000 NA
BRANCH   3  10
ATOM      9  N   UNL     1      48.540   2.565   6.501  0.00  0.00    +0.000 N 
ATOM     10  C   UNL     1      47.228   2.920   6.272  0.00  0.00    +0.000 C 
ATOM     11  O   UNL     1      46.842   3.177   5.138  0.00  0.00    +0.000 OA
ATOM     12  H   UNL     1      49.184   2.528   5.724  0.00  0.00    +0.000 HD
ATOM     13  H   UNL     1      48.851   2.360   7.443  0.00  0.00    +0.000 HD
ENDBRANCH   3  10
ENDBRANCH   1   7
BRANCH   1  14
ATOM     14  C   UNL     1      44.763   5.756  11.000  0.00  0.00    +0.000 C 
BRANCH  14  15
ATOM     15  C   UNL     1      46.065   6.086  11.706  0.00  0.00    +0.000 A 
ATOM     16  C   UNL     1      46.949   6.993  11.130  0.00  0.00    +0.000 A 
ATOM     17  C   UNL     1      48.120   7.306  11.804  0.00  0.00    +0.000 A 
ATOM     18  C   UNL     1      48.385   6.699  13.027  0.00  0.00    +0.000 A 
ATOM     19  C   UNL     1      47.470   5.791  13.559  0.00  0.00    +0.000 A 
ATOM     20  N   UNL     1      46.312   5.485  12.904  0.00  0.00    +0.000 NA
BRANCH  19  21
ATOM     21  C   UNL     1      47.689   5.143  14.871  0.00  0.00    +0.000 A 
ATOM     22  C   UNL     1      47.043   3.966  15.245  0.00  0.00    +0.000 A 
ATOM     23  N   UNL     1      47.199   3.370  16.457  0.00  0.00    +0.000 NA
ATOM     24  C   UNL     1      48.042   4.001  17.302  0.00  0.00    +0.000 A 
ATOM     25  C   UNL     1      48.702   5.164  16.950  0.00  0.00    +0.000 A 
ATOM     26  N   UNL     1      48.545   5.755  15.742  0.00  0.00    +0.000 NA
ENDBRANCH  19  21
ENDBRANCH  14  15
ENDBRANCH   1  14
TORSDOF 5
ENDMDL
MODEL 5
REMARK VINA RESULT:    -7.588      2.949      6.991
REMARK INTER + INTRA:         -10.212
REMARK INTER:                  -9.484
REMARK INTRA:                  -0.728
REMARK UNBOUND:                -0.407
REMARK  Name = 
REMARK  5 active torsions:
REMARK  status: ('A' for Active; 'I' for Inactive)
REMARK    1  A    between atoms: C_2  and  C_4
REMARK    2  A    between atoms: C_8  and  N_9
REMARK    3  A    between atoms: N_9  and  C_10
REMARK    4  A    between atoms: C_10  and  C_11
REMARK    5  A    between atoms: C_15  and  C_16
REMARK                            x       y       z     vdW  Elec       q    Type
REMARK                         _______ _______ _______ _____ _____    ______ ____
ROOT
ATOM      1  N   UNL     1      44.448   6.947  12.451  0.00  0.00    +0.000 N 
ATOM      2  H   UNL     1      44.006   7.575  13.111  0.00  0.00    +0.000 HD
ENDROOT
BRANCH   1   7
ATOM      3  C   UNL     1      47.960   7.012  12.532  0.00  0.00    +0.000 A 
ATOM      4  N   UNL     1      48.360   5.974  13.302  0.00  0.00    +0.000 NA
ATOM      5  C   UNL     1      47.362   5.248  13.822  0.00  0.00    +0.000 A 
ATOM      6  C   UNL     1      46.031   5.515  13.596  0.00  0.00    +0.000 A 
ATOM      7  C   UNL     1      45.727   6.592  12.787  0.00  0.00    +0.000 A 
ATOM      8  N   UNL     1      46.687   7.354  12.251  0.00  0.00    +0.000 NA
BRANCH   3  10
ATOM      9  N   UNL     1      50.341   7.342  12.098  0.00  0.00    +0.000 N 
ATOM     10  C   UNL     1      49.070   7.852  11.938  0.00  0.00    +0.000 C 
ATOM     11  O   UNL     1      48.896   8.913  11.351  0.00  0.00    +0.000 OA
ATOM     12  H   UNL     1      51.129   7.856  11.733  0.00  0.00    +0.000 HD
ATOM     13  H   UNL     1      50.475   6.467  12.590  0.00  0.00    +0.000 HD
ENDBRANCH   3  10
ENDBRANCH   1   7
BRANCH   1  14
ATOM     14  C   UNL     1      43.711   6.503  11.286  0.00  0.00    +0.000 C 
BRANCH  14  15
ATOM     15  C   UNL     1      43.845   5.010  11.051  0.00  0.00    +0.000 A 
ATOM     16  C   UNL     1      43.145   4.122  11.861  0.00  0.00    +0.000 A 
ATOM     17  C   UNL     1      43.255   2.761  11.614  0.00  0.00    +0.000 A 
ATOM     18  C   UNL     1      44.068   2.322  10.574  0.00  0.00    +0.000 A 
ATOM     19  C   UNL     1      44.755   3.253   9.794  0.00  0.00    +0.000 A 
ATOM     20  N   UNL     1      44.644   4.593  10.029  0.00  0.00    +0.000 NA
BRANCH  19  21
ATOM     21  C   UNL     1      45.606   2.839   8.657  0.00  0.00    +0.000 A 
ATOM     22  C   UNL     1      46.018   3.728   7.665  0.00  0.00    +0.000 A 
ATOM     23  N   UNL     1      46.769   3.366   6.590  0.00  0.00    +0.000 NA
ATOM     24  C   UNL     1      47.105   2.059   6.540  0.00  0.00    +0.000 A 
ATOM     25  C   UNL     1      46.717   1.162   7.517  0.00  0.00    +0.000 A 
ATOM     26  N   UNL     1      45.969   1.525   8.585  0.00  0.00    +0.000 NA
ENDBRANCH  19  21
ENDBRANCH  14  15
ENDBRANCH   1  14
TORSDOF 5
ENDMDL
MODEL 6
REMARK VINA RESULT:    -7.518      2.847      4.245
REMARK INTER + INTRA:         -10.122
REMARK INTER:                  -9.438
REMARK INTRA:                  -0.684
REMARK UNBOUND:                -0.407
REMARK  Name = 
REMARK  5 active torsions:
REMARK  status: ('A' for Active; 'I' for Inactive)
REMARK    1  A    between atoms: C_2  and  C_4
REMARK    2  A    between atoms: C_8  and  N_9
REMARK    3  A    between atoms: N_9  and  C_10
REMARK    4  A    between atoms: C_10  and  C_11
REMARK    5  A    between atoms: C_15  and  C_16
REMARK                            x       y       z     vdW  Elec       q    Type
REMARK                         _______ _______ _______ _____ _____    ______ ____
ROOT
ATOM      1  N   UNL     1      44.227   4.754   9.171  0.00  0.00    +0.000 N 
ATOM      2  H   UNL     1      44.096   5.439   8.437  0.00  0.00    +0.000 HD
ENDROOT
BRANCH   1   7
ATOM      3  C   UNL     1      46.349   2.681   7.288  0.00  0.00    +0.000 A 
ATOM      4  N   UNL     1      46.221   1.427   7.782  0.00  0.00    +0.000 NA
ATOM      5  C   UNL     1      45.382   1.319   8.819  0.00  0.00    +0.000 A 
ATOM      6  C   UNL     1      44.689   2.383   9.349  0.00  0.00    +0.000 A 
ATOM      7  C   UNL     1      44.880   3.621   8.768  0.00  0.00    +0.000 A 
ATOM      8  N   UNL     1      45.715   3.783   7.734  0.00  0.00    +0.000 NA
BRANCH   3  10
ATOM      9  N   UNL     1      48.624   2.582   6.404  0.00  0.00    +0.000 N 
ATOM     10  C   UNL     1      47.298   2.830   6.119  0.00  0.00    +0.000 C 
ATOM     11  O   UNL     1      46.955   3.147   4.986  0.00  0.00    +0.000 OA
ATOM     12  H   UNL     1      49.312   2.672   5.672  0.00  0.00    +0.000 HD
ATOM     13  H   UNL     1      48.898   2.327   7.345  0.00  0.00    +0.000 HD
ENDBRANCH   3  10
ENDBRANCH   1   7
BRANCH   1  14
ATOM     14  C   UNL     1      43.743   5.038  10.506  0.00  0.00    +0.000 C 
BRANCH  14  15
ATOM     15  C   UNL     1      44.872   5.248  11.497  0.00  0.00    +0.000 A 
ATOM     16  C   UNL     1      45.077   4.319  12.512  0.00  0.00    +0.000 A 
ATOM     17  C   UNL     1      46.134   4.511  13.392  0.00  0.00    +0.000 A 
ATOM     18  C   UNL     1      46.949   5.628  13.243  0.00  0.00    +0.000 A 
ATOM     19  C   UNL     1      46.697   6.534  12.213  0.00  0.00    +0.000 A 
ATOM     20  N   UNL     1      45.664   6.347  11.341  0.00  0.00    +0.000 NA
BRANCH  19  21
ATOM     21  C   UNL     1      47.554   7.720  11.992  0.00  0.00    +0.000 A 
ATOM     22  C   UNL     1      48.914   7.620  11.704  0.00  0.00    +0.000 A 
ATOM     23  N   UNL     1      49.732   8.694  11.533  0.00  0.00    +0.000 NA
ATOM     24  C   UNL     1      49.132   9.897  11.661  0.00  0.00    +0.000 A 
ATOM     25  C   UNL     1      47.783  10.020  11.936  0.00  0.00    +0.000 A 
ATOM     26  N   UNL     1      46.972   8.950  12.105  0.00  0.00    +0.000 NA
ENDBRANCH  19  21
ENDBRANCH  14  15
ENDBRANCH   1  14
TORSDOF 5
ENDMDL
MODEL 7
REMARK VINA RESULT:    -7.333      3.760      7.676
REMARK INTER + INTRA:          -9.884
REMARK INTER:                  -9.171
REMARK INTRA:                  -0.713
REMARK UNBOUND:                -0.407
REMARK  Name = 
REMARK  5 active torsions:
REMARK  status: ('A' for Active; 'I' for Inactive)
REMARK    1  A    between atoms: C_2  and  C_4
REMARK    2  A    between atoms: C_8  and  N_9
REMARK    3  A    between atoms: N_9  and  C_10
REMARK    4  A    between atoms: C_10  and  C_11
REMARK    5  A    between atoms: C_15  and  C_16
REMARK                            x       y       z     vdW  Elec       q    Type
REMARK                         _______ _______ _______ _____ _____    ______ ____
ROOT
ATOM      1  N   UNL     1      48.571   6.793  16.372  0.00  0.00    +0.000 N 
ATOM      2  H   UNL     1      47.840   7.456  16.600  0.00  0.00    +0.000 HD
ENDROOT
BRANCH   1   7
ATOM      3  C   UNL     1      49.274   3.561  17.560  0.00  0.00    +0.000 A 
ATOM      4  N   UNL     1      48.869   3.516  18.850  0.00  0.00    +0.000 NA
ATOM      5  C   UNL     1      48.356   4.661  19.316  0.00  0.00    +0.000 A 
ATOM      6  C   UNL     1      48.234   5.802  18.556  0.00  0.00    +0.000 A 
ATOM      7  C   UNL     1      48.668   5.744  17.246  0.00  0.00    +0.000 A 
ATOM      8  N   UNL     1      49.196   4.625  16.736  0.00  0.00    +0.000 NA
BRANCH   3  10
ATOM      9  N   UNL     1      50.845   1.706  17.793  0.00  0.00    +0.000 N 
ATOM     10  C   UNL     1      49.864   2.280  17.012  0.00  0.00    +0.000 C 
ATOM     11  O   UNL     1      49.523   1.757  15.958  0.00  0.00    +0.000 OA
ATOM     12  H   UNL     1      51.287   0.854  17.482  0.00  0.00    +0.000 HD
ATOM     13  H   UNL     1      51.125   2.150  18.659  0.00  0.00    +0.000 HD
ENDBRANCH   3  10
ENDBRANCH   1   7
BRANCH   1  14
ATOM     14  C   UNL     1      49.387   7.008  15.195  0.00  0.00    +0.000 C 
BRANCH  14  15
ATOM     15  C   UNL     1      48.579   6.944  13.912  0.00  0.00    +0.000 A 
ATOM     16  C   UNL     1      49.014   7.642  12.790  0.00  0.00    +0.000 A 
ATOM     17  C   UNL     1      48.280   7.548  11.616  0.00  0.00    +0.000 A 
ATOM     18  C   UNL     1      47.127   6.771  11.595  0.00  0.00    +0.000 A 
ATOM     19  C   UNL     1      46.728   6.096  12.750  0.00  0.00    +0.000 A 
ATOM     20  N   UNL     1      47.451   6.179  13.904  0.00  0.00    +0.000 NA
BRANCH  19  21
ATOM     21  C   UNL     1      45.528   5.231  12.771  0.00  0.00    +0.000 A 
ATOM     22  C   UNL     1      45.597   3.847  12.615  0.00  0.00    +0.000 A 
ATOM     23  N   UNL     1      44.506   3.034  12.594  0.00  0.00    +0.000 NA
ATOM     24  C   UNL     1      43.320   3.662  12.738  0.00  0.00    +0.000 A 
ATOM     25  C   UNL     1      43.228   5.032  12.904  0.00  0.00    +0.000 A 
ATOM     26  N   UNL     1      44.315   5.838  12.925  0.00  0.00    +0.000 NA
ENDBRANCH  19  21
ENDBRANCH  14  15
ENDBRANCH   1  14
TORSDOF 5
ENDMDL
MODEL 8
REMARK VINA RESULT:    -7.256      2.762      7.520
REMARK INTER + INTRA:          -9.783
REMARK INTER:                  -9.183
REMARK INTRA:                  -0.600
REMARK UNBOUND:                -0.407
REMARK  Name = 
REMARK  5 active torsions:
REMARK  status: ('A' for Active; 'I' for Inactive)
REMARK    1  A    between atoms: C_2  and  C_4
REMARK    2  A    between atoms: C_8  and  N_9
REMARK    3  A    between atoms: N_9  and  C_10
REMARK    4  A    between atoms: C_10  and  C_11
REMARK    5  A    between atoms: C_15  and  C_16
REMARK                            x       y       z     vdW  Elec       q    Type
REMARK                         _______ _______ _______ _____ _____    ______ ____
ROOT
ATOM      1  N   UNL     1      47.170   6.536  13.025  0.00  0.00    +0.000 N 
ATOM      2  H   UNL     1      47.747   6.539  12.194  0.00  0.00    +0.000 HD
ENDROOT
BRANCH   1   7
ATOM      3  C   UNL     1      48.087   4.812  15.947  0.00  0.00    +0.000 A 
ATOM      4  N   UNL     1      49.064   5.533  16.544  0.00  0.00    +0.000 NA
ATOM      5  C   UNL     1      49.422   6.642  15.885  0.00  0.00    +0.000 A 
ATOM      6  C   UNL     1      48.847   7.039  14.699  0.00  0.00    +0.000 A 
ATOM      7  C   UNL     1      47.850   6.240  14.176  0.00  0.00    +0.000 A 
ATOM      8  N   UNL     1      47.463   5.116  14.792  0.00  0.00    +0.000 NA
BRANCH   3  10
ATOM      9  N   UNL     1      48.688   2.656  16.923  0.00  0.00    +0.000 N 
ATOM     10  C   UNL     1      47.670   3.550  16.670  0.00  0.00    +0.000 C 
ATOM     11  O   UNL     1      46.523   3.301  17.022  0.00  0.00    +0.000 OA
ATOM     12  H   UNL     1      48.478   1.789  17.395  0.00  0.00    +0.000 HD
ATOM     13  H   UNL     1      49.632   2.867  16.623  0.00  0.00    +0.000 HD
ENDBRANCH   3  10
ENDBRANCH   1   7
BRANCH   1  14
ATOM     14  C   UNL     1      45.759   6.842  12.916  0.00  0.00    +0.000 C 
BRANCH  14  15
ATOM     15  C   UNL     1      44.979   5.736  12.230  0.00  0.00    +0.000 A 
ATOM     16  C   UNL     1      43.743   5.349  12.738  0.00  0.00    +0.000 A 
ATOM     17  C   UNL     1      43.029   4.356  12.081  0.00  0.00    +0.000 A 
ATOM     18  C   UNL     1      43.571   3.768  10.944  0.00  0.00    +0.000 A 
ATOM     19  C   UNL     1      44.818   4.187  10.478  0.00  0.00    +0.000 A 
ATOM     20  N   UNL     1      45.521   5.167  11.116  0.00  0.00    +0.000 NA
BRANCH  19  21
ATOM     21  C   UNL     1      45.424   3.616   9.254  0.00  0.00    +0.000 A 
ATOM     22  C   UNL     1      45.857   4.408   8.192  0.00  0.00    +0.000 A 
ATOM     23  N   UNL     1      46.383   3.907   7.041  0.00  0.00    +0.000 NA
ATOM     24  C   UNL     1      46.465   2.560   6.988  0.00  0.00    +0.000 A 
ATOM     25  C   UNL     1      46.051   1.755   8.033  0.00  0.00    +0.000 A 
ATOM     26  N   UNL     1      45.528   2.257   9.176  0.00  0.00    +0.000 NA
ENDBRANCH  19  21
ENDBRANCH  14  15
ENDBRANCH   1  14
TORSDOF 5
ENDMDL
MODEL 9
REMARK VINA RESULT:    -7.186      1.882      2.959
REMARK INTER + INTRA:          -9.694
REMARK INTER:                  -8.934
REMARK INTRA:                  -0.759
REMARK UNBOUND:                -0.407
REMARK  Name = 
REMARK  5 active torsions:
REMARK  status: ('A' for Active; 'I' for Inactive)
REMARK    1  A    between atoms: C_2  and  C_4
REMARK    2  A    between atoms: C_8  and  N_9
REMARK    3  A    between atoms: N_9  and  C_10
REMARK    4  A    between atoms: C_10  and  C_11
REMARK    5  A    between atoms: C_15  and  C_16
REMARK                            x       y       z     vdW  Elec       q    Type
REMARK                         _______ _______ _______ _____ _____    ______ ____
ROOT
ATOM      1  N   UNL     1      44.428   6.694  10.800  0.00  0.00    +0.000 N 
ATOM      2  H   UNL     1      44.278   7.133   9.900  0.00  0.00    +0.000 HD
ENDROOT
BRANCH   1   7
ATOM      3  C   UNL     1      44.605   3.331   9.794  0.00  0.00    +0.000 A 
ATOM      4  N   UNL     1      43.805   2.624  10.627  0.00  0.00    +0.000 NA
ATOM      5  C   UNL     1      43.209   3.352  11.579  0.00  0.00    +0.000 A 
ATOM      6  C   UNL     1      43.375   4.711  11.712  0.00  0.00    +0.000 A 
ATOM      7  C   UNL     1      44.204   5.343  10.805  0.00  0.00    +0.000 A 
ATOM      8  N   UNL     1      44.830   4.659   9.841  0.00  0.00    +0.000 NA
BRANCH   3  10
ATOM      9  N   UNL     1      45.575   3.224   7.555  0.00  0.00    +0.000 N 
ATOM     10  C   UNL     1      45.296   2.529   8.713  0.00  0.00    +0.000 C 
ATOM     11  O   UNL     1      45.602   1.348   8.817  0.00  0.00    +0.000 OA
ATOM     12  H   UNL     1      46.028   2.747   6.790  0.00  0.00    +0.000 HD
ATOM     13  H   UNL     1      45.313   4.199   7.476  0.00  0.00    +0.000 HD
ENDBRANCH   3  10
ENDBRANCH   1   7
BRANCH   1  14
ATOM     14  C   UNL     1      44.854   7.499  11.926  0.00  0.00    +0.000 C 
BRANCH  14  15
ATOM     15  C   UNL     1      46.274   7.184  12.356  0.00  0.00    +0.000 A 
ATOM     16  C   UNL     1      47.343   7.699  11.629  0.00  0.00    +0.000 A 
ATOM     17  C   UNL     1      48.635   7.427  12.055  0.00  0.00    +0.000 A 
ATOM     18  C   UNL     1      48.828   6.640  13.185  0.00  0.00    +0.000 A 
ATOM     19  C   UNL     1      47.723   6.141  13.876  0.00  0.00    +0.000 A 
ATOM     20  N   UNL     1      46.450   6.412  13.466  0.00  0.00    +0.000 NA
BRANCH  19  21
ATOM     21  C   UNL     1      47.874   5.327  15.101  0.00  0.00    +0.000 A 
ATOM     22  C   UNL     1      47.072   4.219  15.370  0.00  0.00    +0.000 A 
ATOM     23  N   UNL     1      47.165   3.475  16.505  0.00  0.00    +0.000 NA
ATOM     24  C   UNL     1      48.109   3.883  17.381  0.00  0.00    +0.000 A 
ATOM     25  C   UNL     1      48.923   4.972  17.132  0.00  0.00    +0.000 A 
ATOM     26  N   UNL     1      48.828   5.710  16.001  0.00  0.00    +0.000 NA
ENDBRANCH  19  21
ENDBRANCH  14  15
ENDBRANCH   1  14
TORSDOF 5
ENDMDL
