MODEL 1
REMARK VINA RESULT:    -9.029      0.000      0.000
REMARK INTER + INTRA:         -12.283
REMARK INTER:                 -11.669
REMARK INTRA:                  -0.615
REMARK UNBOUND:                -0.615
REMARK  Name = 
REMARK  6 active torsions:
REMARK  status: ('A' for Active; 'I' for Inactive)
REMARK    1  A    between atoms: C_1  and  C_2
REMARK    2  A    between atoms: C_2  and  N_3
REMARK    3  A    between atoms: C_2  and  C_16
REMARK    4  A    between atoms: C_4  and  C_6
REMARK    5  A    between atoms: C_19  and  O_20
REMARK    6  A    between atoms: O_20  and  C_21
REMARK                            x       y       z     vdW  Elec       q    Type
REMARK                         _______ _______ _______ _____ _____    ______ ____
ROOT
ATOM      1  C   UNL     1      45.667   8.426  12.873  0.00  0.00    +0.000 C 
ATOM      2  C   UNL     1      46.630   7.243  12.731  0.00  0.00    +0.000 C 
ENDROOT
BRANCH   2   3
ATOM      3  C   UNL     1      45.999   6.204  11.818  0.00  0.00    +0.000 A 
ATOM      4  C   UNL     1      45.371   5.098  12.411  0.00  0.00    +0.000 A 
ATOM      5  C   UNL     1      44.879   4.051  11.634  0.00  0.00    +0.000 A 
ATOM      6  C   UNL     1      44.954   4.109  10.242  0.00  0.00    +0.000 A 
ATOM      7  C   UNL     1      45.581   5.199   9.638  0.00  0.00    +0.000 A 
ATOM      8  C   UNL     1      46.108   6.234  10.418  0.00  0.00    +0.000 A 
BRANCH   6   9
ATOM      9  O   UNL     1      44.523   3.106   9.403  0.00  0.00    +0.000 OA
BRANCH   9  10
ATOM     10  C   UNL     1      45.411   2.601   8.462  0.00  0.00    +0.000 A 
ATOM     11  C   UNL     1      45.687   3.408   7.370  0.00  0.00    +0.000 A 
ATOM     12  C   UNL     1      46.584   2.938   6.413  0.00  0.00    +0.000 A 
ATOM     13  C   UNL     1      47.165   1.685   6.581  0.00  0.00    +0.000 A 
ATOM     14  C   UNL     1      46.809   0.940   7.691  0.00  0.00    +0.000 A 
ATOM     15  N   UNL     1      45.932   1.362   8.624  0.00  0.00    +0.000 NA
ENDBRANCH   9  10
ENDBRANCH   6   9
ENDBRANCH   2   3
BRANCH   2  16
ATOM     16  N   UNL     1      47.009   6.717  14.029  0.00  0.00    +0.000 N 
ATOM     17  C   UNL     1      48.321   6.578  14.399  0.00  0.00    +0.000 C 
ATOM     18  O   UNL     1      49.250   6.836  13.637  0.00  0.00    +0.000 OA
ATOM     19  H   UNL     1      46.277   6.380  14.644  0.00  0.00    +0.000 HD
BRANCH  17  20
ATOM     20  C   UNL     1      48.576   6.165  15.788  0.00  0.00    +0.000 A 
ATOM     21  C   UNL     1      49.294   7.000  16.631  0.00  0.00    +0.000 A 
ATOM     22  S   UNL     1      49.472   6.389  18.215  0.00  0.00    +0.000 S 
ATOM     23  C   UNL     1      48.639   4.963  17.807  0.00  0.00    +0.000 A 
ATOM     24  N   UNL     1      48.454   3.964  18.706  0.00  0.00    +0.000 NA
ATOM     25  N   UNL     1      47.870   2.911  18.344  0.00  0.00    +0.000 NA
ATOM     26  N   UNL     1      47.408   2.811  17.063  0.00  0.00    +0.000 N 
ATOM     27  C   UNL     1      47.493   3.783  16.094  0.00  0.00    +0.000 A 
ATOM     28  O   UNL     1      46.980   3.643  14.991  0.00  0.00    +0.000 OA
ATOM     29  C   UNL     1      48.207   4.970  16.502  0.00  0.00    +0.000 A 
ATOM     30  H   UNL     1      46.934   1.949  16.829  0.00  0.00    +0.000 HD
ENDBRANCH  17  20
ENDBRANCH   2  16
TORSDOF 5
ENDMDL
MODEL 2
REMARK VINA RESULT:    -8.089      2.811      3.854
REMARK INTER + INTRA:         -11.068
REMARK INTER:                  -9.991
REMARK INTRA:                  -1.077
REMARK UNBOUND:                -0.615
REMARK  Name = 
REMARK  6 active torsions:
REMARK  status: ('A' for Active; 'I' for Inactive)
REMARK    1  A    between atoms: C_1  and  C_2
REMARK    2  A    between atoms: C_2  and  N_3
REMARK    3  A    between atoms: C_2  and  C_16
REMARK    4  A    between atoms: C_4  and  C_6
REMARK    5  A    between atoms: C_19  and  O_20
REMARK    6  A    between atoms: O_20  and  C_21
REMARK                            x       y       z     vdW  Elec       q    Type
REMARK                         _______ _______ _______ _____ _____    ______ ____
ROOT
ATOM      1  C   UNL     1      46.704   4.615  14.567  0.00  0.00    +0.000 C 
ATOM      2  C   UNL     1      46.383   5.752  13.593  0.00  0.00    +0.000 C 
ENDROOT
BRANCH   2   3
ATOM      3  C   UNL     1      45.829   5.156  12.308  0.00  0.00    +0.000 A 
ATOM      4  C   UNL     1      45.308   3.854  12.356  0.00  0.00    +0.000 A 
ATOM      5  C   UNL     1      44.895   3.202  11.195  0.00  0.00    +0.000 A 
ATOM      6  C   UNL     1      44.942   3.858   9.964  0.00  0.00    +0.000 A 
ATOM      7  C   UNL     1      45.464   5.151   9.899  0.00  0.00    +0.000 A 
ATOM      8  C   UNL     1      45.913   5.792  11.059  0.00  0.00    +0.000 A 
BRANCH   6   9
ATOM      9  O   UNL     1      44.586   3.279   8.767  0.00  0.00    +0.000 OA
BRANCH   9  10
ATOM     10  C   UNL     1      45.571   2.653   8.013  0.00  0.00    +0.000 A 
ATOM     11  C   UNL     1      46.027   3.334   6.896  0.00  0.00    +0.000 A 
ATOM     12  C   UNL     1      47.024   2.741   6.124  0.00  0.00    +0.000 A 
ATOM     13  C   UNL     1      47.522   1.496   6.495  0.00  0.00    +0.000 A 
ATOM     14  C   UNL     1      46.987   0.881   7.612  0.00  0.00    +0.000 A 
ATOM     15  N   UNL     1      46.010   1.423   8.367  0.00  0.00    +0.000 NA
ENDBRANCH   9  10
ENDBRANCH   6   9
ENDBRANCH   2   3
BRANCH   2  16
ATOM     16  N   UNL     1      47.537   6.605  13.382  0.00  0.00    +0.000 N 
ATOM     17  C   UNL     1      47.446   7.972  13.433  0.00  0.00    +0.000 C 
ATOM     18  O   UNL     1      46.377   8.554  13.601  0.00  0.00    +0.000 OA
ATOM     19  H   UNL     1      48.416   6.172  13.122  0.00  0.00    +0.000 HD
BRANCH  17  20
ATOM     20  C   UNL     1      48.708   8.722  13.341  0.00  0.00    +0.000 A 
ATOM     21  C   UNL     1      48.772   9.865  12.558  0.00  0.00    +0.000 A 
ATOM     22  S   UNL     1      50.295  10.634  12.586  0.00  0.00    +0.000 S 
ATOM     23  C   UNL     1      50.934   9.432  13.607  0.00  0.00    +0.000 A 
ATOM     24  N   UNL     1      52.229   9.453  14.009  0.00  0.00    +0.000 NA
ATOM     25  N   UNL     1      52.666   8.518  14.727  0.00  0.00    +0.000 NA
ATOM     26  N   UNL     1      51.816   7.520  15.112  0.00  0.00    +0.000 N 
ATOM     27  C   UNL     1      50.479   7.435  14.808  0.00  0.00    +0.000 A 
ATOM     28  O   UNL     1      49.767   6.546  15.261  0.00  0.00    +0.000 OA
ATOM     29  C   UNL     1      49.995   8.485  13.943  0.00  0.00    +0.000 A 
ATOM     30  H   UNL     1      52.215   6.801  15.700  0.00  0.00    +0.000 HD
ENDBRANCH  17  20
ENDBRANCH   2  16
TORSDOF 5
ENDMDL
MODEL 3
REMARK VINA RESULT:    -7.997      1.865      2.485
REMARK INTER + INTRA:         -10.950
REMARK INTER:                 -10.141
REMARK INTRA:                  -0.809
REMARK UNBOUND:                -0.615
REMARK  Name = 
REMARK  6 active torsions:
REMARK  status: ('A' for Active; 'I' for Inactive)
REMARK    1  A    between atoms: C_1  and  C_2
REMARK    2  A    between atoms: C_2  and  N_3
REMARK    3  A    between atoms: C_2  and  C_16
REMARK    4  A    between atoms: C_4  and  C_6
REMARK    5  A    between atoms: C_19  and  O_20
REMARK    6  A    between atoms: O_20  and  C_21
REMARK                            x       y       z     vdW  Elec       q    Type
REMARK                         _______ _______ _______ _____ _____    ______ ____
ROOT
ATOM      1  C   UNL     1      48.868   8.445  13.557  0.00  0.00    +0.000 C 
ATOM      2  C   UNL     1      48.518   7.016  13.984  0.00  0.00    +0.000 C 
ENDROOT
BRANCH   2   3
ATOM      3  C   UNL     1      47.406   6.495  13.088  0.00  0.00    +0.000 A 
ATOM      4  C   UNL     1      46.699   5.358  13.508  0.00  0.00    +0.000 A 
ATOM      5  C   UNL     1      45.750   4.757  12.683  0.00  0.00    +0.000 A 
ATOM      6  C   UNL     1      45.446   5.311  11.439  0.00  0.00    +0.000 A 
ATOM      7  C   UNL     1      46.144   6.438  11.005  0.00  0.00    +0.000 A 
ATOM      8  C   UNL     1      47.123   7.021  11.817  0.00  0.00    +0.000 A 
BRANCH   6   9
ATOM      9  O   UNL     1      44.548   4.765  10.550  0.00  0.00    +0.000 OA
BRANCH   9  10
ATOM     10  C   UNL     1      45.032   3.948   9.535  0.00  0.00    +0.000 A 
ATOM     11  C   UNL     1      44.935   2.581   9.737  0.00  0.00    +0.000 A 
ATOM     12  C   UNL     1      45.399   1.733   8.733  0.00  0.00    +0.000 A 
ATOM     13  C   UNL     1      45.941   2.280   7.575  0.00  0.00    +0.000 A 
ATOM     14  C   UNL     1      46.018   3.657   7.474  0.00  0.00    +0.000 A 
ATOM     15  N   UNL     1      45.593   4.502   8.436  0.00  0.00    +0.000 NA
ENDBRANCH   9  10
ENDBRANCH   6   9
ENDBRANCH   2   3
BRANCH   2  16
ATOM     16  N   UNL     1      48.198   6.955  15.397  0.00  0.00    +0.000 N 
ATOM     17  C   UNL     1      49.132   6.601  16.337  0.00  0.00    +0.000 C 
ATOM     18  O   UNL     1      50.273   6.260  16.034  0.00  0.00    +0.000 OA
ATOM     19  H   UNL     1      47.238   7.112  15.681  0.00  0.00    +0.000 HD
BRANCH  17  20
ATOM     20  C   UNL     1      48.725   6.709  17.746  0.00  0.00    +0.000 A 
ATOM     21  C   UNL     1      48.397   7.950  18.272  0.00  0.00    +0.000 A 
ATOM     22  S   UNL     1      47.915   7.898  19.908  0.00  0.00    +0.000 S 
ATOM     23  C   UNL     1      48.181   6.219  19.980  0.00  0.00    +0.000 A 
ATOM     24  N   UNL     1      47.992   5.516  21.125  0.00  0.00    +0.000 NA
ATOM     25  N   UNL     1      48.244   4.284  21.139  0.00  0.00    +0.000 NA
ATOM     26  N   UNL     1      48.671   3.678  19.993  0.00  0.00    +0.000 N 
ATOM     27  C   UNL     1      48.840   4.284  18.771  0.00  0.00    +0.000 A 
ATOM     28  O   UNL     1      49.150   3.650  17.770  0.00  0.00    +0.000 OA
ATOM     29  C   UNL     1      48.595   5.708  18.773  0.00  0.00    +0.000 A 
ATOM     30  H   UNL     1      48.845   2.684  20.056  0.00  0.00    +0.000 HD
ENDBRANCH  17  20
ENDBRANCH   2  16
TORSDOF 5
ENDMDL
MODEL 4
REMARK VINA RESULT:    -7.772      2.181      2.896
REMARK INTER + INTRA:         -10.658
REMARK INTER:                  -9.796
REMARK INTRA:                  -0.862
REMARK UNBOUND:                -0.615
REMARK  Name = 
REMARK  6 active torsions:
REMARK  status: ('A' for Active; 'I' for Inactive)
REMARK    1  A    between atoms: C_1  and  C_2
REMARK    2  A    between atoms: C_2  and  N_3
REMARK    3  A    between atoms: C_2  and  C_16
REMARK    4  A    between atoms: C_4  and  C_6
REMARK    5  A    between atoms: C_19  and  O_20
REMARK    6  A    between atoms: O_20  and  C_21
REMARK                            x       y       z     vdW  Elec       q    Type
REMARK                         _______ _______ _______ _____ _____    ______ ____
ROOT
ATOM      1  C   UNL     1      47.933   8.500  13.898  0.00  0.00    +0.000 C 
ATOM      2  C   UNL     1      48.081   6.976  13.900  0.00  0.00    +0.000 C 
ENDROOT
BRANCH   2   3
ATOM      3  C   UNL     1      47.077   6.384  12.922  0.00  0.00    +0.000 A 
ATOM      4  C   UNL     1      46.405   5.212  13.297  0.00  0.00    +0.000 A 
ATOM      5  C   UNL     1      45.563   4.551  12.404  0.00  0.00    +0.000 A 
ATOM      6  C   UNL     1      45.330   5.077  11.133  0.00  0.00    +0.000 A 
ATOM      7  C   UNL     1      45.997   6.240  10.743  0.00  0.00    +0.000 A 
ATOM      8  C   UNL     1      46.871   6.884  11.626  0.00  0.00    +0.000 A 
BRANCH   6   9
ATOM      9  O   UNL     1      44.541   4.474  10.179  0.00  0.00    +0.000 OA
BRANCH   9  10
ATOM     10  C   UNL     1      45.159   3.738   9.175  0.00  0.00    +0.000 A 
ATOM     11  C   UNL     1      45.290   2.375   9.393  0.00  0.00    +0.000 A 
ATOM     12  C   UNL     1      45.893   1.605   8.400  0.00  0.00    +0.000 A 
ATOM     13  C   UNL     1      46.341   2.223   7.237  0.00  0.00    +0.000 A 
ATOM     14  C   UNL     1      46.190   3.593   7.120  0.00  0.00    +0.000 A 
ATOM     15  N   UNL     1      45.626   4.365   8.071  0.00  0.00    +0.000 NA
ENDBRANCH   9  10
ENDBRANCH   6   9
ENDBRANCH   2   3
BRANCH   2  16
ATOM     16  N   UNL     1      47.965   6.438  15.242  0.00  0.00    +0.000 N 
ATOM     17  C   UNL     1      49.056   6.285  16.058  0.00  0.00    +0.000 C 
ATOM     18  O   UNL     1      50.199   6.538  15.682  0.00  0.00    +0.000 OA
ATOM     19  H   UNL     1      47.059   6.105  15.551  0.00  0.00    +0.000 HD
BRANCH  17  20
ATOM     20  C   UNL     1      48.792   5.861  17.441  0.00  0.00    +0.000 A 
ATOM     21  C   UNL     1      49.001   4.539  17.805  0.00  0.00    +0.000 A 
ATOM     22  S   UNL     1      48.681   4.221  19.451  0.00  0.00    +0.000 S 
ATOM     23  C   UNL     1      48.202   5.831  19.717  0.00  0.00    +0.000 A 
ATOM     24  N   UNL     1      47.762   6.253  20.929  0.00  0.00    +0.000 NA
ATOM     25  N   UNL     1      47.378   7.443  21.063  0.00  0.00    +0.000 NA
ATOM     26  N   UNL     1      47.441   8.290  19.994  0.00  0.00    +0.000 N 
ATOM     27  C   UNL     1      47.921   7.979  18.744  0.00  0.00    +0.000 A 
ATOM     28  O   UNL     1      48.019   8.822  17.861  0.00  0.00    +0.000 OA
ATOM     29  C   UNL     1      48.316   6.599  18.582  0.00  0.00    +0.000 A 
ATOM     30  H   UNL     1      47.133   9.238  20.161  0.00  0.00    +0.000 HD
ENDBRANCH  17  20
ENDBRANCH   2  16
TORSDOF 5
ENDMDL
MODEL 5
REMARK VINA RESULT:    -7.724      3.404      8.110
REMARK INTER + INTRA:         -10.596
REMARK INTER:                  -9.504
REMARK INTRA:                  -1.093
REMARK UNBOUND:                -0.615
REMARK  Name = 
REMARK  6 active torsions:
REMARK  status: ('A' for Active; 'I' for Inactive)
REMARK    1  A    between atoms: C_1  and  C_2
REMARK    2  A    between atoms: C_2  and  N_3
REMARK    3  A    between atoms: C_2  and  C_16
REMARK    4  A    between atoms: C_4  and  C_6
REMARK    5  A    between atoms: C_19  and  O_20
REMARK    6  A    between atoms: O_20  and  C_21
REMARK                            x       y       z     vdW  Elec       q    Type
REMARK                         _______ _______ _______ _____ _____    ______ ____
ROOT
ATOM      1  C   UNL     1      49.181   7.432  12.662  0.00  0.00    +0.000 C 
ATOM      2  C   UNL     1      47.953   6.966  13.449  0.00  0.00    +0.000 C 
ENDROOT
BRANCH   2   3
ATOM      3  C   UNL     1      48.410   6.419  14.792  0.00  0.00    +0.000 A 
ATOM      4  C   UNL     1      49.636   6.869  15.305  0.00  0.00    +0.000 A 
ATOM      5  C   UNL     1      50.172   6.321  16.469  0.00  0.00    +0.000 A 
ATOM      6  C   UNL     1      49.467   5.348  17.179  0.00  0.00    +0.000 A 
ATOM      7  C   UNL     1      48.249   4.886  16.679  0.00  0.00    +0.000 A 
ATOM      8  C   UNL     1      47.728   5.409  15.490  0.00  0.00    +0.000 A 
BRANCH   6   9
ATOM      9  O   UNL     1      49.936   4.732  18.318  0.00  0.00    +0.000 OA
BRANCH   9  10
ATOM     10  C   UNL     1      50.926   3.765  18.190  0.00  0.00    +0.000 A 
ATOM     11  C   UNL     1      50.572   2.596  17.535  0.00  0.00    +0.000 A 
ATOM     12  C   UNL     1      51.544   1.610  17.377  0.00  0.00    +0.000 A 
ATOM     13  C   UNL     1      52.823   1.827  17.879  0.00  0.00    +0.000 A 
ATOM     14  C   UNL     1      53.075   3.015  18.541  0.00  0.00    +0.000 A 
ATOM     15  N   UNL     1      52.150   3.979  18.723  0.00  0.00    +0.000 NA
ENDBRANCH   9  10
ENDBRANCH   6   9
ENDBRANCH   2   3
BRANCH   2  16
ATOM     16  N   UNL     1      47.164   6.022  12.680  0.00  0.00    +0.000 N 
ATOM     17  C   UNL     1      46.218   6.435  11.777  0.00  0.00    +0.000 C 
ATOM     18  O   UNL     1      45.943   7.621  11.609  0.00  0.00    +0.000 OA
ATOM     19  H   UNL     1      47.273   5.033  12.872  0.00  0.00    +0.000 HD
BRANCH  17  20
ATOM     20  C   UNL     1      45.583   5.390  10.961  0.00  0.00    +0.000 A 
ATOM     21  C   UNL     1      45.681   5.445   9.578  0.00  0.00    +0.000 A 
ATOM     22  S   UNL     1      44.920   4.141   8.782  0.00  0.00    +0.000 S 
ATOM     23  C   UNL     1      44.389   3.489  10.261  0.00  0.00    +0.000 A 
ATOM     24  N   UNL     1      43.634   2.363  10.314  0.00  0.00    +0.000 NA
ATOM     25  N   UNL     1      43.229   1.945  11.428  0.00  0.00    +0.000 NA
ATOM     26  N   UNL     1      43.587   2.617  12.562  0.00  0.00    +0.000 N 
ATOM     27  C   UNL     1      44.391   3.730  12.624  0.00  0.00    +0.000 A 
ATOM     28  O   UNL     1      44.730   4.225  13.691  0.00  0.00    +0.000 OA
ATOM     29  C   UNL     1      44.813   4.233  11.337  0.00  0.00    +0.000 A 
ATOM     30  H   UNL     1      43.246   2.230  13.432  0.00  0.00    +0.000 HD
ENDBRANCH  17  20
ENDBRANCH   2  16
TORSDOF 5
ENDMDL
MODEL 6
REMARK VINA RESULT:    -7.557      2.886      4.400
REMARK INTER + INTRA:         -10.381
REMARK INTER:                  -9.249
REMARK INTRA:                  -1.131
REMARK UNBOUND:                -0.615
REMARK  Name = 
REMARK  6 active torsions:
REMARK  status: ('A' for Active; 'I' for Inactive)
REMARK    1  A    between atoms: C_1  and  C_2
REMARK    2  A    between atoms: C_2  and  N_3
REMARK    3  A    between atoms: C_2  and  C_16
REMARK    4  A    between atoms: C_4  and  C_6
REMARK    5  A    between atoms: C_19  and  O_20
REMARK    6  A    between atoms: O_20  and  C_21
REMARK                            x       y       z     vdW  Elec       q    Type
REMARK                         _______ _______ _______ _____ _____    ______ ____
ROOT
ATOM      1  C   UNL     1      47.132   4.660  15.015  0.00  0.00    +0.000 C 
ATOM      2  C   UNL     1      47.030   5.833  14.036  0.00  0.00    +0.000 C 
ENDROOT
BRANCH   2   3
ATOM      3  C   UNL     1      46.305   5.365  12.784  0.00  0.00    +0.000 A 
ATOM      4  C   UNL     1      45.715   4.093  12.800  0.00  0.00    +0.000 A 
ATOM      5  C   UNL     1      45.140   3.554  11.650  0.00  0.00    +0.000 A 
ATOM      6  C   UNL     1      45.093   4.297  10.471  0.00  0.00    +0.000 A 
ATOM      7  C   UNL     1      45.682   5.562  10.437  0.00  0.00    +0.000 A 
ATOM      8  C   UNL     1      46.291   6.089  11.581  0.00  0.00    +0.000 A 
BRANCH   6   9
ATOM      9  O   UNL     1      44.574   3.830   9.284  0.00  0.00    +0.000 OA
BRANCH   9  10
ATOM     10  C   UNL     1      45.395   3.079   8.450  0.00  0.00    +0.000 A 
ATOM     11  C   UNL     1      45.926   3.731   7.349  0.00  0.00    +0.000 A 
ATOM     12  C   UNL     1      46.764   3.012   6.499  0.00  0.00    +0.000 A 
ATOM     13  C   UNL     1      47.035   1.677   6.779  0.00  0.00    +0.000 A 
ATOM     14  C   UNL     1      46.438   1.104   7.888  0.00  0.00    +0.000 A 
ATOM     15  N   UNL     1      45.610   1.771   8.718  0.00  0.00    +0.000 NA
ENDBRANCH   9  10
ENDBRANCH   6   9
ENDBRANCH   2   3
BRANCH   2  16
ATOM     16  N   UNL     1      48.335   6.407  13.767  0.00  0.00    +0.000 N 
ATOM     17  C   UNL     1      48.872   7.387  14.561  0.00  0.00    +0.000 C 
ATOM     18  O   UNL     1      48.260   7.876  15.508  0.00  0.00    +0.000 OA
ATOM     19  H   UNL     1      48.824   6.119  12.928  0.00  0.00    +0.000 HD
BRANCH  17  20
ATOM     20  C   UNL     1      50.256   7.789  14.268  0.00  0.00    +0.000 A 
ATOM     21  C   UNL     1      51.214   7.733  15.271  0.00  0.00    +0.000 A 
ATOM     22  S   UNL     1      52.773   8.200  14.759  0.00  0.00    +0.000 S 
ATOM     23  C   UNL     1      52.206   8.543  13.192  0.00  0.00    +0.000 A 
ATOM     24  N   UNL     1      53.027   9.027  12.226  0.00  0.00    +0.000 NA
ATOM     25  N   UNL     1      52.551   9.306  11.097  0.00  0.00    +0.000 NA
ATOM     26  N   UNL     1      51.224   9.085  10.859  0.00  0.00    +0.000 N 
ATOM     27  C   UNL     1      50.322   8.548  11.746  0.00  0.00    +0.000 A 
ATOM     28  O   UNL     1      49.165   8.307  11.426  0.00  0.00    +0.000 OA
ATOM     29  C   UNL     1      50.864   8.274  13.057  0.00  0.00    +0.000 A 
ATOM     30  H   UNL     1      50.897   9.314   9.931  0.00  0.00    +0.000 HD
ENDBRANCH  17  20
ENDBRANCH   2  16
TORSDOF 5
ENDMDL
MODEL 7
REMARK VINA RESULT:    -7.365      1.631      2.521
REMARK INTER + INTRA:         -10.133
REMARK INTER:                  -9.274
REMARK INTRA:                  -0.859
REMARK UNBOUND:                -0.615
REMARK  Name = 
REMARK  6 active torsions:
REMARK  status: ('A' for Active; 'I' for Inactive)
REMARK    1  A    between atoms: C_1  and  C_2
REMARK    2  A    between atoms: C_2  and  N_3
REMARK    3  A    between atoms: C_2  and  C_16
REMARK    4  A    between atoms: C_4  and  C_6
REMARK    5  A    between atoms: C_19  and  O_20
REMARK    6  A    between atoms: O_20  and  C_21
REMARK                            x       y       z     vdW  Elec       q    Type
REMARK                         _______ _______ _______ _____ _____    ______ ____
ROOT
ATOM      1  C   UNL     1      44.861   8.113  12.678  0.00  0.00    +0.000 C 
ATOM      2  C   UNL     1      46.056   7.168  12.534  0.00  0.00    +0.000 C 
ENDROOT
BRANCH   2   3
ATOM      3  C   UNL     1      45.756   6.161  11.434  0.00  0.00    +0.000 A 
ATOM      4  C   UNL     1      46.455   6.278  10.224  0.00  0.00    +0.000 A 
ATOM      5  C   UNL     1      46.144   5.466   9.134  0.00  0.00    +0.000 A 
ATOM      6  C   UNL     1      45.164   4.479   9.247  0.00  0.00    +0.000 A 
ATOM      7  C   UNL     1      44.456   4.355  10.443  0.00  0.00    +0.000 A 
ATOM      8  C   UNL     1      44.741   5.194  11.525  0.00  0.00    +0.000 A 
BRANCH   6   9
ATOM      9  O   UNL     1      44.773   3.658   8.214  0.00  0.00    +0.000 OA
BRANCH   9  10
ATOM     10  C   UNL     1      45.755   3.033   7.454  0.00  0.00    +0.000 A 
ATOM     11  C   UNL     1      46.274   1.852   7.958  0.00  0.00    +0.000 A 
ATOM     12  C   UNL     1      47.251   1.192   7.215  0.00  0.00    +0.000 A 
ATOM     13  C   UNL     1      47.671   1.737   6.005  0.00  0.00    +0.000 A 
ATOM     14  C   UNL     1      47.112   2.934   5.595  0.00  0.00    +0.000 A 
ATOM     15  N   UNL     1      46.178   3.603   6.302  0.00  0.00    +0.000 NA
ENDBRANCH   9  10
ENDBRANCH   6   9
ENDBRANCH   2   3
BRANCH   2  16
ATOM     16  N   UNL     1      46.395   6.552  13.803  0.00  0.00    +0.000 N 
ATOM     17  C   UNL     1      47.616   5.967  14.021  0.00  0.00    +0.000 C 
ATOM     18  O   UNL     1      48.469   5.877  13.141  0.00  0.00    +0.000 OA
ATOM     19  H   UNL     1      45.680   6.497  14.518  0.00  0.00    +0.000 HD
BRANCH  17  20
ATOM     20  C   UNL     1      47.890   5.501  15.389  0.00  0.00    +0.000 A 
ATOM     21  C   UNL     1      47.225   4.388  15.881  0.00  0.00    +0.000 A 
ATOM     22  S   UNL     1      47.681   3.961  17.469  0.00  0.00    +0.000 S 
ATOM     23  C   UNL     1      48.746   5.284  17.568  0.00  0.00    +0.000 A 
ATOM     24  N   UNL     1      49.457   5.544  18.693  0.00  0.00    +0.000 NA
ATOM     25  N   UNL     1      50.198   6.560  18.732  0.00  0.00    +0.000 NA
ATOM     26  N   UNL     1      50.292   7.359  17.629  0.00  0.00    +0.000 N 
ATOM     27  C   UNL     1      49.661   7.154  16.425  0.00  0.00    +0.000 A 
ATOM     28  O   UNL     1      49.864   7.876  15.457  0.00  0.00    +0.000 OA
ATOM     29  C   UNL     1      48.775   6.013  16.403  0.00  0.00    +0.000 A 
ATOM     30  H   UNL     1      50.912   8.153  17.709  0.00  0.00    +0.000 HD
ENDBRANCH  17  20
ENDBRANCH   2  16
TORSDOF 5
ENDMDL
MODEL 8
REMARK VINA RESULT:    -7.176      3.259      8.414
REMARK INTER + INTRA:          -9.889
REMARK INTER:                  -8.888
REMARK INTRA:                  -1.001
REMARK UNBOUND:                -0.615
REMARK  Name = 
REMARK  6 active torsions:
REMARK  status: ('A' for Active; 'I' for Inactive)
REMARK    1  A    between atoms: C_1  and  C_2
REMARK    2  A    between atoms: C_2  and  N_3
REMARK    3  A    between atoms: C_2  and  C_16
REMARK    4  A    between atoms: C_4  and  C_6
REMARK    5  A    between atoms: C_19  and  O_20
REMARK    6  A    between atoms: O_20  and  C_21
REMARK                            x       y       z     vdW  Elec       q    Type
REMARK                         _______ _______ _______ _____ _____    ______ ____
ROOT
ATOM      1  C   UNL     1      49.405   8.112  11.466  0.00  0.00    +0.000 C 
ATOM      2  C   UNL     1      48.315   7.629  12.426  0.00  0.00    +0.000 C 
ENDROOT
BRANCH   2   3
ATOM      3  C   UNL     1      48.957   7.274  13.758  0.00  0.00    +0.000 A 
ATOM      4  C   UNL     1      48.262   6.407  14.615  0.00  0.00    +0.000 A 
ATOM      5  C   UNL     1      48.734   6.134  15.898  0.00  0.00    +0.000 A 
ATOM      6  C   UNL     1      49.942   6.680  16.335  0.00  0.00    +0.000 A 
ATOM      7  C   UNL     1      50.641   7.550  15.497  0.00  0.00    +0.000 A 
ATOM      8  C   UNL     1      50.149   7.853  14.223  0.00  0.00    +0.000 A 
BRANCH   6   9
ATOM      9  O   UNL     1      50.463   6.490  17.595  0.00  0.00    +0.000 OA
BRANCH   9  10
ATOM     10  C   UNL     1      49.591   6.207  18.639  0.00  0.00    +0.000 A 
ATOM     11  C   UNL     1      48.922   7.284  19.200  0.00  0.00    +0.000 A 
ATOM     12  C   UNL     1      48.030   7.035  20.240  0.00  0.00    +0.000 A 
ATOM     13  C   UNL     1      47.843   5.728  20.680  0.00  0.00    +0.000 A 
ATOM     14  C   UNL     1      48.574   4.722  20.076  0.00  0.00    +0.000 A 
ATOM     15  N   UNL     1      49.457   4.935  19.079  0.00  0.00    +0.000 NA
ENDBRANCH   9  10
ENDBRANCH   6   9
ENDBRANCH   2   3
BRANCH   2  16
ATOM     16  N   UNL     1      47.549   6.542  11.847  0.00  0.00    +0.000 N 
ATOM     17  C   UNL     1      46.207   6.659  11.588  0.00  0.00    +0.000 C 
ATOM     18  O   UNL     1      45.566   7.664  11.883  0.00  0.00    +0.000 OA
ATOM     19  H   UNL     1      48.011   5.653  11.697  0.00  0.00    +0.000 HD
BRANCH  17  20
ATOM     20  C   UNL     1      45.572   5.541  10.874  0.00  0.00    +0.000 A 
ATOM     21  C   UNL     1      45.673   5.464   9.492  0.00  0.00    +0.000 A 
ATOM     22  S   UNL     1      44.912   4.091   8.823  0.00  0.00    +0.000 S 
ATOM     23  C   UNL     1      44.378   3.583  10.357  0.00  0.00    +0.000 A 
ATOM     24  N   UNL     1      43.621   2.468  10.515  0.00  0.00    +0.000 NA
ATOM     25  N   UNL     1      43.214   2.159  11.664  0.00  0.00    +0.000 NA
ATOM     26  N   UNL     1      43.570   2.935  12.729  0.00  0.00    +0.000 N 
ATOM     27  C   UNL     1      44.376   4.048  12.686  0.00  0.00    +0.000 A 
ATOM     28  O   UNL     1      44.714   4.643  13.702  0.00  0.00    +0.000 OA
ATOM     29  C   UNL     1      44.801   4.426  11.357  0.00  0.00    +0.000 A 
ATOM     30  H   UNL     1      43.228   2.633  13.631  0.00  0.00    +0.000 HD
ENDBRANCH  17  20
ENDBRANCH   2  16
TORSDOF 5
ENDMDL
MODEL 9
REMARK VINA RESULT:    -7.122      3.220      8.595
REMARK INTER + INTRA:          -9.818
REMARK INTER:                  -8.620
REMARK INTRA:                  -1.198
REMARK UNBOUND:                -0.615
REMARK  Name = 
REMARK  6 active torsions:
REMARK  status: ('A' for Active; 'I' for Inactive)
REMARK    1  A    between atoms: C_1  and  C_2
REMARK    2  A    between atoms: C_2  and  N_3
REMARK    3  A    between atoms: C_2  and  C_16
REMARK    4  A    between atoms: C_4  and  C_6
REMARK    5  A    between atoms: C_19  and  O_20
REMARK    6  A    between atoms: O_20  and  C_21
REMARK                            x       y       z     vdW  Elec       q    Type
REMARK                         _______ _______ _______ _____ _____    ______ ____
ROOT
ATOM      1  C   UNL     1      49.140   7.712  11.382  0.00  0.00    +0.000 C 
ATOM      2  C   UNL     1      47.893   7.692  12.269  0.00  0.00    +0.000 C 
ENDROOT
BRANCH   2   3
ATOM      3  C   UNL     1      48.314   7.916  13.713  0.00  0.00    +0.000 A 
ATOM      4  C   UNL     1      48.999   6.882  14.368  0.00  0.00    +0.000 A 
ATOM      5  C   UNL     1      49.309   6.972  15.724  0.00  0.00    +0.000 A 
ATOM      6  C   UNL     1      48.988   8.123  16.445  0.00  0.00    +0.000 A 
ATOM      7  C   UNL     1      48.301   9.157  15.810  0.00  0.00    +0.000 A 
ATOM      8  C   UNL     1      47.957   9.052  14.457  0.00  0.00    +0.000 A 
BRANCH   6   9
ATOM      9  O   UNL     1      49.228   8.281  17.792  0.00  0.00    +0.000 OA
BRANCH   9  10
ATOM     10  C   UNL     1      48.978   7.210  18.641  0.00  0.00    +0.000 A 
ATOM     11  C   UNL     1      47.671   7.048  19.071  0.00  0.00    +0.000 A 
ATOM     12  C   UNL     1      47.383   5.976  19.913  0.00  0.00    +0.000 A 
ATOM     13  C   UNL     1      48.407   5.115  20.294  0.00  0.00    +0.000 A 
ATOM     14  C   UNL     1      49.686   5.372  19.835  0.00  0.00    +0.000 A 
ATOM     15  N   UNL     1      49.997   6.411  19.033  0.00  0.00    +0.000 NA
ENDBRANCH   9  10
ENDBRANCH   6   9
ENDBRANCH   2   3
BRANCH   2  16
ATOM     16  N   UNL     1      47.129   6.475  12.073  0.00  0.00    +0.000 N 
ATOM     17  C   UNL     1      45.770   6.436  12.250  0.00  0.00    +0.000 C 
ATOM     18  O   UNL     1      45.129   7.409  12.639  0.00  0.00    +0.000 OA
ATOM     19  H   UNL     1      47.631   5.618  11.868  0.00  0.00    +0.000 HD
BRANCH  17  20
ATOM     20  C   UNL     1      45.092   5.182  11.887  0.00  0.00    +0.000 A 
ATOM     21  C   UNL     1      44.393   4.475  12.856  0.00  0.00    +0.000 A 
ATOM     22  S   UNL     1      43.638   3.063  12.265  0.00  0.00    +0.000 S 
ATOM     23  C   UNL     1      44.266   3.325  10.705  0.00  0.00    +0.000 A 
ATOM     24  N   UNL     1      44.034   2.457   9.689  0.00  0.00    +0.000 NA
ATOM     25  N   UNL     1      44.556   2.672   8.566  0.00  0.00    +0.000 NA
ATOM     26  N   UNL     1      45.320   3.790   8.387  0.00  0.00    +0.000 N 
ATOM     27  C   UNL     1      45.569   4.757   9.331  0.00  0.00    +0.000 A 
ATOM     28  O   UNL     1      46.200   5.773   9.066  0.00  0.00    +0.000 OA
ATOM     29  C   UNL     1      45.006   4.481  10.633  0.00  0.00    +0.000 A 
ATOM     30  H   UNL     1      45.704   3.921   7.462  0.00  0.00    +0.000 HD
ENDBRANCH  17  20
ENDBRANCH   2  16
TORSDOF 5
ENDMDL
