MODEL 1
REMARK VINA RESULT:    -8.032      0.000      0.000
REMARK INTER + INTRA:         -12.636
REMARK INTER:                 -11.554
REMARK INTRA:                  -1.082
REMARK UNBOUND:                -1.082
REMARK  Name = 
REMARK  8 active torsions:
REMARK  status: ('A' for Active; 'I' for Inactive)
REMARK    1  A    between atoms: C_2  and  C_20
REMARK    2  A    between atoms: N_3  and  C_4
REMARK    3  A    between atoms: C_4  and  C_5
REMARK    4  A    between atoms: C_8  and  C_9
REMARK    5  A    between atoms: C_9  and  O_10
REMARK    6  A    between atoms: C_9  and  C_11
REMARK    7  A    between atoms: C_11  and  C_12
REMARK    8  A    between atoms: C_12  and  N_13
REMARK                            x       y       z     vdW  Elec       q    Type
REMARK                         _______ _______ _______ _____ _____    ______ ____
ROOT
ATOM      1  C   UNL     1      48.083   6.935  13.366  0.00  0.00    +0.000 C 
ENDROOT
BRANCH   1   2
ATOM      2  C   UNL     1      46.995   6.197  12.634  0.00  0.00    +0.000 A 
ATOM      3  C   UNL     1      46.565   6.612  11.368  0.00  0.00    +0.000 A 
ATOM      4  C   UNL     1      45.576   5.897  10.685  0.00  0.00    +0.000 A 
ATOM      5  C   UNL     1      44.981   4.764  11.257  0.00  0.00    +0.000 A 
ATOM      6  C   UNL     1      45.424   4.352  12.523  0.00  0.00    +0.000 A 
ATOM      7  C   UNL     1      46.399   5.074  13.214  0.00  0.00    +0.000 A 
BRANCH   5   8
ATOM      8  C   UNL     1      43.908   4.015  10.487  0.00  0.00    +0.000 C 
BRANCH   8   9
ATOM      9  O   UNL     1      43.642   4.738   9.282  0.00  0.00    +0.000 OA
ATOM     10  H   UNL     1      44.215   5.524   9.285  0.00  0.00    +0.000 HD
ENDBRANCH   8   9
BRANCH   8  11
ATOM     11  C   UNL     1      44.237   2.564  10.097  0.00  0.00    +0.000 C 
BRANCH  11  12
ATOM     12  C   UNL     1      44.685   2.422   8.633  0.00  0.00    +0.000 C 
BRANCH  12  13
ATOM     13  N   UNL     1      46.140   2.555   8.444  0.00  0.00    +0.000 NA
ATOM     14  C   UNL     1      46.452   3.716   7.589  0.00  0.00    +0.000 C 
ATOM     15  C   UNL     1      46.494   3.173   6.173  0.00  0.00    +0.000 C 
ATOM     16  C   UNL     1      47.117   1.806   6.351  0.00  0.00    +0.000 C 
ATOM     17  C   UNL     1      46.763   1.397   7.776  0.00  0.00    +0.000 C 
ENDBRANCH  12  13
ENDBRANCH  11  12
ENDBRANCH   8  11
ENDBRANCH   5   8
ENDBRANCH   1   2
BRANCH   1  20
ATOM     18  O   UNL     1      50.179   6.754  15.136  0.00  0.00    +0.000 OA
ATOM     19  C   UNL     1      49.045   6.844  15.599  0.00  0.00    +0.000 C 
ATOM     20  N   UNL     1      47.933   6.851  14.795  0.00  0.00    +0.000 N 
ATOM     21  H   UNL     1      47.034   7.117  15.183  0.00  0.00    +0.000 HD
BRANCH  19  22
ATOM     22  C   UNL     1      48.822   6.929  17.047  0.00  0.00    +0.000 A 
ATOM     23  C   UNL     1      48.403   8.128  17.607  0.00  0.00    +0.000 A 
ATOM     24  S   UNL     1      48.158   8.050  19.292  0.00  0.00    +0.000 S 
ATOM     25  C   UNL     1      48.559   6.397  19.326  0.00  0.00    +0.000 A 
ATOM     26  N   UNL     1      48.499   5.688  20.485  0.00  0.00    +0.000 NA
ATOM     27  C   UNL     1      48.787   4.436  20.359  0.00  0.00    +0.000 A 
ATOM     28  N   UNL     1      49.149   3.833  19.183  0.00  0.00    +0.000 N 
ATOM     29  C   UNL     1      49.272   4.519  17.997  0.00  0.00    +0.000 A 
ATOM     30  O   UNL     1      49.671   3.966  16.979  0.00  0.00    +0.000 OA
ATOM     31  C   UNL     1      48.916   5.922  18.075  0.00  0.00    +0.000 A 
ATOM     32  H   UNL     1      49.385   2.853  19.156  0.00  0.00    +0.000 HD
ENDBRANCH  19  22
ENDBRANCH   1  20
TORSDOF 8
ENDMDL
MODEL 2
REMARK VINA RESULT:    -7.206      1.051      1.336
REMARK INTER + INTRA:         -11.448
REMARK INTER:                 -10.360
REMARK INTRA:                  -1.089
REMARK UNBOUND:                -1.082
REMARK  Name = 
REMARK  8 active torsions:
REMARK  status: ('A' for Active; 'I' for Inactive)
REMARK    1  A    between atoms: C_2  and  C_20
REMARK    2  A    between atoms: N_3  and  C_4
REMARK    3  A    between atoms: C_4  and  C_5
REMARK    4  A    between atoms: C_8  and  C_9
REMARK    5  A    between atoms: C_9  and  O_10
REMARK    6  A    between atoms: C_9  and  C_11
REMARK    7  A    between atoms: C_11  and  C_12
REMARK    8  A    between atoms: C_12  and  N_13
REMARK                            x       y       z     vdW  Elec       q    Type
REMARK                         _______ _______ _______ _____ _____    ______ ____
ROOT
ATOM      1  C   UNL     1      48.651   6.966  13.440  0.00  0.00    +0.000 C 
ENDROOT
BRANCH   1   2
ATOM      2  C   UNL     1      47.359   6.394  12.925  0.00  0.00    +0.000 A 
ATOM      3  C   UNL     1      46.776   6.872  11.745  0.00  0.00    +0.000 A 
ATOM      4  C   UNL     1      45.592   6.309  11.259  0.00  0.00    +0.000 A 
ATOM      5  C   UNL     1      44.954   5.268  11.949  0.00  0.00    +0.000 A 
ATOM      6  C   UNL     1      45.549   4.791  13.126  0.00  0.00    +0.000 A 
ATOM      7  C   UNL     1      46.722   5.364  13.622  0.00  0.00    +0.000 A 
BRANCH   5   8
ATOM      8  C   UNL     1      43.668   4.683  11.393  0.00  0.00    +0.000 C 
BRANCH   8   9
ATOM      9  O   UNL     1      43.290   5.451  10.247  0.00  0.00    +0.000 OA
ATOM     10  H   UNL     1      43.016   4.823   9.556  0.00  0.00    +0.000 HD
ENDBRANCH   8   9
BRANCH   8  11
ATOM     11  C   UNL     1      43.719   3.206  10.966  0.00  0.00    +0.000 C 
BRANCH  11  12
ATOM     12  C   UNL     1      44.988   2.854  10.171  0.00  0.00    +0.000 C 
BRANCH  12  13
ATOM     13  N   UNL     1      44.721   2.453   8.779  0.00  0.00    +0.000 NA
ATOM     14  C   UNL     1      45.654   1.392   8.353  0.00  0.00    +0.000 C 
ATOM     15  C   UNL     1      46.833   2.118   7.734  0.00  0.00    +0.000 C 
ATOM     16  C   UNL     1      46.182   3.285   7.027  0.00  0.00    +0.000 C 
ATOM     17  C   UNL     1      44.894   3.543   7.801  0.00  0.00    +0.000 C 
ENDBRANCH  12  13
ENDBRANCH  11  12
ENDBRANCH   8  11
ENDBRANCH   5   8
ENDBRANCH   1   2
BRANCH   1  20
ATOM     18  O   UNL     1      50.959   7.502  14.837  0.00  0.00    +0.000 OA
ATOM     19  C   UNL     1      49.971   7.149  15.477  0.00  0.00    +0.000 C 
ATOM     20  N   UNL     1      48.804   6.776  14.860  0.00  0.00    +0.000 N 
ATOM     21  H   UNL     1      47.955   6.677  15.408  0.00  0.00    +0.000 HD
BRANCH  19  22
ATOM     22  C   UNL     1      50.000   7.089  16.943  0.00  0.00    +0.000 A 
ATOM     23  C   UNL     1      50.411   8.199  17.666  0.00  0.00    +0.000 A 
ATOM     24  S   UNL     1      50.354   7.977  19.355  0.00  0.00    +0.000 S 
ATOM     25  C   UNL     1      49.734   6.403  19.180  0.00  0.00    +0.000 A 
ATOM     26  N   UNL     1      49.406   5.657  20.269  0.00  0.00    +0.000 NA
ATOM     27  C   UNL     1      48.905   4.500  19.990  0.00  0.00    +0.000 A 
ATOM     28  N   UNL     1      48.721   4.013  18.721  0.00  0.00    +0.000 N 
ATOM     29  C   UNL     1      49.084   4.711  17.593  0.00  0.00    +0.000 A 
ATOM     30  O   UNL     1      48.977   4.217  16.477  0.00  0.00    +0.000 OA
ATOM     31  C   UNL     1      49.611   6.037  17.849  0.00  0.00    +0.000 A 
ATOM     32  H   UNL     1      48.346   3.090  18.572  0.00  0.00    +0.000 HD
ENDBRANCH  19  22
ENDBRANCH   1  20
TORSDOF 8
ENDMDL
MODEL 3
REMARK VINA RESULT:    -7.096      1.744      3.027
REMARK INTER + INTRA:         -11.289
REMARK INTER:                  -9.912
REMARK INTRA:                  -1.377
REMARK UNBOUND:                -1.082
REMARK  Name = 
REMARK  8 active torsions:
REMARK  status: ('A' for Active; 'I' for Inactive)
REMARK    1  A    between atoms: C_2  and  C_20
REMARK    2  A    between atoms: N_3  and  C_4
REMARK    3  A    between atoms: C_4  and  C_5
REMARK    4  A    between atoms: C_8  and  C_9
REMARK    5  A    between atoms: C_9  and  O_10
REMARK    6  A    between atoms: C_9  and  C_11
REMARK    7  A    between atoms: C_11  and  C_12
REMARK    8  A    between atoms: C_12  and  N_13
REMARK                            x       y       z     vdW  Elec       q    Type
REMARK                         _______ _______ _______ _____ _____    ______ ____
ROOT
ATOM      1  C   UNL     1      47.149   3.953  15.051  0.00  0.00    +0.000 C 
ENDROOT
BRANCH   1   2
ATOM      2  C   UNL     1      46.538   4.232  13.705  0.00  0.00    +0.000 A 
ATOM      3  C   UNL     1      45.871   3.228  12.992  0.00  0.00    +0.000 A 
ATOM      4  C   UNL     1      45.279   3.510  11.756  0.00  0.00    +0.000 A 
ATOM      5  C   UNL     1      45.355   4.793  11.197  0.00  0.00    +0.000 A 
ATOM      6  C   UNL     1      46.019   5.793  11.922  0.00  0.00    +0.000 A 
ATOM      7  C   UNL     1      46.625   5.511  13.148  0.00  0.00    +0.000 A 
BRANCH   5   8
ATOM      8  C   UNL     1      44.703   5.060   9.852  0.00  0.00    +0.000 C 
BRANCH   8   9
ATOM      9  O   UNL     1      45.680   5.661   8.997  0.00  0.00    +0.000 OA
ATOM     10  H   UNL     1      46.532   5.628   9.466  0.00  0.00    +0.000 HD
ENDBRANCH   8   9
BRANCH   8  11
ATOM     11  C   UNL     1      44.132   3.836   9.117  0.00  0.00    +0.000 C 
BRANCH  11  12
ATOM     12  C   UNL     1      44.906   3.489   7.835  0.00  0.00    +0.000 C 
BRANCH  12  13
ATOM     13  N   UNL     1      46.264   2.976   8.085  0.00  0.00    +0.000 NA
ATOM     14  C   UNL     1      47.185   3.389   7.007  0.00  0.00    +0.000 C 
ATOM     15  C   UNL     1      47.138   2.268   5.987  0.00  0.00    +0.000 C 
ATOM     16  C   UNL     1      47.021   1.029   6.846  0.00  0.00    +0.000 C 
ATOM     17  C   UNL     1      46.347   1.504   8.129  0.00  0.00    +0.000 C 
ENDBRANCH  12  13
ENDBRANCH  11  12
ENDBRANCH   8  11
ENDBRANCH   5   8
ENDBRANCH   1   2
BRANCH   1  20
ATOM     18  O   UNL     1      49.104   4.120  16.979  0.00  0.00    +0.000 OA
ATOM     19  C   UNL     1      48.541   5.159  16.642  0.00  0.00    +0.000 C 
ATOM     20  N   UNL     1      47.496   5.162  15.754  0.00  0.00    +0.000 N 
ATOM     21  H   UNL     1      47.181   6.039  15.350  0.00  0.00    +0.000 HD
BRANCH  19  22
ATOM     22  C   UNL     1      48.951   6.456  17.194  0.00  0.00    +0.000 A 
ATOM     23  C   UNL     1      48.790   6.705  18.549  0.00  0.00    +0.000 A 
ATOM     24  S   UNL     1      49.345   8.242  19.035  0.00  0.00    +0.000 S 
ATOM     25  C   UNL     1      49.864   8.610  17.458  0.00  0.00    +0.000 A 
ATOM     26  N   UNL     1      50.492   9.786  17.186  0.00  0.00    +0.000 NA
ATOM     27  C   UNL     1      50.871   9.916  15.959  0.00  0.00    +0.000 A 
ATOM     28  N   UNL     1      50.661   8.986  14.974  0.00  0.00    +0.000 N 
ATOM     29  C   UNL     1      49.987   7.806  15.190  0.00  0.00    +0.000 A 
ATOM     30  O   UNL     1      49.749   7.031  14.272  0.00  0.00    +0.000 OA
ATOM     31  C   UNL     1      49.579   7.591  16.564  0.00  0.00    +0.000 A 
ATOM     32  H   UNL     1      50.962   9.159  14.027  0.00  0.00    +0.000 HD
ENDBRANCH  19  22
ENDBRANCH   1  20
TORSDOF 8
ENDMDL
MODEL 4
REMARK VINA RESULT:    -7.091      1.703      2.069
REMARK INTER + INTRA:         -11.283
REMARK INTER:                 -10.462
REMARK INTRA:                  -0.821
REMARK UNBOUND:                -1.082
REMARK  Name = 
REMARK  8 active torsions:
REMARK  status: ('A' for Active; 'I' for Inactive)
REMARK    1  A    between atoms: C_2  and  C_20
REMARK    2  A    between atoms: N_3  and  C_4
REMARK    3  A    between atoms: C_4  and  C_5
REMARK    4  A    between atoms: C_8  and  C_9
REMARK    5  A    between atoms: C_9  and  O_10
REMARK    6  A    between atoms: C_9  and  C_11
REMARK    7  A    between atoms: C_11  and  C_12
REMARK    8  A    between atoms: C_12  and  N_13
REMARK                            x       y       z     vdW  Elec       q    Type
REMARK                         _______ _______ _______ _____ _____    ______ ____
ROOT
ATOM      1  C   UNL     1      47.448   7.029  13.824  0.00  0.00    +0.000 C 
ENDROOT
BRANCH   1   2
ATOM      2  C   UNL     1      46.527   6.227  12.945  0.00  0.00    +0.000 A 
ATOM      3  C   UNL     1      46.085   6.727  11.714  0.00  0.00    +0.000 A 
ATOM      4  C   UNL     1      45.256   5.958  10.891  0.00  0.00    +0.000 A 
ATOM      5  C   UNL     1      44.835   4.680  11.287  0.00  0.00    +0.000 A 
ATOM      6  C   UNL     1      45.289   4.185  12.518  0.00  0.00    +0.000 A 
ATOM      7  C   UNL     1      46.103   4.958  13.348  0.00  0.00    +0.000 A 
BRANCH   5   8
ATOM      8  C   UNL     1      43.932   3.875  10.369  0.00  0.00    +0.000 C 
BRANCH   8   9
ATOM      9  O   UNL     1      43.486   4.737   9.318  0.00  0.00    +0.000 OA
ATOM     10  H   UNL     1      43.958   4.473   8.509  0.00  0.00    +0.000 HD
ENDBRANCH   8   9
BRANCH   8  11
ATOM     11  C   UNL     1      44.559   2.632   9.716  0.00  0.00    +0.000 C 
BRANCH  11  12
ATOM     12  C   UNL     1      45.006   2.875   8.265  0.00  0.00    +0.000 C 
BRANCH  12  13
ATOM     13  N   UNL     1      46.462   2.766   8.068  0.00  0.00    +0.000 NA
ATOM     14  C   UNL     1      46.923   3.719   7.040  0.00  0.00    +0.000 C 
ATOM     15  C   UNL     1      46.865   2.957   5.730  0.00  0.00    +0.000 C 
ATOM     16  C   UNL     1      47.288   1.561   6.129  0.00  0.00    +0.000 C 
ATOM     17  C   UNL     1      46.903   1.439   7.599  0.00  0.00    +0.000 C 
ENDBRANCH  12  13
ENDBRANCH  11  12
ENDBRANCH   8  11
ENDBRANCH   5   8
ENDBRANCH   1   2
BRANCH   1  20
ATOM     18  O   UNL     1      49.093   8.015  15.795  0.00  0.00    +0.000 OA
ATOM     19  C   UNL     1      48.816   6.818  15.826  0.00  0.00    +0.000 C 
ATOM     20  N   UNL     1      48.075   6.221  14.837  0.00  0.00    +0.000 N 
ATOM     21  H   UNL     1      47.702   5.288  14.984  0.00  0.00    +0.000 HD
BRANCH  19  22
ATOM     22  C   UNL     1      49.283   5.960  16.921  0.00  0.00    +0.000 A 
ATOM     23  C   UNL     1      48.359   5.315  17.729  0.00  0.00    +0.000 A 
ATOM     24  S   UNL     1      49.064   4.332  18.929  0.00  0.00    +0.000 S 
ATOM     25  C   UNL     1      50.632   4.699  18.382  0.00  0.00    +0.000 A 
ATOM     26  N   UNL     1      51.724   4.128  18.958  0.00  0.00    +0.000 NA
ATOM     27  C   UNL     1      52.847   4.460  18.415  0.00  0.00    +0.000 A 
ATOM     28  N   UNL     1      52.979   5.326  17.361  0.00  0.00    +0.000 N 
ATOM     29  C   UNL     1      51.909   5.965  16.778  0.00  0.00    +0.000 A 
ATOM     30  O   UNL     1      52.068   6.791  15.888  0.00  0.00    +0.000 OA
ATOM     31  C   UNL     1      50.618   5.592  17.323  0.00  0.00    +0.000 A 
ATOM     32  H   UNL     1      53.890   5.563  16.997  0.00  0.00    +0.000 HD
ENDBRANCH  19  22
ENDBRANCH   1  20
TORSDOF 8
ENDMDL
MODEL 5
REMARK VINA RESULT:    -7.077      1.737      2.410
REMARK INTER + INTRA:         -11.262
REMARK INTER:                 -10.122
REMARK INTRA:                  -1.140
REMARK UNBOUND:                -1.082
REMARK  Name = 
REMARK  8 active torsions:
REMARK  status: ('A' for Active; 'I' for Inactive)
REMARK    1  A    between atoms: C_2  and  C_20
REMARK    2  A    between atoms: N_3  and  C_4
REMARK    3  A    between atoms: C_4  and  C_5
REMARK    4  A    between atoms: C_8  and  C_9
REMARK    5  A    between atoms: C_9  and  O_10
REMARK    6  A    between atoms: C_9  and  C_11
REMARK    7  A    between atoms: C_11  and  C_12
REMARK    8  A    between atoms: C_12  and  N_13
REMARK                            x       y       z     vdW  Elec       q    Type
REMARK                         _______ _______ _______ _____ _____    ______ ____
ROOT
ATOM      1  C   UNL     1      47.329   4.161  15.267  0.00  0.00    +0.000 C 
ENDROOT
BRANCH   1   2
ATOM      2  C   UNL     1      46.664   4.387  13.936  0.00  0.00    +0.000 A 
ATOM      3  C   UNL     1      46.039   3.336  13.253  0.00  0.00    +0.000 A 
ATOM      4  C   UNL     1      45.396   3.566  12.032  0.00  0.00    +0.000 A 
ATOM      5  C   UNL     1      45.378   4.845  11.457  0.00  0.00    +0.000 A 
ATOM      6  C   UNL     1      46.001   5.892  12.153  0.00  0.00    +0.000 A 
ATOM      7  C   UNL     1      46.658   5.661  13.364  0.00  0.00    +0.000 A 
BRANCH   5   8
ATOM      8  C   UNL     1      44.674   5.056  10.129  0.00  0.00    +0.000 C 
BRANCH   8   9
ATOM      9  O   UNL     1      45.580   5.727   9.248  0.00  0.00    +0.000 OA
ATOM     10  H   UNL     1      45.883   6.531   9.705  0.00  0.00    +0.000 HD
ENDBRANCH   8   9
BRANCH   8  11
ATOM     11  C   UNL     1      44.179   3.789   9.412  0.00  0.00    +0.000 C 
BRANCH  11  12
ATOM     12  C   UNL     1      44.846   3.574   8.043  0.00  0.00    +0.000 C 
BRANCH  12  13
ATOM     13  N   UNL     1      46.241   3.111   8.130  0.00  0.00    +0.000 NA
ATOM     14  C   UNL     1      47.035   3.626   6.998  0.00  0.00    +0.000 C 
ATOM     15  C   UNL     1      46.933   2.564   5.920  0.00  0.00    +0.000 C 
ATOM     16  C   UNL     1      46.950   1.274   6.708  0.00  0.00    +0.000 C 
ATOM     17  C   UNL     1      46.387   1.644   8.076  0.00  0.00    +0.000 C 
ENDBRANCH  12  13
ENDBRANCH  11  12
ENDBRANCH   8  11
ENDBRANCH   5   8
ENDBRANCH   1   2
BRANCH   1  20
ATOM     18  O   UNL     1      49.569   4.852  16.705  0.00  0.00    +0.000 OA
ATOM     19  C   UNL     1      48.655   5.670  16.641  0.00  0.00    +0.000 C 
ATOM     20  N   UNL     1      47.465   5.380  16.021  0.00  0.00    +0.000 N 
ATOM     21  H   UNL     1      46.810   6.128  15.816  0.00  0.00    +0.000 HD
BRANCH  19  22
ATOM     22  C   UNL     1      48.785   7.000  17.247  0.00  0.00    +0.000 A 
ATOM     23  C   UNL     1      49.313   8.044  16.502  0.00  0.00    +0.000 A 
ATOM     24  S   UNL     1      49.365   9.528  17.339  0.00  0.00    +0.000 S 
ATOM     25  C   UNL     1      48.638   8.837  18.714  0.00  0.00    +0.000 A 
ATOM     26  N   UNL     1      48.344   9.595  19.804  0.00  0.00    +0.000 NA
ATOM     27  C   UNL     1      47.756   8.953  20.756  0.00  0.00    +0.000 A 
ATOM     28  N   UNL     1      47.452   7.616  20.726  0.00  0.00    +0.000 N 
ATOM     29  C   UNL     1      47.774   6.800  19.667  0.00  0.00    +0.000 A 
ATOM     30  O   UNL     1      47.557   5.594  19.702  0.00  0.00    +0.000 OA
ATOM     31  C   UNL     1      48.399   7.482  18.550  0.00  0.00    +0.000 A 
ATOM     32  H   UNL     1      47.011   7.169  21.515  0.00  0.00    +0.000 HD
ENDBRANCH  19  22
ENDBRANCH   1  20
TORSDOF 8
ENDMDL
MODEL 6
REMARK VINA RESULT:    -6.662      4.006      9.258
REMARK INTER + INTRA:         -10.666
REMARK INTER:                  -9.237
REMARK INTRA:                  -1.429
REMARK UNBOUND:                -1.082
REMARK  Name = 
REMARK  8 active torsions:
REMARK  status: ('A' for Active; 'I' for Inactive)
REMARK    1  A    between atoms: C_2  and  C_20
REMARK    2  A    between atoms: N_3  and  C_4
REMARK    3  A    between atoms: C_4  and  C_5
REMARK    4  A    between atoms: C_8  and  C_9
REMARK    5  A    between atoms: C_9  and  O_10
REMARK    6  A    between atoms: C_9  and  C_11
REMARK    7  A    between atoms: C_11  and  C_12
REMARK    8  A    between atoms: C_12  and  N_13
REMARK                            x       y       z     vdW  Elec       q    Type
REMARK                         _______ _______ _______ _____ _____    ______ ____
ROOT
ATOM      1  C   UNL     1      47.207   3.374  16.723  0.00  0.00    +0.000 C 
ENDROOT
BRANCH   1   2
ATOM      2  C   UNL     1      48.646   3.417  17.162  0.00  0.00    +0.000 A 
ATOM      3  C   UNL     1      49.487   2.309  16.991  0.00  0.00    +0.000 A 
ATOM      4  C   UNL     1      50.831   2.374  17.374  0.00  0.00    +0.000 A 
ATOM      5  C   UNL     1      51.361   3.537  17.950  0.00  0.00    +0.000 A 
ATOM      6  C   UNL     1      50.513   4.642  18.110  0.00  0.00    +0.000 A 
ATOM      7  C   UNL     1      49.166   4.575  17.745  0.00  0.00    +0.000 A 
BRANCH   5   8
ATOM      8  C   UNL     1      52.824   3.568  18.356  0.00  0.00    +0.000 C 
BRANCH   8   9
ATOM      9  O   UNL     1      53.339   2.237  18.260  0.00  0.00    +0.000 OA
ATOM     10  H   UNL     1      52.952   1.725  18.992  0.00  0.00    +0.000 HD
ENDBRANCH   8   9
BRANCH   8  11
ATOM     11  C   UNL     1      53.741   4.482  17.526  0.00  0.00    +0.000 C 
BRANCH  11  12
ATOM     12  C   UNL     1      53.985   5.849  18.187  0.00  0.00    +0.000 C 
BRANCH  12  13
ATOM     13  N   UNL     1      53.954   6.978  17.241  0.00  0.00    +0.000 NA
ATOM     14  C   UNL     1      53.217   8.120  17.815  0.00  0.00    +0.000 C 
ATOM     15  C   UNL     1      51.779   7.935  17.371  0.00  0.00    +0.000 C 
ATOM     16  C   UNL     1      51.922   7.378  15.972  0.00  0.00    +0.000 C 
ATOM     17  C   UNL     1      53.273   6.671  15.969  0.00  0.00    +0.000 C 
ENDBRANCH  12  13
ENDBRANCH  11  12
ENDBRANCH   8  11
ENDBRANCH   5   8
ENDBRANCH   1   2
BRANCH   1  20
ATOM     18  O   UNL     1      47.204   3.120  13.984  0.00  0.00    +0.000 OA
ATOM     19  C   UNL     1      46.834   4.191  14.461  0.00  0.00    +0.000 C 
ATOM     20  N   UNL     1      46.885   4.440  15.809  0.00  0.00    +0.000 N 
ATOM     21  H   UNL     1      46.400   5.246  16.190  0.00  0.00    +0.000 HD
BRANCH  19  22
ATOM     22  C   UNL     1      46.335   5.270  13.601  0.00  0.00    +0.000 A 
ATOM     23  C   UNL     1      47.152   6.355  13.319  0.00  0.00    +0.000 A 
ATOM     24  S   UNL     1      46.437   7.502  12.281  0.00  0.00    +0.000 S 
ATOM     25  C   UNL     1      45.024   6.566  12.135  0.00  0.00    +0.000 A 
ATOM     26  N   UNL     1      44.004   6.962  11.327  0.00  0.00    +0.000 NA
ATOM     27  C   UNL     1      43.014   6.136  11.276  0.00  0.00    +0.000 A 
ATOM     28  N   UNL     1      42.942   4.959  11.975  0.00  0.00    +0.000 N 
ATOM     29  C   UNL     1      43.925   4.541  12.841  0.00  0.00    +0.000 A 
ATOM     30  O   UNL     1      43.797   3.522  13.508  0.00  0.00    +0.000 OA
ATOM     31  C   UNL     1      45.082   5.413  12.902  0.00  0.00    +0.000 A 
ATOM     32  H   UNL     1      42.127   4.368  11.909  0.00  0.00    +0.000 HD
ENDBRANCH  19  22
ENDBRANCH   1  20
TORSDOF 8
ENDMDL
MODEL 7
REMARK VINA RESULT:    -6.619      4.256      9.635
REMARK INTER + INTRA:         -10.604
REMARK INTER:                  -9.580
REMARK INTRA:                  -1.023
REMARK UNBOUND:                -1.082
REMARK  Name = 
REMARK  8 active torsions:
REMARK  status: ('A' for Active; 'I' for Inactive)
REMARK    1  A    between atoms: C_2  and  C_20
REMARK    2  A    between atoms: N_3  and  C_4
REMARK    3  A    between atoms: C_4  and  C_5
REMARK    4  A    between atoms: C_8  and  C_9
REMARK    5  A    between atoms: C_9  and  O_10
REMARK    6  A    between atoms: C_9  and  C_11
REMARK    7  A    between atoms: C_11  and  C_12
REMARK    8  A    between atoms: C_12  and  N_13
REMARK                            x       y       z     vdW  Elec       q    Type
REMARK                         _______ _______ _______ _____ _____    ______ ____
ROOT
ATOM      1  C   UNL     1      47.202   3.371  16.584  0.00  0.00    +0.000 C 
ENDROOT
BRANCH   1   2
ATOM      2  C   UNL     1      48.608   3.573  17.080  0.00  0.00    +0.000 A 
ATOM      3  C   UNL     1      49.023   4.808  17.595  0.00  0.00    +0.000 A 
ATOM      4  C   UNL     1      50.323   4.973  18.083  0.00  0.00    +0.000 A 
ATOM      5  C   UNL     1      51.243   3.915  18.052  0.00  0.00    +0.000 A 
ATOM      6  C   UNL     1      50.816   2.680  17.542  0.00  0.00    +0.000 A 
ATOM      7  C   UNL     1      49.523   2.518  17.038  0.00  0.00    +0.000 A 
BRANCH   5   8
ATOM      8  C   UNL     1      52.647   4.132  18.588  0.00  0.00    +0.000 C 
BRANCH   8   9
ATOM      9  O   UNL     1      52.720   3.545  19.891  0.00  0.00    +0.000 OA
ATOM     10  H   UNL     1      51.832   3.608  20.285  0.00  0.00    +0.000 HD
ENDBRANCH   8   9
BRANCH   8  11
ATOM     11  C   UNL     1      53.795   3.545  17.749  0.00  0.00    +0.000 C 
BRANCH  11  12
ATOM     12  C   UNL     1      54.890   2.887  18.605  0.00  0.00    +0.000 C 
BRANCH  12  13
ATOM     13  N   UNL     1      55.448   1.660  18.011  0.00  0.00    +0.000 NA
ATOM     14  C   UNL     1      54.509   1.079  17.032  0.00  0.00    +0.000 C 
ATOM     15  C   UNL     1      53.659   0.102  17.821  0.00  0.00    +0.000 C 
ATOM     16  C   UNL     1      54.643  -0.489  18.805  0.00  0.00    +0.000 C 
ATOM     17  C   UNL     1      55.707   0.588  18.990  0.00  0.00    +0.000 C 
ENDBRANCH  12  13
ENDBRANCH  11  12
ENDBRANCH   8  11
ENDBRANCH   5   8
ENDBRANCH   1   2
BRANCH   1  20
ATOM     18  O   UNL     1      47.216   3.174  13.841  0.00  0.00    +0.000 OA
ATOM     19  C   UNL     1      46.752   4.197  14.340  0.00  0.00    +0.000 C 
ATOM     20  N   UNL     1      46.783   4.422  15.693  0.00  0.00    +0.000 N 
ATOM     21  H   UNL     1      46.228   5.173  16.090  0.00  0.00    +0.000 HD
BRANCH  19  22
ATOM     22  C   UNL     1      46.156   5.245  13.502  0.00  0.00    +0.000 A 
ATOM     23  C   UNL     1      46.900   6.370  13.179  0.00  0.00    +0.000 A 
ATOM     24  S   UNL     1      46.076   7.472  12.174  0.00  0.00    +0.000 S 
ATOM     25  C   UNL     1      44.710   6.462  12.098  0.00  0.00    +0.000 A 
ATOM     26  N   UNL     1      43.632   6.800  11.340  0.00  0.00    +0.000 NA
ATOM     27  C   UNL     1      42.686   5.923  11.338  0.00  0.00    +0.000 A 
ATOM     28  N   UNL     1      42.710   4.747  12.043  0.00  0.00    +0.000 N 
ATOM     29  C   UNL     1      43.754   4.386  12.861  0.00  0.00    +0.000 A 
ATOM     30  O   UNL     1      43.712   3.365  13.536  0.00  0.00    +0.000 OA
ATOM     31  C   UNL     1      44.865   5.318  12.864  0.00  0.00    +0.000 A 
ATOM     32  H   UNL     1      41.925   4.113  12.017  0.00  0.00    +0.000 HD
ENDBRANCH  19  22
ENDBRANCH   1  20
TORSDOF 8
ENDMDL
MODEL 8
REMARK VINA RESULT:    -6.542      3.336      8.607
REMARK INTER + INTRA:         -10.493
REMARK INTER:                  -8.910
REMARK INTRA:                  -1.583
REMARK UNBOUND:                -1.082
REMARK  Name = 
REMARK  8 active torsions:
REMARK  status: ('A' for Active; 'I' for Inactive)
REMARK    1  A    between atoms: C_2  and  C_20
REMARK    2  A    between atoms: N_3  and  C_4
REMARK    3  A    between atoms: C_4  and  C_5
REMARK    4  A    between atoms: C_8  and  C_9
REMARK    5  A    between atoms: C_9  and  O_10
REMARK    6  A    between atoms: C_9  and  C_11
REMARK    7  A    between atoms: C_11  and  C_12
REMARK    8  A    between atoms: C_12  and  N_13
REMARK                            x       y       z     vdW  Elec       q    Type
REMARK                         _______ _______ _______ _____ _____    ______ ____
ROOT
ATOM      1  C   UNL     1      48.192   8.135  12.082  0.00  0.00    +0.000 C 
ENDROOT
BRANCH   1   2
ATOM      2  C   UNL     1      48.478   8.100  13.559  0.00  0.00    +0.000 A 
ATOM      3  C   UNL     1      48.097   9.158  14.394  0.00  0.00    +0.000 A 
ATOM      4  C   UNL     1      48.340   9.099  15.770  0.00  0.00    +0.000 A 
ATOM      5  C   UNL     1      48.983   7.991  16.341  0.00  0.00    +0.000 A 
ATOM      6  C   UNL     1      49.354   6.934  15.497  0.00  0.00    +0.000 A 
ATOM      7  C   UNL     1      49.128   6.999  14.120  0.00  0.00    +0.000 A 
BRANCH   5   8
ATOM      8  C   UNL     1      49.233   7.964  17.838  0.00  0.00    +0.000 C 
BRANCH   8   9
ATOM      9  O   UNL     1      49.190   9.310  18.320  0.00  0.00    +0.000 OA
ATOM     10  H   UNL     1      49.558   9.305  19.221  0.00  0.00    +0.000 HD
ENDBRANCH   8   9
BRANCH   8  11
ATOM     11  C   UNL     1      48.244   7.138  18.678  0.00  0.00    +0.000 C 
BRANCH  11  12
ATOM     12  C   UNL     1      48.852   5.829  19.209  0.00  0.00    +0.000 C 
BRANCH  12  13
ATOM     13  N   UNL     1      48.006   4.646  18.973  0.00  0.00    +0.000 NA
ATOM     14  C   UNL     1      48.836   3.457  18.694  0.00  0.00    +0.000 C 
ATOM     15  C   UNL     1      48.998   3.425  17.187  0.00  0.00    +0.000 C 
ATOM     16  C   UNL     1      47.652   3.903  16.689  0.00  0.00    +0.000 C 
ATOM     17  C   UNL     1      47.106   4.777  17.812  0.00  0.00    +0.000 C 
ENDBRANCH  12  13
ENDBRANCH  11  12
ENDBRANCH   8  11
ENDBRANCH   5   8
ENDBRANCH   1   2
BRANCH   1  20
ATOM     18  O   UNL     1      45.467   7.919  11.776  0.00  0.00    +0.000 OA
ATOM     19  C   UNL     1      46.159   6.964  11.433  0.00  0.00    +0.000 C 
ATOM     20  N   UNL     1      47.517   6.945  11.630  0.00  0.00    +0.000 N 
ATOM     21  H   UNL     1      48.082   6.239  11.170  0.00  0.00    +0.000 HD
BRANCH  19  22
ATOM     22  C   UNL     1      45.559   5.778  10.811  0.00  0.00    +0.000 A 
ATOM     23  C   UNL     1      45.804   5.508   9.473  0.00  0.00    +0.000 A 
ATOM     24  S   UNL     1      45.063   4.079   8.913  0.00  0.00    +0.000 S 
ATOM     25  C   UNL     1      44.425   3.745  10.455  0.00  0.00    +0.000 A 
ATOM     26  N   UNL     1      43.711   2.610  10.684  0.00  0.00    +0.000 NA
ATOM     27  C   UNL     1      43.326   2.462  11.907  0.00  0.00    +0.000 A 
ATOM     28  N   UNL     1      43.572   3.355  12.918  0.00  0.00    +0.000 N 
ATOM     29  C   UNL     1      44.245   4.539  12.722  0.00  0.00    +0.000 A 
ATOM     30  O   UNL     1      44.382   5.351  13.629  0.00  0.00    +0.000 OA
ATOM     31  C   UNL     1      44.740   4.733  11.373  0.00  0.00    +0.000 A 
ATOM     32  H   UNL     1      43.222   3.191  13.849  0.00  0.00    +0.000 HD
ENDBRANCH  19  22
ENDBRANCH   1  20
TORSDOF 8
ENDMDL
MODEL 9
REMARK VINA RESULT:    -6.402      2.676      3.543
REMARK INTER + INTRA:         -10.291
REMARK INTER:                  -8.746
REMARK INTRA:                  -1.545
REMARK UNBOUND:                -1.082
REMARK  Name = 
REMARK  8 active torsions:
REMARK  status: ('A' for Active; 'I' for Inactive)
REMARK    1  A    between atoms: C_2  and  C_20
REMARK    2  A    between atoms: N_3  and  C_4
REMARK    3  A    between atoms: C_4  and  C_5
REMARK    4  A    between atoms: C_8  and  C_9
REMARK    5  A    between atoms: C_9  and  O_10
REMARK    6  A    between atoms: C_9  and  C_11
REMARK    7  A    between atoms: C_11  and  C_12
REMARK    8  A    between atoms: C_12  and  N_13
REMARK                            x       y       z     vdW  Elec       q    Type
REMARK                         _______ _______ _______ _____ _____    ______ ____
ROOT
ATOM      1  C   UNL     1      49.489   8.326  14.284  0.00  0.00    +0.000 C 
ENDROOT
BRANCH   1   2
ATOM      2  C   UNL     1      48.301   8.022  13.413  0.00  0.00    +0.000 A 
ATOM      3  C   UNL     1      48.370   7.044  12.413  0.00  0.00    +0.000 A 
ATOM      4  C   UNL     1      47.247   6.749  11.631  0.00  0.00    +0.000 A 
ATOM      5  C   UNL     1      46.039   7.434  11.819  0.00  0.00    +0.000 A 
ATOM      6  C   UNL     1      45.978   8.406  12.827  0.00  0.00    +0.000 A 
ATOM      7  C   UNL     1      47.102   8.716  13.597  0.00  0.00    +0.000 A 
BRANCH   5   8
ATOM      8  C   UNL     1      44.843   7.088  10.949  0.00  0.00    +0.000 C 
BRANCH   8   9
ATOM      9  O   UNL     1      45.258   6.106   9.996  0.00  0.00    +0.000 OA
ATOM     10  H   UNL     1      46.126   6.384   9.655  0.00  0.00    +0.000 HD
ENDBRANCH   8   9
BRANCH   8  11
ATOM     11  C   UNL     1      43.607   6.534  11.679  0.00  0.00    +0.000 C 
BRANCH  11  12
ATOM     12  C   UNL     1      42.976   5.329  10.964  0.00  0.00    +0.000 C 
BRANCH  12  13
ATOM     13  N   UNL     1      43.071   4.072  11.727  0.00  0.00    +0.000 NA
ATOM     14  C   UNL     1      43.426   4.340  13.134  0.00  0.00    +0.000 C 
ATOM     15  C   UNL     1      44.940   4.281  13.184  0.00  0.00    +0.000 C 
ATOM     16  C   UNL     1      45.271   3.169  12.215  0.00  0.00    +0.000 C 
ATOM     17  C   UNL     1      44.108   3.149  11.229  0.00  0.00    +0.000 C 
ENDBRANCH  12  13
ENDBRANCH  11  12
ENDBRANCH   8  11
ENDBRANCH   5   8
ENDBRANCH   1   2
BRANCH   1  20
ATOM     18  O   UNL     1      48.489   8.614  16.830  0.00  0.00    +0.000 OA
ATOM     19  C   UNL     1      49.049   7.557  16.551  0.00  0.00    +0.000 C 
ATOM     20  N   UNL     1      49.655   7.357  15.336  0.00  0.00    +0.000 N 
ATOM     21  H   UNL     1      49.937   6.421  15.064  0.00  0.00    +0.000 HD
BRANCH  19  22
ATOM     22  C   UNL     1      49.115   6.456  17.519  0.00  0.00    +0.000 A 
ATOM     23  C   UNL     1      49.720   6.662  18.751  0.00  0.00    +0.000 A 
ATOM     24  S   UNL     1      49.683   5.297  19.770  0.00  0.00    +0.000 S 
ATOM     25  C   UNL     1      48.817   4.394  18.617  0.00  0.00    +0.000 A 
ATOM     26  N   UNL     1      48.410   3.125  18.886  0.00  0.00    +0.000 NA
ATOM     27  C   UNL     1      47.725   2.574  17.941  0.00  0.00    +0.000 A 
ATOM     28  N   UNL     1      47.426   3.170  16.743  0.00  0.00    +0.000 N 
ATOM     29  C   UNL     1      47.857   4.432  16.408  0.00  0.00    +0.000 A 
ATOM     30  O   UNL     1      47.638   4.907  15.300  0.00  0.00    +0.000 OA
ATOM     31  C   UNL     1      48.595   5.113  17.454  0.00  0.00    +0.000 A 
ATOM     32  H   UNL     1      46.905   2.675  16.036  0.00  0.00    +0.000 HD
ENDBRANCH  19  22
ENDBRANCH   1  20
TORSDOF 8
ENDMDL
