MODEL 1
REMARK VINA RESULT:    -8.698      0.000      0.000
REMARK INTER + INTRA:         -11.870
REMARK INTER:                 -11.241
REMARK INTRA:                  -0.629
REMARK UNBOUND:                -0.629
REMARK  Name = 
REMARK  5 active torsions:
REMARK  status: ('A' for Active; 'I' for Inactive)
REMARK    1  A    between atoms: C_2  and  C_4
REMARK    2  A    between atoms: C_7  and  N_8
REMARK    3  A    between atoms: N_8  and  C_9
REMARK    4  A    between atoms: C_9  and  C_10
REMARK    5  A    between atoms: C_14  and  C_15
REMARK                            x       y       z     vdW  Elec       q    Type
REMARK                         _______ _______ _______ _____ _____    ______ ____
ROOT
ATOM      1  C   UNL     1      43.635   4.303  11.309  0.00  0.00    +0.000 C 
ENDROOT
BRANCH   1   2
ATOM      2  C   UNL     1      44.894   4.662  12.095  0.00  0.00    +0.000 A 
ATOM      3  N   UNL     1      45.374   3.746  12.961  0.00  0.00    +0.000 NA
ATOM      4  C   UNL     1      46.497   4.069  13.617  0.00  0.00    +0.000 A 
ATOM      5  C   UNL     1      47.159   5.259  13.444  0.00  0.00    +0.000 A 
ATOM      6  C   UNL     1      46.618   6.147  12.529  0.00  0.00    +0.000 A 
ATOM      7  N   UNL     1      45.485   5.852  11.843  0.00  0.00    +0.000 NA
BRANCH   6   8
ATOM      8  C   UNL     1      47.221   7.472  12.266  0.00  0.00    +0.000 A 
ATOM      9  C   UNL     1      46.466   8.662  12.342  0.00  0.00    +0.000 A 
ATOM     10  C   UNL     1      47.032   9.907  12.047  0.00  0.00    +0.000 A 
ATOM     11  C   UNL     1      48.366   9.981  11.679  0.00  0.00    +0.000 A 
ATOM     12  F   UNL     1      48.905  11.172  11.388  0.00  0.00    +0.000 F 
ATOM     13  C   UNL     1      49.148   8.837  11.610  0.00  0.00    +0.000 A 
ATOM     14  C   UNL     1      48.578   7.593  11.905  0.00  0.00    +0.000 A 
ENDBRANCH   6   8
ENDBRANCH   1   2
BRANCH   1  15
ATOM     15  N   UNL     1      43.767   4.692   9.898  0.00  0.00    +0.000 N 
ATOM     16  H   UNL     1      42.869   4.665   9.425  0.00  0.00    +0.000 HD
BRANCH  15  20
ATOM     17  C   UNL     1      46.493   2.510   7.727  0.00  0.00    +0.000 A 
ATOM     18  C   UNL     1      46.446   3.891   7.615  0.00  0.00    +0.000 A 
ATOM     19  N   UNL     1      45.572   4.657   8.328  0.00  0.00    +0.000 NA
ATOM     20  C   UNL     1      44.745   4.002   9.173  0.00  0.00    +0.000 A 
ATOM     21  C   UNL     1      44.820   2.604   9.276  0.00  0.00    +0.000 A 
ATOM     22  N   UNL     1      45.680   1.822   8.572  0.00  0.00    +0.000 NA
BRANCH  17  24
ATOM     23  N   UNL     1      48.514   2.416   6.393  0.00  0.00    +0.000 N 
ATOM     24  C   UNL     1      47.437   1.725   6.883  0.00  0.00    +0.000 C 
ATOM     25  O   UNL     1      47.275   0.534   6.652  0.00  0.00    +0.000 OA
ATOM     26  H   UNL     1      49.214   1.927   5.855  0.00  0.00    +0.000 HD
ATOM     27  H   UNL     1      48.648   3.390   6.643  0.00  0.00    +0.000 HD
ENDBRANCH  17  24
ENDBRANCH  15  20
ENDBRANCH   1  15
TORSDOF 5
ENDMDL
MODEL 2
REMARK VINA RESULT:    -8.410      3.716      6.810
REMARK INTER + INTRA:         -11.497
REMARK INTER:                 -10.811
REMARK INTRA:                  -0.686
REMARK UNBOUND:                -0.629
REMARK  Name = 
REMARK  5 active torsions:
REMARK  status: ('A' for Active; 'I' for Inactive)
REMARK    1  A    between atoms: C_2  and  C_4
REMARK    2  A    between atoms: C_7  and  N_8
REMARK    3  A    between atoms: N_8  and  C_9
REMARK    4  A    between atoms: C_9  and  C_10
REMARK    5  A    between atoms: C_14  and  C_15
REMARK                            x       y       z     vdW  Elec       q    Type
REMARK                         _______ _______ _______ _____ _____    ______ ____
ROOT
ATOM      1  C   UNL     1      43.394   6.246  11.160  0.00  0.00    +0.000 C 
ENDROOT
BRANCH   1   2
ATOM      2  C   UNL     1      43.663   4.765  10.902  0.00  0.00    +0.000 A 
ATOM      3  N   UNL     1      43.066   3.869  11.715  0.00  0.00    +0.000 NA
ATOM      4  C   UNL     1      43.290   2.575  11.451  0.00  0.00    +0.000 A 
ATOM      5  C   UNL     1      44.079   2.139  10.415  0.00  0.00    +0.000 A 
ATOM      6  C   UNL     1      44.650   3.113   9.613  0.00  0.00    +0.000 A 
ATOM      7  N   UNL     1      44.440   4.433   9.846  0.00  0.00    +0.000 NA
BRANCH   6   8
ATOM      8  C   UNL     1      45.538   2.778   8.478  0.00  0.00    +0.000 A 
ATOM      9  C   UNL     1      46.083   1.486   8.316  0.00  0.00    +0.000 A 
ATOM     10  C   UNL     1      46.960   1.190   7.266  0.00  0.00    +0.000 A 
ATOM     11  C   UNL     1      47.297   2.180   6.357  0.00  0.00    +0.000 A 
ATOM     12  F   UNL     1      48.144   1.899   5.358  0.00  0.00    +0.000 F 
ATOM     13  C   UNL     1      46.770   3.458   6.471  0.00  0.00    +0.000 A 
ATOM     14  C   UNL     1      45.893   3.752   7.522  0.00  0.00    +0.000 A 
ENDBRANCH   6   8
ENDBRANCH   1   2
BRANCH   1  15
ATOM     15  N   UNL     1      43.775   6.620  12.528  0.00  0.00    +0.000 N 
ATOM     16  H   UNL     1      43.330   7.489  12.808  0.00  0.00    +0.000 HD
BRANCH  15  20
ATOM     17  C   UNL     1      47.794   6.908  13.349  0.00  0.00    +0.000 A 
ATOM     18  C   UNL     1      47.100   5.739  13.624  0.00  0.00    +0.000 A 
ATOM     19  N   UNL     1      45.772   5.592  13.351  0.00  0.00    +0.000 NA
ATOM     20  C   UNL     1      45.151   6.648  12.783  0.00  0.00    +0.000 A 
ATOM     21  C   UNL     1      45.878   7.817  12.506  0.00  0.00    +0.000 A 
ATOM     22  N   UNL     1      47.200   7.987  12.773  0.00  0.00    +0.000 NA
BRANCH  17  24
ATOM     23  N   UNL     1      50.077   7.404  12.706  0.00  0.00    +0.000 N 
ATOM     24  C   UNL     1      49.233   7.024  13.716  0.00  0.00    +0.000 C 
ATOM     25  O   UNL     1      49.640   6.812  14.851  0.00  0.00    +0.000 OA
ATOM     26  H   UNL     1      51.056   7.548  12.905  0.00  0.00    +0.000 HD
ATOM     27  H   UNL     1      49.704   7.622  11.788  0.00  0.00    +0.000 HD
ENDBRANCH  17  24
ENDBRANCH  15  20
ENDBRANCH   1  15
TORSDOF 5
ENDMDL
MODEL 3
REMARK VINA RESULT:    -8.204      2.615      3.908
REMARK INTER + INTRA:         -11.231
REMARK INTER:                 -10.636
REMARK INTRA:                  -0.595
REMARK UNBOUND:                -0.629
REMARK  Name = 
REMARK  5 active torsions:
REMARK  status: ('A' for Active; 'I' for Inactive)
REMARK    1  A    between atoms: C_2  and  C_4
REMARK    2  A    between atoms: C_7  and  N_8
REMARK    3  A    between atoms: N_8  and  C_9
REMARK    4  A    between atoms: C_9  and  C_10
REMARK    5  A    between atoms: C_14  and  C_15
REMARK                            x       y       z     vdW  Elec       q    Type
REMARK                         _______ _______ _______ _____ _____    ______ ____
ROOT
ATOM      1  C   UNL     1      43.939   4.668  11.428  0.00  0.00    +0.000 C 
ENDROOT
BRANCH   1   2
ATOM      2  C   UNL     1      45.170   5.397  11.963  0.00  0.00    +0.000 A 
ATOM      3  N   UNL     1      45.597   6.483  11.288  0.00  0.00    +0.000 NA
ATOM      4  C   UNL     1      46.660   7.126  11.793  0.00  0.00    +0.000 A 
ATOM      5  C   UNL     1      47.307   6.734  12.938  0.00  0.00    +0.000 A 
ATOM      6  C   UNL     1      46.806   5.618  13.588  0.00  0.00    +0.000 A 
ATOM      7  N   UNL     1      45.730   4.945  13.109  0.00  0.00    +0.000 NA
BRANCH   6   8
ATOM      8  C   UNL     1      47.426   5.078  14.819  0.00  0.00    +0.000 A 
ATOM      9  C   UNL     1      47.176   3.762  15.262  0.00  0.00    +0.000 A 
ATOM     10  C   UNL     1      47.729   3.275  16.452  0.00  0.00    +0.000 A 
ATOM     11  C   UNL     1      48.548   4.095  17.211  0.00  0.00    +0.000 A 
ATOM     12  F   UNL     1      49.069   3.631  18.354  0.00  0.00    +0.000 F 
ATOM     13  C   UNL     1      48.833   5.389  16.801  0.00  0.00    +0.000 A 
ATOM     14  C   UNL     1      48.278   5.874  15.610  0.00  0.00    +0.000 A 
ENDBRANCH   6   8
ENDBRANCH   1   2
BRANCH   1  15
ATOM     15  N   UNL     1      43.856   4.779   9.965  0.00  0.00    +0.000 N 
ATOM     16  H   UNL     1      42.908   4.621   9.639  0.00  0.00    +0.000 HD
BRANCH  15  20
ATOM     17  C   UNL     1      46.405   2.355   7.836  0.00  0.00    +0.000 A 
ATOM     18  C   UNL     1      46.411   3.727   7.642  0.00  0.00    +0.000 A 
ATOM     19  N   UNL     1      45.598   4.572   8.339  0.00  0.00    +0.000 NA
ATOM     20  C   UNL     1      44.777   4.006   9.249  0.00  0.00    +0.000 A 
ATOM     21  C   UNL     1      44.796   2.614   9.434  0.00  0.00    +0.000 A 
ATOM     22  N   UNL     1      45.595   1.754   8.749  0.00  0.00    +0.000 NA
BRANCH  17  24
ATOM     23  N   UNL     1      48.299   2.114   6.345  0.00  0.00    +0.000 N 
ATOM     24  C   UNL     1      47.282   1.480   7.009  0.00  0.00    +0.000 C 
ATOM     25  O   UNL     1      47.119   0.269   6.935  0.00  0.00    +0.000 OA
ATOM     26  H   UNL     1      48.957   1.568   5.808  0.00  0.00    +0.000 HD
ATOM     27  H   UNL     1      48.440   3.111   6.466  0.00  0.00    +0.000 HD
ENDBRANCH  17  24
ENDBRANCH  15  20
ENDBRANCH   1  15
TORSDOF 5
ENDMDL
MODEL 4
REMARK VINA RESULT:    -8.122      4.067      7.321
REMARK INTER + INTRA:         -11.124
REMARK INTER:                 -10.646
REMARK INTRA:                  -0.478
REMARK UNBOUND:                -0.629
REMARK  Name = 
REMARK  5 active torsions:
REMARK  status: ('A' for Active; 'I' for Inactive)
REMARK    1  A    between atoms: C_2  and  C_4
REMARK    2  A    between atoms: C_7  and  N_8
REMARK    3  A    between atoms: N_8  and  C_9
REMARK    4  A    between atoms: C_9  and  C_10
REMARK    5  A    between atoms: C_14  and  C_15
REMARK                            x       y       z     vdW  Elec       q    Type
REMARK                         _______ _______ _______ _____ _____    ______ ____
ROOT
ATOM      1  C   UNL     1      46.161   7.212  12.426  0.00  0.00    +0.000 C 
ENDROOT
BRANCH   1   2
ATOM      2  C   UNL     1      45.200   6.274  11.701  0.00  0.00    +0.000 A 
ATOM      3  N   UNL     1      43.892   6.346  12.022  0.00  0.00    +0.000 NA
ATOM      4  C   UNL     1      43.062   5.536  11.351  0.00  0.00    +0.000 A 
ATOM      5  C   UNL     1      43.479   4.664  10.376  0.00  0.00    +0.000 A 
ATOM      6  C   UNL     1      44.834   4.652  10.087  0.00  0.00    +0.000 A 
ATOM      7  N   UNL     1      45.703   5.461  10.743  0.00  0.00    +0.000 NA
BRANCH   6   8
ATOM      8  C   UNL     1      45.416   3.743   9.075  0.00  0.00    +0.000 A 
ATOM      9  C   UNL     1      45.346   2.340   9.207  0.00  0.00    +0.000 A 
ATOM     10  C   UNL     1      45.940   1.488   8.269  0.00  0.00    +0.000 A 
ATOM     11  C   UNL     1      46.604   2.027   7.179  0.00  0.00    +0.000 A 
ATOM     12  F   UNL     1      47.180   1.212   6.287  0.00  0.00    +0.000 F 
ATOM     13  C   UNL     1      46.680   3.402   7.003  0.00  0.00    +0.000 A 
ATOM     14  C   UNL     1      46.086   4.252   7.944  0.00  0.00    +0.000 A 
ENDBRANCH   6   8
ENDBRANCH   1   2
BRANCH   1  15
ATOM     15  N   UNL     1      47.448   6.552  12.682  0.00  0.00    +0.000 N 
ATOM     16  H   UNL     1      47.716   5.956  11.905  0.00  0.00    +0.000 HD
BRANCH  15  20
ATOM     17  C   UNL     1      47.735   4.364  16.152  0.00  0.00    +0.000 A 
ATOM     18  C   UNL     1      48.421   5.561  16.015  0.00  0.00    +0.000 A 
ATOM     19  N   UNL     1      48.341   6.329  14.891  0.00  0.00    +0.000 NA
ATOM     20  C   UNL     1      47.544   5.871  13.901  0.00  0.00    +0.000 A 
ATOM     21  C   UNL     1      46.852   4.661  14.068  0.00  0.00    +0.000 A 
ATOM     22  N   UNL     1      46.920   3.878  15.178  0.00  0.00    +0.000 NA
BRANCH  17  24
ATOM     23  N   UNL     1      46.840   2.750  17.722  0.00  0.00    +0.000 N 
ATOM     24  C   UNL     1      47.903   3.546  17.385  0.00  0.00    +0.000 C 
ATOM     25  O   UNL     1      48.930   3.566  18.051  0.00  0.00    +0.000 OA
ATOM     26  H   UNL     1      46.912   2.135  18.519  0.00  0.00    +0.000 HD
ATOM     27  H   UNL     1      46.022   2.716  17.123  0.00  0.00    +0.000 HD
ENDBRANCH  17  24
ENDBRANCH  15  20
ENDBRANCH   1  15
TORSDOF 5
ENDMDL
MODEL 5
REMARK VINA RESULT:    -7.687      1.654      2.432
REMARK INTER + INTRA:         -10.563
REMARK INTER:                  -9.924
REMARK INTRA:                  -0.639
REMARK UNBOUND:                -0.629
REMARK  Name = 
REMARK  5 active torsions:
REMARK  status: ('A' for Active; 'I' for Inactive)
REMARK    1  A    between atoms: C_2  and  C_4
REMARK    2  A    between atoms: C_7  and  N_8
REMARK    3  A    between atoms: N_8  and  C_9
REMARK    4  A    between atoms: C_9  and  C_10
REMARK    5  A    between atoms: C_14  and  C_15
REMARK                            x       y       z     vdW  Elec       q    Type
REMARK                         _______ _______ _______ _____ _____    ______ ____
ROOT
ATOM      1  C   UNL     1      44.098   5.059  11.222  0.00  0.00    +0.000 C 
ENDROOT
BRANCH   1   2
ATOM      2  C   UNL     1      44.710   6.440  11.444  0.00  0.00    +0.000 A 
ATOM      3  N   UNL     1      43.931   7.515  11.212  0.00  0.00    +0.000 NA
ATOM      4  C   UNL     1      44.478   8.717  11.444  0.00  0.00    +0.000 A 
ATOM      5  C   UNL     1      45.762   8.888  11.899  0.00  0.00    +0.000 A 
ATOM      6  C   UNL     1      46.501   7.740  12.130  0.00  0.00    +0.000 A 
ATOM      7  N   UNL     1      45.978   6.507  11.910  0.00  0.00    +0.000 NA
BRANCH   6   8
ATOM      8  C   UNL     1      47.904   7.786  12.598  0.00  0.00    +0.000 A 
ATOM      9  C   UNL     1      48.298   7.213  13.826  0.00  0.00    +0.000 A 
ATOM     10  C   UNL     1      49.618   7.302  14.283  0.00  0.00    +0.000 A 
ATOM     11  C   UNL     1      50.565   7.960  13.514  0.00  0.00    +0.000 A 
ATOM     12  F   UNL     1      51.825   8.053  13.957  0.00  0.00    +0.000 F 
ATOM     13  C   UNL     1      50.222   8.522  12.293  0.00  0.00    +0.000 A 
ATOM     14  C   UNL     1      48.901   8.431  11.838  0.00  0.00    +0.000 A 
ENDBRANCH   6   8
ENDBRANCH   1   2
BRANCH   1  15
ATOM     15  N   UNL     1      43.829   4.826   9.796  0.00  0.00    +0.000 N 
ATOM     16  H   UNL     1      42.890   4.468   9.654  0.00  0.00    +0.000 HD
BRANCH  15  20
ATOM     17  C   UNL     1      46.461   2.384   7.792  0.00  0.00    +0.000 A 
ATOM     18  C   UNL     1      46.478   3.755   7.590  0.00  0.00    +0.000 A 
ATOM     19  N   UNL     1      45.638   4.605   8.246  0.00  0.00    +0.000 NA
ATOM     20  C   UNL     1      44.778   4.046   9.124  0.00  0.00    +0.000 A 
ATOM     21  C   UNL     1      44.786   2.656   9.319  0.00  0.00    +0.000 A 
ATOM     22  N   UNL     1      45.612   1.790   8.673  0.00  0.00    +0.000 NA
BRANCH  17  24
ATOM     23  N   UNL     1      48.467   2.115   6.460  0.00  0.00    +0.000 N 
ATOM     24  C   UNL     1      47.371   1.503   7.008  0.00  0.00    +0.000 C 
ATOM     25  O   UNL     1      47.166   0.304   6.871  0.00  0.00    +0.000 OA
ATOM     26  H   UNL     1      49.147   1.561   5.959  0.00  0.00    +0.000 HD
ATOM     27  H   UNL     1      48.637   3.100   6.633  0.00  0.00    +0.000 HD
ENDBRANCH  17  24
ENDBRANCH  15  20
ENDBRANCH   1  15
TORSDOF 5
ENDMDL
MODEL 6
REMARK VINA RESULT:    -7.630      4.795      7.908
REMARK INTER + INTRA:         -10.489
REMARK INTER:                  -9.988
REMARK INTRA:                  -0.500
REMARK UNBOUND:                -0.629
REMARK  Name = 
REMARK  5 active torsions:
REMARK  status: ('A' for Active; 'I' for Inactive)
REMARK    1  A    between atoms: C_2  and  C_4
REMARK    2  A    between atoms: C_7  and  N_8
REMARK    3  A    between atoms: N_8  and  C_9
REMARK    4  A    between atoms: C_9  and  C_10
REMARK    5  A    between atoms: C_14  and  C_15
REMARK                            x       y       z     vdW  Elec       q    Type
REMARK                         _______ _______ _______ _____ _____    ______ ____
ROOT
ATOM      1  C   UNL     1      45.370   4.614  13.854  0.00  0.00    +0.000 C 
ENDROOT
BRANCH   1   2
ATOM      2  C   UNL     1      44.697   4.656  12.485  0.00  0.00    +0.000 A 
ATOM      3  N   UNL     1      43.520   5.307  12.385  0.00  0.00    +0.000 NA
ATOM      4  C   UNL     1      42.962   5.359  11.168  0.00  0.00    +0.000 A 
ATOM      5  C   UNL     1      43.527   4.793  10.052  0.00  0.00    +0.000 A 
ATOM      6  C   UNL     1      44.743   4.152  10.224  0.00  0.00    +0.000 A 
ATOM      7  N   UNL     1      45.339   4.084  11.441  0.00  0.00    +0.000 NA
BRANCH   6   8
ATOM      8  C   UNL     1      45.445   3.482   9.107  0.00  0.00    +0.000 A 
ATOM      9  C   UNL     1      45.967   4.206   8.015  0.00  0.00    +0.000 A 
ATOM     10  C   UNL     1      46.589   3.561   6.940  0.00  0.00    +0.000 A 
ATOM     11  C   UNL     1      46.706   2.180   6.947  0.00  0.00    +0.000 A 
ATOM     12  F   UNL     1      47.293   1.561   5.915  0.00  0.00    +0.000 F 
ATOM     13  C   UNL     1      46.222   1.432   8.011  0.00  0.00    +0.000 A 
ATOM     14  C   UNL     1      45.600   2.081   9.085  0.00  0.00    +0.000 A 
ENDBRANCH   6   8
ENDBRANCH   1   2
BRANCH   1  15
ATOM     15  N   UNL     1      46.636   3.870  13.796  0.00  0.00    +0.000 N 
ATOM     16  H   UNL     1      46.496   2.936  13.424  0.00  0.00    +0.000 HD
BRANCH  15  20
ATOM     17  C   UNL     1      48.651   3.915  17.380  0.00  0.00    +0.000 A 
ATOM     18  C   UNL     1      48.504   2.734  16.668  0.00  0.00    +0.000 A 
ATOM     19  N   UNL     1      47.860   2.675  15.468  0.00  0.00    +0.000 NA
ATOM     20  C   UNL     1      47.371   3.838  14.986  0.00  0.00    +0.000 A 
ATOM     21  C   UNL     1      47.542   5.022  15.720  0.00  0.00    +0.000 A 
ATOM     22  N   UNL     1      48.177   5.103  16.920  0.00  0.00    +0.000 NA
BRANCH  17  24
ATOM     23  N   UNL     1      48.562   3.452  19.756  0.00  0.00    +0.000 N 
ATOM     24  C   UNL     1      49.321   3.906  18.710  0.00  0.00    +0.000 C 
ATOM     25  O   UNL     1      50.482   4.263  18.863  0.00  0.00    +0.000 OA
ATOM     26  H   UNL     1      48.976   3.375  20.674  0.00  0.00    +0.000 HD
ATOM     27  H   UNL     1      47.620   3.114  19.591  0.00  0.00    +0.000 HD
ENDBRANCH  17  24
ENDBRANCH  15  20
ENDBRANCH   1  15
TORSDOF 5
ENDMDL
MODEL 7
REMARK VINA RESULT:    -6.858      5.588      7.418
REMARK INTER + INTRA:          -9.491
REMARK INTER:                  -8.997
REMARK INTRA:                  -0.494
REMARK UNBOUND:                -0.629
REMARK  Name = 
REMARK  5 active torsions:
REMARK  status: ('A' for Active; 'I' for Inactive)
REMARK    1  A    between atoms: C_2  and  C_4
REMARK    2  A    between atoms: C_7  and  N_8
REMARK    3  A    between atoms: N_8  and  C_9
REMARK    4  A    between atoms: C_9  and  C_10
REMARK    5  A    between atoms: C_14  and  C_15
REMARK                            x       y       z     vdW  Elec       q    Type
REMARK                         _______ _______ _______ _____ _____    ______ ____
ROOT
ATOM      1  C   UNL     1      47.178   4.335  15.732  0.00  0.00    +0.000 C 
ENDROOT
BRANCH   1   2
ATOM      2  C   UNL     1      48.344   4.690  16.651  0.00  0.00    +0.000 A 
ATOM      3  N   UNL     1      48.300   5.877  17.291  0.00  0.00    +0.000 NA
ATOM      4  C   UNL     1      49.318   6.154  18.117  0.00  0.00    +0.000 A 
ATOM      5  C   UNL     1      50.371   5.300  18.333  0.00  0.00    +0.000 A 
ATOM      6  C   UNL     1      50.346   4.093  17.654  0.00  0.00    +0.000 A 
ATOM      7  N   UNL     1      49.329   3.776  16.814  0.00  0.00    +0.000 NA
BRANCH   6   8
ATOM      8  C   UNL     1      51.431   3.095  17.781  0.00  0.00    +0.000 A 
ATOM      9  C   UNL     1      52.706   3.440  18.276  0.00  0.00    +0.000 A 
ATOM     10  C   UNL     1      53.740   2.501  18.349  0.00  0.00    +0.000 A 
ATOM     11  C   UNL     1      53.512   1.198  17.935  0.00  0.00    +0.000 A 
ATOM     12  F   UNL     1      54.505   0.302  17.996  0.00  0.00    +0.000 F 
ATOM     13  C   UNL     1      52.267   0.813  17.458  0.00  0.00    +0.000 A 
ATOM     14  C   UNL     1      51.234   1.756  17.386  0.00  0.00    +0.000 A 
ENDBRANCH   6   8
ENDBRANCH   1   2
BRANCH   1  15
ATOM     15  N   UNL     1      47.051   5.312  14.642  0.00  0.00    +0.000 N 
ATOM     16  H   UNL     1      46.703   6.202  14.986  0.00  0.00    +0.000 HD
BRANCH  15  20
ATOM     17  C   UNL     1      45.063   4.141  11.239  0.00  0.00    +0.000 A 
ATOM     18  C   UNL     1      45.209   3.268  12.305  0.00  0.00    +0.000 A 
ATOM     19  N   UNL     1      45.844   3.618  13.460  0.00  0.00    +0.000 NA
ATOM     20  C   UNL     1      46.325   4.879  13.527  0.00  0.00    +0.000 A 
ATOM     21  C   UNL     1      46.155   5.747  12.438  0.00  0.00    +0.000 A 
ATOM     22  N   UNL     1      45.529   5.418  11.276  0.00  0.00    +0.000 NA
BRANCH  17  24
ATOM     23  N   UNL     1      43.760   4.652   9.261  0.00  0.00    +0.000 N 
ATOM     24  C   UNL     1      44.403   3.683   9.985  0.00  0.00    +0.000 C 
ATOM     25  O   UNL     1      44.443   2.518   9.610  0.00  0.00    +0.000 OA
ATOM     26  H   UNL     1      43.336   4.412   8.376  0.00  0.00    +0.000 HD
ATOM     27  H   UNL     1      43.787   5.617   9.570  0.00  0.00    +0.000 HD
ENDBRANCH  17  24
ENDBRANCH  15  20
ENDBRANCH   1  15
TORSDOF 5
ENDMDL
MODEL 8
REMARK VINA RESULT:    -6.743      3.725      6.902
REMARK INTER + INTRA:          -9.343
REMARK INTER:                  -8.685
REMARK INTRA:                  -0.657
REMARK UNBOUND:                -0.629
REMARK  Name = 
REMARK  5 active torsions:
REMARK  status: ('A' for Active; 'I' for Inactive)
REMARK    1  A    between atoms: C_2  and  C_4
REMARK    2  A    between atoms: C_7  and  N_8
REMARK    3  A    between atoms: N_8  and  C_9
REMARK    4  A    between atoms: C_9  and  C_10
REMARK    5  A    between atoms: C_14  and  C_15
REMARK                            x       y       z     vdW  Elec       q    Type
REMARK                         _______ _______ _______ _____ _____    ______ ____
ROOT
ATOM      1  C   UNL     1      45.963   4.099  13.452  0.00  0.00    +0.000 C 
ENDROOT
BRANCH   1   2
ATOM      2  C   UNL     1      45.154   4.022  12.159  0.00  0.00    +0.000 A 
ATOM      3  N   UNL     1      43.860   4.396  12.206  0.00  0.00    +0.000 NA
ATOM      4  C   UNL     1      43.177   4.351  11.054  0.00  0.00    +0.000 A 
ATOM      5  C   UNL     1      43.731   3.953   9.862  0.00  0.00    +0.000 A 
ATOM      6  C   UNL     1      45.069   3.596   9.883  0.00  0.00    +0.000 A 
ATOM      7  N   UNL     1      45.792   3.634  11.030  0.00  0.00    +0.000 NA
BRANCH   6   8
ATOM      8  C   UNL     1      45.779   3.128   8.672  0.00  0.00    +0.000 A 
ATOM      9  C   UNL     1      46.151   4.013   7.639  0.00  0.00    +0.000 A 
ATOM     10  C   UNL     1      46.780   3.555   6.476  0.00  0.00    +0.000 A 
ATOM     11  C   UNL     1      47.055   2.204   6.334  0.00  0.00    +0.000 A 
ATOM     12  F   UNL     1      47.648   1.764   5.217  0.00  0.00    +0.000 F 
ATOM     13  C   UNL     1      46.720   1.303   7.334  0.00  0.00    +0.000 A 
ATOM     14  C   UNL     1      46.090   1.764   8.497  0.00  0.00    +0.000 A 
ENDBRANCH   6   8
ENDBRANCH   1   2
BRANCH   1  15
ATOM     15  N   UNL     1      46.019   5.478  13.956  0.00  0.00    +0.000 N 
ATOM     16  H   UNL     1      45.149   5.969  13.779  0.00  0.00    +0.000 HD
BRANCH  15  20
ATOM     17  C   UNL     1      49.390   7.530  12.801  0.00  0.00    +0.000 A 
ATOM     18  C   UNL     1      48.284   7.464  11.967  0.00  0.00    +0.000 A 
ATOM     19  N   UNL     1      47.139   6.811  12.316  0.00  0.00    +0.000 NA
ATOM     20  C   UNL     1      47.122   6.229  13.534  0.00  0.00    +0.000 A 
ATOM     21  C   UNL     1      48.251   6.318  14.364  0.00  0.00    +0.000 A 
ATOM     22  N   UNL     1      49.404   6.960  14.035  0.00  0.00    +0.000 NA
BRANCH  17  24
ATOM     23  N   UNL     1      51.761   7.952  13.069  0.00  0.00    +0.000 N 
ATOM     24  C   UNL     1      50.630   8.216  12.342  0.00  0.00    +0.000 C 
ATOM     25  O   UNL     1      50.648   8.956  11.367  0.00  0.00    +0.000 OA
ATOM     26  H   UNL     1      52.642   8.349  12.778  0.00  0.00    +0.000 HD
ATOM     27  H   UNL     1      51.725   7.295  13.841  0.00  0.00    +0.000 HD
ENDBRANCH  17  24
ENDBRANCH  15  20
ENDBRANCH   1  15
TORSDOF 5
ENDMDL
MODEL 9
REMARK VINA RESULT:    -6.608      4.374      7.650
REMARK INTER + INTRA:          -9.169
REMARK INTER:                  -8.645
REMARK INTRA:                  -0.523
REMARK UNBOUND:                -0.629
REMARK  Name = 
REMARK  5 active torsions:
REMARK  status: ('A' for Active; 'I' for Inactive)
REMARK    1  A    between atoms: C_2  and  C_4
REMARK    2  A    between atoms: C_7  and  N_8
REMARK    3  A    between atoms: N_8  and  C_9
REMARK    4  A    between atoms: C_9  and  C_10
REMARK    5  A    between atoms: C_14  and  C_15
REMARK                            x       y       z     vdW  Elec       q    Type
REMARK                         _______ _______ _______ _____ _____    ______ ____
ROOT
ATOM      1  C   UNL     1      45.904   7.439  12.226  0.00  0.00    +0.000 C 
ENDROOT
BRANCH   1   2
ATOM      2  C   UNL     1      45.022   6.347  11.625  0.00  0.00    +0.000 A 
ATOM      3  N   UNL     1      43.743   6.273  12.046  0.00  0.00    +0.000 NA
ATOM      4  C   UNL     1      42.978   5.327  11.482  0.00  0.00    +0.000 A 
ATOM      5  C   UNL     1      43.432   4.460  10.520  0.00  0.00    +0.000 A 
ATOM      6  C   UNL     1      44.752   4.603  10.125  0.00  0.00    +0.000 A 
ATOM      7  N   UNL     1      45.554   5.551  10.670  0.00  0.00    +0.000 NA
BRANCH   6   8
ATOM      8  C   UNL     1      45.371   3.717   9.113  0.00  0.00    +0.000 A 
ATOM      9  C   UNL     1      45.331   2.312   9.230  0.00  0.00    +0.000 A 
ATOM     10  C   UNL     1      45.959   1.483   8.294  0.00  0.00    +0.000 A 
ATOM     11  C   UNL     1      46.630   2.048   7.221  0.00  0.00    +0.000 A 
ATOM     12  F   UNL     1      47.240   1.255   6.331  0.00  0.00    +0.000 F 
ATOM     13  C   UNL     1      46.679   3.426   7.061  0.00  0.00    +0.000 A 
ATOM     14  C   UNL     1      46.049   4.253   7.999  0.00  0.00    +0.000 A 
ENDBRANCH   6   8
ENDBRANCH   1   2
BRANCH   1  15
ATOM     15  N   UNL     1      46.578   6.962  13.441  0.00  0.00    +0.000 N 
ATOM     16  H   UNL     1      46.009   7.130  14.265  0.00  0.00    +0.000 HD
BRANCH  15  20
ATOM     17  C   UNL     1      50.344   8.519  13.989  0.00  0.00    +0.000 A 
ATOM     18  C   UNL     1      49.973   7.335  14.610  0.00  0.00    +0.000 A 
ATOM     19  N   UNL     1      48.742   6.773  14.442  0.00  0.00    +0.000 NA
ATOM     20  C   UNL     1      47.886   7.423  13.624  0.00  0.00    +0.000 A 
ATOM     21  C   UNL     1      48.289   8.614  13.000  0.00  0.00    +0.000 A 
ATOM     22  N   UNL     1      49.509   9.194  13.156  0.00  0.00    +0.000 NA
BRANCH  17  24
ATOM     23  N   UNL     1      52.394   8.546  15.281  0.00  0.00    +0.000 N 
ATOM     24  C   UNL     1      51.686   9.109  14.252  0.00  0.00    +0.000 C 
ATOM     25  O   UNL     1      52.140  10.029  13.584  0.00  0.00    +0.000 OA
ATOM     26  H   UNL     1      53.330   8.870  15.476  0.00  0.00    +0.000 HD
ATOM     27  H   UNL     1      52.012   7.752  15.784  0.00  0.00    +0.000 HD
ENDBRANCH  17  24
ENDBRANCH  15  20
ENDBRANCH   1  15
TORSDOF 5
ENDMDL
