MODEL 1
REMARK VINA RESULT:    -7.715      0.000      0.000
REMARK INTER + INTRA:         -11.321
REMARK INTER:                 -10.646
REMARK INTRA:                  -0.675
REMARK UNBOUND:                -0.675
REMARK  Name = 
REMARK  8 active torsions:
REMARK  status: ('A' for Active; 'I' for Inactive)
REMARK    1  A    between atoms: C_1  and  C_2
REMARK    2  A    between atoms: C_3  and  C_4
REMARK    3  A    between atoms: C_4  and  C_5
REMARK    4  A    between atoms: C_4  and  C_16
REMARK    5  A    between atoms: C_5  and  O_6
REMARK    6  A    between atoms: O_6  and  C_7
REMARK    7  A    between atoms: C_10  and  C_11
REMARK    8  A    between atoms: C_20  and  O_21
REMARK                            x       y       z     vdW  Elec       q    Type
REMARK                         _______ _______ _______ _____ _____    ______ ____
ROOT
ATOM      1  C   UNL     1      44.028   4.767  11.375  0.00  0.00    +0.000 C 
ENDROOT
BRANCH   1   2
ATOM      2  C   UNL     1      45.341   5.537  11.631  0.00  0.00    +0.000 C 
BRANCH   2   3
ATOM      3  C   UNL     1      45.164   7.048  11.735  0.00  0.00    +0.000 A 
ATOM      4  C   UNL     1      46.038   7.851  12.493  0.00  0.00    +0.000 A 
ATOM      5  C   UNL     1      45.904   9.242  12.517  0.00  0.00    +0.000 A 
ATOM      6  C   UNL     1      44.900   9.857  11.774  0.00  0.00    +0.000 A 
ATOM      7  C   UNL     1      44.034   9.072  11.022  0.00  0.00    +0.000 A 
ATOM      8  C   UNL     1      44.152   7.684  11.000  0.00  0.00    +0.000 A 
BRANCH   7   9
ATOM      9  O   UNL     1      43.049   9.633  10.264  0.00  0.00    +0.000 OA
ATOM     10  H   UNL     1      43.456  10.268   9.653  0.00  0.00    +0.000 HD
ENDBRANCH   7   9
ENDBRANCH   2   3
BRANCH   2  13
ATOM     11  C   UNL     1      47.150   4.070  15.298  0.00  0.00    +0.000 C 
ATOM     12  C   UNL     1      46.517   4.583  14.015  0.00  0.00    +0.000 C 
ATOM     13  C   UNL     1      45.974   5.024  12.914  0.00  0.00    +0.000 C 
ENDBRANCH   2  13
ENDBRANCH   1   2
BRANCH   1  14
ATOM     14  O   UNL     1      43.699   4.687   9.970  0.00  0.00    +0.000 OA
BRANCH  14  15
ATOM     15  C   UNL     1      44.641   3.986   9.250  0.00  0.00    +0.000 A 
ATOM     16  C   UNL     1      44.713   2.614   9.430  0.00  0.00    +0.000 A 
ATOM     17  C   UNL     1      45.633   1.896   8.662  0.00  0.00    +0.000 A 
ATOM     18  C   UNL     1      46.445   2.565   7.742  0.00  0.00    +0.000 A 
ATOM     19  C   UNL     1      46.305   3.943   7.659  0.00  0.00    +0.000 A 
ATOM     20  N   UNL     1      45.429   4.663   8.389  0.00  0.00    +0.000 NA
BRANCH  18  21
ATOM     21  C   UNL     1      47.389   1.801   6.896  0.00  0.00    +0.000 C 
ATOM     22  N   UNL     1      48.537   2.405   6.463  0.00  0.00    +0.000 N 
ATOM     23  O   UNL     1      47.150   0.641   6.572  0.00  0.00    +0.000 OA
ATOM     24  H   UNL     1      48.822   3.353   6.655  0.00  0.00    +0.000 HD
ATOM     25  H   UNL     1      49.142   1.854   5.870  0.00  0.00    +0.000 HD
ENDBRANCH  18  21
ENDBRANCH  14  15
ENDBRANCH   1  14
TORSDOF 7
ENDMDL
MODEL 2
REMARK VINA RESULT:    -7.710      1.100      1.502
REMARK INTER + INTRA:         -11.314
REMARK INTER:                 -10.655
REMARK INTRA:                  -0.659
REMARK UNBOUND:                -0.675
REMARK  Name = 
REMARK  8 active torsions:
REMARK  status: ('A' for Active; 'I' for Inactive)
REMARK    1  A    between atoms: C_1  and  C_2
REMARK    2  A    between atoms: C_3  and  C_4
REMARK    3  A    between atoms: C_4  and  C_5
REMARK    4  A    between atoms: C_4  and  C_16
REMARK    5  A    between atoms: C_5  and  O_6
REMARK    6  A    between atoms: O_6  and  C_7
REMARK    7  A    between atoms: C_10  and  C_11
REMARK    8  A    between atoms: C_20  and  O_21
REMARK                            x       y       z     vdW  Elec       q    Type
REMARK                         _______ _______ _______ _____ _____    ______ ____
ROOT
ATOM      1  C   UNL     1      44.157   4.734  11.416  0.00  0.00    +0.000 C 
ENDROOT
BRANCH   1   2
ATOM      2  C   UNL     1      45.498   5.456  11.664  0.00  0.00    +0.000 C 
BRANCH   2   3
ATOM      3  C   UNL     1      45.383   6.975  11.724  0.00  0.00    +0.000 A 
ATOM      4  C   UNL     1      44.304   7.665  11.139  0.00  0.00    +0.000 A 
ATOM      5  C   UNL     1      44.178   9.052  11.268  0.00  0.00    +0.000 A 
ATOM      6  C   UNL     1      45.122   9.772  11.995  0.00  0.00    +0.000 A 
ATOM      7  C   UNL     1      46.188   9.098  12.577  0.00  0.00    +0.000 A 
ATOM      8  C   UNL     1      46.330   7.719  12.445  0.00  0.00    +0.000 A 
BRANCH   7   9
ATOM      9  O   UNL     1      47.125   9.761  13.315  0.00  0.00    +0.000 OA
ATOM     10  H   UNL     1      46.670  10.255  14.015  0.00  0.00    +0.000 HD
ENDBRANCH   7   9
ENDBRANCH   2   3
BRANCH   2  13
ATOM     11  C   UNL     1      47.209   4.020  15.390  0.00  0.00    +0.000 C 
ATOM     12  C   UNL     1      46.611   4.522  14.086  0.00  0.00    +0.000 C 
ATOM     13  C   UNL     1      46.097   4.953  12.968  0.00  0.00    +0.000 C 
ENDBRANCH   2  13
ENDBRANCH   1   2
BRANCH   1  14
ATOM     14  O   UNL     1      43.811   4.678  10.014  0.00  0.00    +0.000 OA
BRANCH  14  15
ATOM     15  C   UNL     1      44.731   3.970   9.274  0.00  0.00    +0.000 A 
ATOM     16  C   UNL     1      44.817   2.601   9.474  0.00  0.00    +0.000 A 
ATOM     17  C   UNL     1      45.714   1.875   8.687  0.00  0.00    +0.000 A 
ATOM     18  C   UNL     1      46.491   2.532   7.729  0.00  0.00    +0.000 A 
ATOM     19  C   UNL     1      46.340   3.907   7.627  0.00  0.00    +0.000 A 
ATOM     20  N   UNL     1      45.486   4.636   8.375  0.00  0.00    +0.000 NA
BRANCH  18  21
ATOM     21  C   UNL     1      47.409   1.758   6.864  0.00  0.00    +0.000 C 
ATOM     22  N   UNL     1      48.539   2.360   6.383  0.00  0.00    +0.000 N 
ATOM     23  O   UNL     1      47.165   0.592   6.568  0.00  0.00    +0.000 OA
ATOM     24  H   UNL     1      48.826   3.313   6.549  0.00  0.00    +0.000 HD
ATOM     25  H   UNL     1      49.126   1.802   5.778  0.00  0.00    +0.000 HD
ENDBRANCH  18  21
ENDBRANCH  14  15
ENDBRANCH   1  14
TORSDOF 7
ENDMDL
MODEL 3
REMARK VINA RESULT:    -7.505      3.043      7.111
REMARK INTER + INTRA:         -11.032
REMARK INTER:                 -10.416
REMARK INTRA:                  -0.616
REMARK UNBOUND:                -0.675
REMARK  Name = 
REMARK  8 active torsions:
REMARK  status: ('A' for Active; 'I' for Inactive)
REMARK    1  A    between atoms: C_1  and  C_2
REMARK    2  A    between atoms: C_3  and  C_4
REMARK    3  A    between atoms: C_4  and  C_5
REMARK    4  A    between atoms: C_4  and  C_16
REMARK    5  A    between atoms: C_5  and  O_6
REMARK    6  A    between atoms: O_6  and  C_7
REMARK    7  A    between atoms: C_10  and  C_11
REMARK    8  A    between atoms: C_20  and  O_21
REMARK                            x       y       z     vdW  Elec       q    Type
REMARK                         _______ _______ _______ _____ _____    ______ ____
ROOT
ATOM      1  C   UNL     1      45.934   5.387   9.263  0.00  0.00    +0.000 C 
ENDROOT
BRANCH   1   2
ATOM      2  C   UNL     1      45.103   4.213   8.704  0.00  0.00    +0.000 C 
BRANCH   2   3
ATOM      3  C   UNL     1      45.913   3.218   7.879  0.00  0.00    +0.000 A 
ATOM      4  C   UNL     1      46.680   3.619   6.769  0.00  0.00    +0.000 A 
ATOM      5  C   UNL     1      47.474   2.705   6.070  0.00  0.00    +0.000 A 
ATOM      6  C   UNL     1      47.523   1.374   6.477  0.00  0.00    +0.000 A 
ATOM      7  C   UNL     1      46.770   0.970   7.573  0.00  0.00    +0.000 A 
ATOM      8  C   UNL     1      45.968   1.871   8.268  0.00  0.00    +0.000 A 
BRANCH   7   9
ATOM      9  O   UNL     1      46.804  -0.319   8.017  0.00  0.00    +0.000 OA
ATOM     10  H   UNL     1      46.691  -0.909   7.256  0.00  0.00    +0.000 HD
ENDBRANCH   7   9
ENDBRANCH   2   3
BRANCH   2  13
ATOM     11  C   UNL     1      43.223   2.111  12.008  0.00  0.00    +0.000 C 
ATOM     12  C   UNL     1      43.881   2.846  10.852  0.00  0.00    +0.000 C 
ATOM     13  C   UNL     1      44.445   3.478   9.860  0.00  0.00    +0.000 C 
ENDBRANCH   2  13
ENDBRANCH   1   2
BRANCH   1  14
ATOM     14  O   UNL     1      45.314   6.006  10.412  0.00  0.00    +0.000 OA
BRANCH  14  15
ATOM     15  C   UNL     1      46.160   6.067  11.496  0.00  0.00    +0.000 A 
ATOM     16  C   UNL     1      47.231   6.946  11.440  0.00  0.00    +0.000 A 
ATOM     17  C   UNL     1      48.061   7.046  12.559  0.00  0.00    +0.000 A 
ATOM     18  C   UNL     1      47.796   6.274  13.694  0.00  0.00    +0.000 A 
ATOM     19  C   UNL     1      46.711   5.412  13.634  0.00  0.00    +0.000 A 
ATOM     20  N   UNL     1      45.895   5.291  12.568  0.00  0.00    +0.000 NA
BRANCH  18  21
ATOM     21  C   UNL     1      48.647   6.411  14.898  0.00  0.00    +0.000 C 
ATOM     22  N   UNL     1      48.124   6.107  16.123  0.00  0.00    +0.000 N 
ATOM     23  O   UNL     1      49.808   6.801  14.808  0.00  0.00    +0.000 OA
ATOM     24  H   UNL     1      47.183   5.795  16.312  0.00  0.00    +0.000 HD
ATOM     25  H   UNL     1      48.734   6.236  16.919  0.00  0.00    +0.000 HD
ENDBRANCH  18  21
ENDBRANCH  14  15
ENDBRANCH   1  14
TORSDOF 7
ENDMDL
MODEL 4
REMARK VINA RESULT:    -7.415      1.664      3.769
REMARK INTER + INTRA:         -10.907
REMARK INTER:                  -9.913
REMARK INTRA:                  -0.995
REMARK UNBOUND:                -0.675
REMARK  Name = 
REMARK  8 active torsions:
REMARK  status: ('A' for Active; 'I' for Inactive)
REMARK    1  A    between atoms: C_1  and  C_2
REMARK    2  A    between atoms: C_3  and  C_4
REMARK    3  A    between atoms: C_4  and  C_5
REMARK    4  A    between atoms: C_4  and  C_16
REMARK    5  A    between atoms: C_5  and  O_6
REMARK    6  A    between atoms: O_6  and  C_7
REMARK    7  A    between atoms: C_10  and  C_11
REMARK    8  A    between atoms: C_20  and  O_21
REMARK                            x       y       z     vdW  Elec       q    Type
REMARK                         _______ _______ _______ _____ _____    ______ ____
ROOT
ATOM      1  C   UNL     1      43.702   5.652  10.313  0.00  0.00    +0.000 C 
ENDROOT
BRANCH   1   2
ATOM      2  C   UNL     1      44.025   6.446  11.596  0.00  0.00    +0.000 C 
BRANCH   2   3
ATOM      3  C   UNL     1      45.369   6.090  12.223  0.00  0.00    +0.000 A 
ATOM      4  C   UNL     1      46.565   6.722  11.831  0.00  0.00    +0.000 A 
ATOM      5  C   UNL     1      47.776   6.436  12.469  0.00  0.00    +0.000 A 
ATOM      6  C   UNL     1      47.811   5.522  13.519  0.00  0.00    +0.000 A 
ATOM      7  C   UNL     1      46.634   4.896  13.913  0.00  0.00    +0.000 A 
ATOM      8  C   UNL     1      45.425   5.166  13.277  0.00  0.00    +0.000 A 
BRANCH   7   9
ATOM      9  O   UNL     1      46.618   4.009  14.949  0.00  0.00    +0.000 OA
ATOM     10  H   UNL     1      47.452   3.513  14.941  0.00  0.00    +0.000 HD
ENDBRANCH   7   9
ENDBRANCH   2   3
BRANCH   2  13
ATOM     11  C   UNL     1      43.969  10.693  10.686  0.00  0.00    +0.000 C 
ATOM     12  C   UNL     1      43.988   9.207  11.005  0.00  0.00    +0.000 C 
ATOM     13  C   UNL     1      44.005   7.932  11.278  0.00  0.00    +0.000 C 
ENDBRANCH   2  13
ENDBRANCH   1   2
BRANCH   1  14
ATOM     14  O   UNL     1      43.803   4.223  10.506  0.00  0.00    +0.000 OA
BRANCH  14  15
ATOM     15  C   UNL     1      44.635   3.627   9.586  0.00  0.00    +0.000 A 
ATOM     16  C   UNL     1      45.367   4.445   8.739  0.00  0.00    +0.000 A 
ATOM     17  C   UNL     1      46.250   3.842   7.841  0.00  0.00    +0.000 A 
ATOM     18  C   UNL     1      46.379   2.450   7.818  0.00  0.00    +0.000 A 
ATOM     19  C   UNL     1      45.584   1.727   8.694  0.00  0.00    +0.000 A 
ATOM     20  N   UNL     1      44.719   2.280   9.570  0.00  0.00    +0.000 NA
BRANCH  18  21
ATOM     21  C   UNL     1      47.347   1.812   6.898  0.00  0.00    +0.000 C 
ATOM     22  N   UNL     1      48.440   2.521   6.482  0.00  0.00    +0.000 N 
ATOM     23  O   UNL     1      47.177   0.663   6.500  0.00  0.00    +0.000 OA
ATOM     24  H   UNL     1      48.667   3.471   6.733  0.00  0.00    +0.000 HD
ATOM     25  H   UNL     1      49.063   2.054   5.837  0.00  0.00    +0.000 HD
ENDBRANCH  18  21
ENDBRANCH  14  15
ENDBRANCH   1  14
TORSDOF 7
ENDMDL
MODEL 5
REMARK VINA RESULT:    -6.490      4.291      7.566
REMARK INTER + INTRA:          -9.631
REMARK INTER:                  -8.955
REMARK INTRA:                  -0.676
REMARK UNBOUND:                -0.675
REMARK  Name = 
REMARK  8 active torsions:
REMARK  status: ('A' for Active; 'I' for Inactive)
REMARK    1  A    between atoms: C_1  and  C_2
REMARK    2  A    between atoms: C_3  and  C_4
REMARK    3  A    between atoms: C_4  and  C_5
REMARK    4  A    between atoms: C_4  and  C_16
REMARK    5  A    between atoms: C_5  and  O_6
REMARK    6  A    between atoms: O_6  and  C_7
REMARK    7  A    between atoms: C_10  and  C_11
REMARK    8  A    between atoms: C_20  and  O_21
REMARK                            x       y       z     vdW  Elec       q    Type
REMARK                         _______ _______ _______ _____ _____    ______ ____
ROOT
ATOM      1  C   UNL     1      47.574   4.679  15.933  0.00  0.00    +0.000 C 
ENDROOT
BRANCH   1   2
ATOM      2  C   UNL     1      48.025   4.161  17.315  0.00  0.00    +0.000 C 
BRANCH   2   3
ATOM      3  C   UNL     1      49.490   3.739  17.371  0.00  0.00    +0.000 A 
ATOM      4  C   UNL     1      50.527   4.670  17.570  0.00  0.00    +0.000 A 
ATOM      5  C   UNL     1      51.857   4.255  17.692  0.00  0.00    +0.000 A 
ATOM      6  C   UNL     1      52.172   2.900  17.629  0.00  0.00    +0.000 A 
ATOM      7  C   UNL     1      51.153   1.975  17.435  0.00  0.00    +0.000 A 
ATOM      8  C   UNL     1      49.827   2.379  17.301  0.00  0.00    +0.000 A 
BRANCH   7   9
ATOM      9  O   UNL     1      51.413   0.637  17.388  0.00  0.00    +0.000 OA
ATOM     10  H   UNL     1      50.577   0.167  17.242  0.00  0.00    +0.000 HD
ENDBRANCH   7   9
ENDBRANCH   2   3
BRANCH   2  13
ATOM     11  C   UNL     1      47.333   7.256  20.284  0.00  0.00    +0.000 C 
ATOM     12  C   UNL     1      47.575   6.173  19.245  0.00  0.00    +0.000 C 
ATOM     13  C   UNL     1      47.783   5.244  18.354  0.00  0.00    +0.000 C 
ENDBRANCH   2  13
ENDBRANCH   1   2
BRANCH   1  14
ATOM     14  O   UNL     1      47.506   3.629  14.944  0.00  0.00    +0.000 OA
BRANCH  14  15
ATOM     15  C   UNL     1      46.706   3.966  13.875  0.00  0.00    +0.000 A 
ATOM     16  C   UNL     1      46.623   5.302  13.517  0.00  0.00    +0.000 A 
ATOM     17  C   UNL     1      45.853   5.639  12.401  0.00  0.00    +0.000 A 
ATOM     18  C   UNL     1      45.197   4.637  11.679  0.00  0.00    +0.000 A 
ATOM     19  C   UNL     1      45.332   3.335  12.137  0.00  0.00    +0.000 A 
ATOM     20  N   UNL     1      46.064   2.980  13.213  0.00  0.00    +0.000 NA
BRANCH  18  21
ATOM     21  C   UNL     1      44.418   4.987  10.470  0.00  0.00    +0.000 C 
ATOM     22  N   UNL     1      45.054   5.053   9.262  0.00  0.00    +0.000 N 
ATOM     23  O   UNL     1      43.216   5.226  10.542  0.00  0.00    +0.000 OA
ATOM     24  H   UNL     1      46.035   4.893   9.093  0.00  0.00    +0.000 HD
ATOM     25  H   UNL     1      44.488   5.317   8.467  0.00  0.00    +0.000 HD
ENDBRANCH  18  21
ENDBRANCH  14  15
ENDBRANCH   1  14
TORSDOF 7
ENDMDL
MODEL 6
REMARK VINA RESULT:    -6.473      5.122      7.773
REMARK INTER + INTRA:          -9.608
REMARK INTER:                  -8.867
REMARK INTRA:                  -0.740
REMARK UNBOUND:                -0.675
REMARK  Name = 
REMARK  8 active torsions:
REMARK  status: ('A' for Active; 'I' for Inactive)
REMARK    1  A    between atoms: C_1  and  C_2
REMARK    2  A    between atoms: C_3  and  C_4
REMARK    3  A    between atoms: C_4  and  C_5
REMARK    4  A    between atoms: C_4  and  C_16
REMARK    5  A    between atoms: C_5  and  O_6
REMARK    6  A    between atoms: O_6  and  C_7
REMARK    7  A    between atoms: C_10  and  C_11
REMARK    8  A    between atoms: C_20  and  O_21
REMARK                            x       y       z     vdW  Elec       q    Type
REMARK                         _______ _______ _______ _____ _____    ______ ____
ROOT
ATOM      1  C   UNL     1      46.848   4.537  14.999  0.00  0.00    +0.000 C 
ENDROOT
BRANCH   1   2
ATOM      2  C   UNL     1      46.853   4.539  13.456  0.00  0.00    +0.000 C 
BRANCH   2   3
ATOM      3  C   UNL     1      45.462   4.570  12.831  0.00  0.00    +0.000 A 
ATOM      4  C   UNL     1      44.849   5.775  12.438  0.00  0.00    +0.000 A 
ATOM      5  C   UNL     1      43.605   5.778  11.800  0.00  0.00    +0.000 A 
ATOM      6  C   UNL     1      42.957   4.575  11.532  0.00  0.00    +0.000 A 
ATOM      7  C   UNL     1      43.557   3.381  11.916  0.00  0.00    +0.000 A 
ATOM      8  C   UNL     1      44.791   3.369  12.562  0.00  0.00    +0.000 A 
BRANCH   7   9
ATOM      9  O   UNL     1      42.968   2.179  11.656  0.00  0.00    +0.000 OA
ATOM     10  H   UNL     1      43.398   1.788  10.879  0.00  0.00    +0.000 HD
ENDBRANCH   7   9
ENDBRANCH   2   3
BRANCH   2  13
ATOM     11  C   UNL     1      49.111   7.974  12.053  0.00  0.00    +0.000 C 
ATOM     12  C   UNL     1      48.321   6.772  12.544  0.00  0.00    +0.000 C 
ATOM     13  C   UNL     1      47.643   5.741  12.965  0.00  0.00    +0.000 C 
ENDBRANCH   2  13
ENDBRANCH   1   2
BRANCH   1  14
ATOM     14  O   UNL     1      47.126   3.230  15.551  0.00  0.00    +0.000 OA
BRANCH  14  15
ATOM     15  C   UNL     1      48.346   3.177  16.185  0.00  0.00    +0.000 A 
ATOM     16  C   UNL     1      48.763   4.292  16.896  0.00  0.00    +0.000 A 
ATOM     17  C   UNL     1      49.977   4.221  17.582  0.00  0.00    +0.000 A 
ATOM     18  C   UNL     1      50.733   3.046  17.542  0.00  0.00    +0.000 A 
ATOM     19  C   UNL     1      50.232   1.998  16.783  0.00  0.00    +0.000 A 
ATOM     20  N   UNL     1      49.066   2.038  16.107  0.00  0.00    +0.000 NA
BRANCH  18  21
ATOM     21  C   UNL     1      51.998   2.953  18.305  0.00  0.00    +0.000 C 
ATOM     22  N   UNL     1      52.181   3.759  19.394  0.00  0.00    +0.000 N 
ATOM     23  O   UNL     1      52.883   2.172  17.967  0.00  0.00    +0.000 OA
ATOM     24  H   UNL     1      51.530   4.443  19.747  0.00  0.00    +0.000 HD
ATOM     25  H   UNL     1      53.068   3.678  19.872  0.00  0.00    +0.000 HD
ENDBRANCH  18  21
ENDBRANCH  14  15
ENDBRANCH   1  14
TORSDOF 7
ENDMDL
MODEL 7
REMARK VINA RESULT:    -6.271      4.455      7.826
REMARK INTER + INTRA:          -9.328
REMARK INTER:                  -8.462
REMARK INTRA:                  -0.866
REMARK UNBOUND:                -0.675
REMARK  Name = 
REMARK  8 active torsions:
REMARK  status: ('A' for Active; 'I' for Inactive)
REMARK    1  A    between atoms: C_1  and  C_2
REMARK    2  A    between atoms: C_3  and  C_4
REMARK    3  A    between atoms: C_4  and  C_5
REMARK    4  A    between atoms: C_4  and  C_16
REMARK    5  A    between atoms: C_5  and  O_6
REMARK    6  A    between atoms: O_6  and  C_7
REMARK    7  A    between atoms: C_10  and  C_11
REMARK    8  A    between atoms: C_20  and  O_21
REMARK                            x       y       z     vdW  Elec       q    Type
REMARK                         _______ _______ _______ _____ _____    ______ ____
ROOT
ATOM      1  C   UNL     1      47.467   6.247  13.285  0.00  0.00    +0.000 C 
ENDROOT
BRANCH   1   2
ATOM      2  C   UNL     1      46.501   6.265  12.082  0.00  0.00    +0.000 C 
BRANCH   2   3
ATOM      3  C   UNL     1      45.425   5.185  12.135  0.00  0.00    +0.000 A 
ATOM      4  C   UNL     1      44.367   5.231  13.062  0.00  0.00    +0.000 A 
ATOM      5  C   UNL     1      43.350   4.272  13.047  0.00  0.00    +0.000 A 
ATOM      6  C   UNL     1      43.366   3.255  12.095  0.00  0.00    +0.000 A 
ATOM      7  C   UNL     1      44.407   3.203  11.175  0.00  0.00    +0.000 A 
ATOM      8  C   UNL     1      45.430   4.148  11.190  0.00  0.00    +0.000 A 
BRANCH   7   9
ATOM      9  O   UNL     1      44.453   2.238  10.214  0.00  0.00    +0.000 OA
ATOM     10  H   UNL     1      43.745   1.596  10.389  0.00  0.00    +0.000 HD
ENDBRANCH   7   9
ENDBRANCH   2   3
BRANCH   2  13
ATOM     11  C   UNL     1      44.585  10.157  11.864  0.00  0.00    +0.000 C 
ATOM     12  C   UNL     1      45.255   8.795  11.940  0.00  0.00    +0.000 C 
ATOM     13  C   UNL     1      45.831   7.627  12.006  0.00  0.00    +0.000 C 
ENDBRANCH   2  13
ENDBRANCH   1   2
BRANCH   1  14
ATOM     14  O   UNL     1      47.653   4.919  13.825  0.00  0.00    +0.000 OA
BRANCH  14  15
ATOM     15  C   UNL     1      47.789   4.924  15.195  0.00  0.00    +0.000 A 
ATOM     16  C   UNL     1      47.023   4.034  15.931  0.00  0.00    +0.000 A 
ATOM     17  C   UNL     1      47.198   4.002  17.316  0.00  0.00    +0.000 A 
ATOM     18  C   UNL     1      48.128   4.853  17.921  0.00  0.00    +0.000 A 
ATOM     19  C   UNL     1      48.825   5.719  17.092  0.00  0.00    +0.000 A 
ATOM     20  N   UNL     1      48.676   5.775  15.753  0.00  0.00    +0.000 NA
BRANCH  18  21
ATOM     21  C   UNL     1      48.346   4.791  19.384  0.00  0.00    +0.000 C 
ATOM     22  N   UNL     1      48.529   3.573  19.979  0.00  0.00    +0.000 N 
ATOM     23  O   UNL     1      48.356   5.812  20.065  0.00  0.00    +0.000 OA
ATOM     24  H   UNL     1      48.523   2.676  19.520  0.00  0.00    +0.000 HD
ATOM     25  H   UNL     1      48.652   3.576  20.983  0.00  0.00    +0.000 HD
ENDBRANCH  18  21
ENDBRANCH  14  15
ENDBRANCH   1  14
TORSDOF 7
ENDMDL
MODEL 8
REMARK VINA RESULT:    -6.259      3.732      6.489
REMARK INTER + INTRA:          -9.312
REMARK INTER:                  -8.633
REMARK INTRA:                  -0.679
REMARK UNBOUND:                -0.675
REMARK  Name = 
REMARK  8 active torsions:
REMARK  status: ('A' for Active; 'I' for Inactive)
REMARK    1  A    between atoms: C_1  and  C_2
REMARK    2  A    between atoms: C_3  and  C_4
REMARK    3  A    between atoms: C_4  and  C_5
REMARK    4  A    between atoms: C_4  and  C_16
REMARK    5  A    between atoms: C_5  and  O_6
REMARK    6  A    between atoms: O_6  and  C_7
REMARK    7  A    between atoms: C_10  and  C_11
REMARK    8  A    between atoms: C_20  and  O_21
REMARK                            x       y       z     vdW  Elec       q    Type
REMARK                         _______ _______ _______ _____ _____    ______ ____
ROOT
ATOM      1  C   UNL     1      48.317   6.244  14.156  0.00  0.00    +0.000 C 
ENDROOT
BRANCH   1   2
ATOM      2  C   UNL     1      48.792   6.610  15.577  0.00  0.00    +0.000 C 
BRANCH   2   3
ATOM      3  C   UNL     1      48.731   5.453  16.569  0.00  0.00    +0.000 A 
ATOM      4  C   UNL     1      49.746   5.231  17.519  0.00  0.00    +0.000 A 
ATOM      5  C   UNL     1      49.637   4.209  18.468  0.00  0.00    +0.000 A 
ATOM      6  C   UNL     1      48.504   3.399  18.492  0.00  0.00    +0.000 A 
ATOM      7  C   UNL     1      47.497   3.613  17.558  0.00  0.00    +0.000 A 
ATOM      8  C   UNL     1      47.602   4.621  16.602  0.00  0.00    +0.000 A 
BRANCH   7   9
ATOM      9  O   UNL     1      46.362   2.857  17.557  0.00  0.00    +0.000 OA
ATOM     10  H   UNL     1      46.607   1.937  17.745  0.00  0.00    +0.000 HD
ENDBRANCH   7   9
ENDBRANCH   2   3
BRANCH   2  13
ATOM     11  C   UNL     1      52.876   8.077  15.369  0.00  0.00    +0.000 C 
ATOM     12  C   UNL     1      51.447   7.564  15.442  0.00  0.00    +0.000 C 
ATOM     13  C   UNL     1      50.221   7.123  15.505  0.00  0.00    +0.000 C 
ENDBRANCH   2  13
ENDBRANCH   1   2
BRANCH   1  14
ATOM     14  O   UNL     1      47.111   6.945  13.779  0.00  0.00    +0.000 OA
BRANCH  14  15
ATOM     15  C   UNL     1      46.346   6.230  12.884  0.00  0.00    +0.000 A 
ATOM     16  C   UNL     1      46.350   6.628  11.557  0.00  0.00    +0.000 A 
ATOM     17  C   UNL     1      45.616   5.872  10.640  0.00  0.00    +0.000 A 
ATOM     18  C   UNL     1      44.907   4.747  11.072  0.00  0.00    +0.000 A 
ATOM     19  C   UNL     1      44.955   4.452  12.427  0.00  0.00    +0.000 A 
ATOM     20  N   UNL     1      45.651   5.164  13.336  0.00  0.00    +0.000 NA
BRANCH  18  21
ATOM     21  C   UNL     1      44.165   3.920  10.095  0.00  0.00    +0.000 C 
ATOM     22  N   UNL     1      44.072   4.342   8.798  0.00  0.00    +0.000 N 
ATOM     23  O   UNL     1      43.627   2.871  10.436  0.00  0.00    +0.000 OA
ATOM     24  H   UNL     1      44.460   5.190   8.415  0.00  0.00    +0.000 HD
ATOM     25  H   UNL     1      43.538   3.757   8.170  0.00  0.00    +0.000 HD
ENDBRANCH  18  21
ENDBRANCH  14  15
ENDBRANCH   1  14
TORSDOF 7
ENDMDL
MODEL 9
REMARK VINA RESULT:    -6.034      4.557      7.404
REMARK INTER + INTRA:          -9.001
REMARK INTER:                  -8.187
REMARK INTRA:                  -0.814
REMARK UNBOUND:                -0.675
REMARK  Name = 
REMARK  8 active torsions:
REMARK  status: ('A' for Active; 'I' for Inactive)
REMARK    1  A    between atoms: C_1  and  C_2
REMARK    2  A    between atoms: C_3  and  C_4
REMARK    3  A    between atoms: C_4  and  C_5
REMARK    4  A    between atoms: C_4  and  C_16
REMARK    5  A    between atoms: C_5  and  O_6
REMARK    6  A    between atoms: O_6  and  C_7
REMARK    7  A    between atoms: C_10  and  C_11
REMARK    8  A    between atoms: C_20  and  O_21
REMARK                            x       y       z     vdW  Elec       q    Type
REMARK                         _______ _______ _______ _____ _____    ______ ____
ROOT
ATOM      1  C   UNL     1      47.100   4.614  13.421  0.00  0.00    +0.000 C 
ENDROOT
BRANCH   1   2
ATOM      2  C   UNL     1      45.928   5.484  12.922  0.00  0.00    +0.000 C 
BRANCH   2   3
ATOM      3  C   UNL     1      46.288   6.953  12.719  0.00  0.00    +0.000 A 
ATOM      4  C   UNL     1      47.596   7.362  12.399  0.00  0.00    +0.000 A 
ATOM      5  C   UNL     1      47.891   8.705  12.145  0.00  0.00    +0.000 A 
ATOM      6  C   UNL     1      46.880   9.661  12.194  0.00  0.00    +0.000 A 
ATOM      7  C   UNL     1      45.586   9.265  12.507  0.00  0.00    +0.000 A 
ATOM      8  C   UNL     1      45.284   7.931  12.773  0.00  0.00    +0.000 A 
BRANCH   7   9
ATOM      9  O   UNL     1      44.561  10.164  12.547  0.00  0.00    +0.000 OA
ATOM     10  H   UNL     1      44.266  10.332  11.638  0.00  0.00    +0.000 HD
ENDBRANCH   7   9
ENDBRANCH   2   3
BRANCH   2  13
ATOM     11  C   UNL     1      44.453   3.861   9.173  0.00  0.00    +0.000 C 
ATOM     12  C   UNL     1      44.969   4.429  10.485  0.00  0.00    +0.000 C 
ATOM     13  C   UNL     1      45.412   4.916  11.610  0.00  0.00    +0.000 C 
ENDBRANCH   2  13
ENDBRANCH   1   2
BRANCH   1  14
ATOM     14  O   UNL     1      46.696   3.674  14.441  0.00  0.00    +0.000 OA
BRANCH  14  15
ATOM     15  C   UNL     1      47.254   3.958  15.667  0.00  0.00    +0.000 A 
ATOM     16  C   UNL     1      47.952   5.148  15.807  0.00  0.00    +0.000 A 
ATOM     17  C   UNL     1      48.474   5.461  17.065  0.00  0.00    +0.000 A 
ATOM     18  C   UNL     1      48.282   4.585  18.137  0.00  0.00    +0.000 A 
ATOM     19  C   UNL     1      47.587   3.413  17.880  0.00  0.00    +0.000 A 
ATOM     20  N   UNL     1      47.075   3.081  16.677  0.00  0.00    +0.000 NA
BRANCH  18  21
ATOM     21  C   UNL     1      48.797   4.936  19.480  0.00  0.00    +0.000 C 
ATOM     22  N   UNL     1      48.712   4.016  20.488  0.00  0.00    +0.000 N 
ATOM     23  O   UNL     1      49.286   6.040  19.700  0.00  0.00    +0.000 OA
ATOM     24  H   UNL     1      48.316   3.091  20.422  0.00  0.00    +0.000 HD
ATOM     25  H   UNL     1      49.056   4.306  21.394  0.00  0.00    +0.000 HD
ENDBRANCH  18  21
ENDBRANCH  14  15
ENDBRANCH   1  14
TORSDOF 7
ENDMDL
