MODEL 1
REMARK VINA RESULT:    -6.500      0.000      0.000
REMARK INTER + INTRA:          -9.090
REMARK INTER:                  -8.400
REMARK INTRA:                  -0.690
REMARK UNBOUND:                -0.690
REMARK  Name = 
REMARK  8 active torsions:
REMARK  status: ('A' for Active; 'I' for Inactive)
REMARK    1  A    between atoms: C_1  and  N_2
REMARK    2  A    between atoms: C_3  and  C_5
REMARK    3  A    between atoms: C_8  and  N_9
REMARK    4  A    between atoms: N_9  and  C_10
REMARK    5  A    between atoms: C_10  and  C_11
REMARK    6  A    between atoms: C_11  and  C_12
REMARK    7  A    between atoms: C_11  and  C_13
REMARK    8  A    between atoms: C_11  and  C_14
REMARK                            x       y       z     vdW  Elec       q    Type
REMARK                         _______ _______ _______ _____ _____    ______ ____
ROOT
ATOM      1  N   UNL     1      45.442   5.395  12.866  0.00  0.00    +0.000 N 
ATOM      2  H   UNL     1      44.900   5.703  13.668  0.00  0.00    +0.000 HD
ENDROOT
BRANCH   1   6
ATOM      3  C   UNL     1      49.130   7.321  12.815  0.00  0.00    +0.000 A 
ATOM      4  C   UNL     1      48.287   7.522  11.734  0.00  0.00    +0.000 A 
ATOM      5  C   UNL     1      47.046   6.882  11.728  0.00  0.00    +0.000 A 
ATOM      6  C   UNL     1      46.680   6.025  12.766  0.00  0.00    +0.000 A 
ATOM      7  C   UNL     1      47.609   5.913  13.812  0.00  0.00    +0.000 A 
ATOM      8  N   UNL     1      48.822   6.522  13.871  0.00  0.00    +0.000 NA
BRANCH   3  11
ATOM      9  C   UNL     1      52.456   8.451  14.213  0.00  0.00    +0.000 C 
ATOM     10  N   UNL     1      51.202   7.787  13.988  0.00  0.00    +0.000 N 
ATOM     11  C   UNL     1      50.446   8.034  12.862  0.00  0.00    +0.000 C 
ATOM     12  O   UNL     1      50.799   8.787  11.959  0.00  0.00    +0.000 OA
ATOM     13  H   UNL     1      50.799   7.163  14.681  0.00  0.00    +0.000 HD
ENDBRANCH   3  11
ENDBRANCH   1   6
BRANCH   1  14
ATOM     14  C   UNL     1      45.228   4.008  12.431  0.00  0.00    +0.000 C 
BRANCH  14  15
ATOM     15  C   UNL     1      44.132   3.855  11.335  0.00  0.00    +0.000 C 
ATOM     16  C   UNL     1      43.289   2.591  11.615  0.00  0.00    +0.000 C 
ATOM     17  C   UNL     1      43.187   5.075  11.337  0.00  0.00    +0.000 C 
BRANCH  15  18
ATOM     18  C   UNL     1      44.856   3.655   9.996  0.00  0.00    +0.000 A 
ATOM     19  C   UNL     1      45.322   4.702   9.201  0.00  0.00    +0.000 A 
ATOM     20  N   UNL     1      45.964   4.518   8.020  0.00  0.00    +0.000 NA
ATOM     21  C   UNL     1      46.135   3.234   7.645  0.00  0.00    +0.000 A 
ATOM     22  C   UNL     1      45.686   2.182   8.414  0.00  0.00    +0.000 A 
ATOM     23  N   UNL     1      45.045   2.368   9.592  0.00  0.00    +0.000 NA
ENDBRANCH  15  18
ENDBRANCH  14  15
ENDBRANCH   1  14
TORSDOF 5
ENDMDL
MODEL 2
REMARK VINA RESULT:    -6.139      3.339      7.617
REMARK INTER + INTRA:          -8.624
REMARK INTER:                  -7.875
REMARK INTRA:                  -0.749
REMARK UNBOUND:                -0.690
REMARK  Name = 
REMARK  8 active torsions:
REMARK  status: ('A' for Active; 'I' for Inactive)
REMARK    1  A    between atoms: C_1  and  N_2
REMARK    2  A    between atoms: C_3  and  C_5
REMARK    3  A    between atoms: C_8  and  N_9
REMARK    4  A    between atoms: N_9  and  C_10
REMARK    5  A    between atoms: C_10  and  C_11
REMARK    6  A    between atoms: C_11  and  C_12
REMARK    7  A    between atoms: C_11  and  C_13
REMARK    8  A    between atoms: C_11  and  C_14
REMARK                            x       y       z     vdW  Elec       q    Type
REMARK                         _______ _______ _______ _____ _____    ______ ____
ROOT
ATOM      1  N   UNL     1      47.149   6.951  14.017  0.00  0.00    +0.000 N 
ATOM      2  H   UNL     1      46.759   7.888  14.070  0.00  0.00    +0.000 HD
ENDROOT
BRANCH   1   6
ATOM      3  C   UNL     1      45.056   4.202  11.699  0.00  0.00    +0.000 A 
ATOM      4  C   UNL     1      45.471   5.372  11.085  0.00  0.00    +0.000 A 
ATOM      5  C   UNL     1      46.172   6.312  11.845  0.00  0.00    +0.000 A 
ATOM      6  C   UNL     1      46.411   6.096  13.203  0.00  0.00    +0.000 A 
ATOM      7  C   UNL     1      45.956   4.867  13.708  0.00  0.00    +0.000 A 
ATOM      8  N   UNL     1      45.281   3.918  13.009  0.00  0.00    +0.000 NA
BRANCH   3  11
ATOM      9  C   UNL     1      44.538   1.616   8.991  0.00  0.00    +0.000 C 
ATOM     10  N   UNL     1      45.100   2.579   9.896  0.00  0.00    +0.000 N 
ATOM     11  C   UNL     1      44.343   3.163  10.890  0.00  0.00    +0.000 C 
ATOM     12  O   UNL     1      43.168   2.876  11.106  0.00  0.00    +0.000 OA
ATOM     13  H   UNL     1      46.054   2.910   9.795  0.00  0.00    +0.000 HD
ENDBRANCH   3  11
ENDBRANCH   1   6
BRANCH   1  14
ATOM     14  C   UNL     1      48.608   6.846  14.151  0.00  0.00    +0.000 C 
BRANCH  14  15
ATOM     15  C   UNL     1      49.144   7.288  15.545  0.00  0.00    +0.000 C 
ATOM     16  C   UNL     1      50.686   7.384  15.503  0.00  0.00    +0.000 C 
ATOM     17  C   UNL     1      48.586   8.675  15.928  0.00  0.00    +0.000 C 
BRANCH  15  18
ATOM     18  C   UNL     1      48.764   6.187  16.546  0.00  0.00    +0.000 A 
ATOM     19  C   UNL     1      48.666   6.389  17.923  0.00  0.00    +0.000 A 
ATOM     20  N   UNL     1      48.327   5.412  18.801  0.00  0.00    +0.000 NA
ATOM     21  C   UNL     1      48.082   4.202  18.259  0.00  0.00    +0.000 A 
ATOM     22  C   UNL     1      48.170   3.978  16.902  0.00  0.00    +0.000 A 
ATOM     23  N   UNL     1      48.508   4.954  16.027  0.00  0.00    +0.000 NA
ENDBRANCH  15  18
ENDBRANCH  14  15
ENDBRANCH   1  14
TORSDOF 5
ENDMDL
MODEL 3
REMARK VINA RESULT:    -6.116      1.909      2.088
REMARK INTER + INTRA:          -8.594
REMARK INTER:                  -8.075
REMARK INTRA:                  -0.519
REMARK UNBOUND:                -0.690
REMARK  Name = 
REMARK  8 active torsions:
REMARK  status: ('A' for Active; 'I' for Inactive)
REMARK    1  A    between atoms: C_1  and  N_2
REMARK    2  A    between atoms: C_3  and  C_5
REMARK    3  A    between atoms: C_8  and  N_9
REMARK    4  A    between atoms: N_9  and  C_10
REMARK    5  A    between atoms: C_10  and  C_11
REMARK    6  A    between atoms: C_11  and  C_12
REMARK    7  A    between atoms: C_11  and  C_13
REMARK    8  A    between atoms: C_11  and  C_14
REMARK                            x       y       z     vdW  Elec       q    Type
REMARK                         _______ _______ _______ _____ _____    ______ ____
ROOT
ATOM      1  N   UNL     1      45.483   4.109  13.707  0.00  0.00    +0.000 N 
ATOM      2  H   UNL     1      44.906   3.740  14.458  0.00  0.00    +0.000 HD
ENDROOT
BRANCH   1   6
ATOM      3  C   UNL     1      48.689   6.220  15.312  0.00  0.00    +0.000 A 
ATOM      4  C   UNL     1      48.184   6.650  14.095  0.00  0.00    +0.000 A 
ATOM      5  C   UNL     1      47.111   5.953  13.535  0.00  0.00    +0.000 A 
ATOM      6  C   UNL     1      46.586   4.825  14.166  0.00  0.00    +0.000 A 
ATOM      7  C   UNL     1      47.169   4.497  15.400  0.00  0.00    +0.000 A 
ATOM      8  N   UNL     1      48.205   5.148  15.991  0.00  0.00    +0.000 NA
BRANCH   3  11
ATOM      9  C   UNL     1      50.401   9.013  17.200  0.00  0.00    +0.000 C 
ATOM     10  N   UNL     1      49.433   8.138  16.599  0.00  0.00    +0.000 N 
ATOM     11  C   UNL     1      49.810   6.981  15.950  0.00  0.00    +0.000 C 
ATOM     12  O   UNL     1      50.972   6.591  15.878  0.00  0.00    +0.000 OA
ATOM     13  H   UNL     1      48.445   8.374  16.575  0.00  0.00    +0.000 HD
ENDBRANCH   3  11
ENDBRANCH   1   6
BRANCH   1  14
ATOM     14  C   UNL     1      45.515   3.324  12.466  0.00  0.00    +0.000 C 
BRANCH  14  15
ATOM     15  C   UNL     1      44.388   3.698  11.457  0.00  0.00    +0.000 C 
ATOM     16  C   UNL     1      43.219   2.697  11.589  0.00  0.00    +0.000 C 
ATOM     17  C   UNL     1      43.846   5.113  11.748  0.00  0.00    +0.000 C 
BRANCH  15  18
ATOM     18  C   UNL     1      44.978   3.556  10.047  0.00  0.00    +0.000 A 
ATOM     19  C   UNL     1      45.282   4.636   9.219  0.00  0.00    +0.000 A 
ATOM     20  N   UNL     1      45.806   4.503   7.974  0.00  0.00    +0.000 NA
ATOM     21  C   UNL     1      46.025   3.236   7.568  0.00  0.00    +0.000 A 
ATOM     22  C   UNL     1      45.736   2.152   8.369  0.00  0.00    +0.000 A 
ATOM     23  N   UNL     1      45.213   2.287   9.610  0.00  0.00    +0.000 NA
ENDBRANCH  15  18
ENDBRANCH  14  15
ENDBRANCH   1  14
TORSDOF 5
ENDMDL
MODEL 4
REMARK VINA RESULT:    -6.074      4.074      7.835
REMARK INTER + INTRA:          -8.540
REMARK INTER:                  -8.059
REMARK INTRA:                  -0.481
REMARK UNBOUND:                -0.690
REMARK  Name = 
REMARK  8 active torsions:
REMARK  status: ('A' for Active; 'I' for Inactive)
REMARK    1  A    between atoms: C_1  and  N_2
REMARK    2  A    between atoms: C_3  and  C_5
REMARK    3  A    between atoms: C_8  and  N_9
REMARK    4  A    between atoms: N_9  and  C_10
REMARK    5  A    between atoms: C_10  and  C_11
REMARK    6  A    between atoms: C_11  and  C_12
REMARK    7  A    between atoms: C_11  and  C_13
REMARK    8  A    between atoms: C_11  and  C_14
REMARK                            x       y       z     vdW  Elec       q    Type
REMARK                         _______ _______ _______ _____ _____    ______ ____
ROOT
ATOM      1  N   UNL     1      47.503   5.390  15.149  0.00  0.00    +0.000 N 
ATOM      2  H   UNL     1      48.364   5.876  14.917  0.00  0.00    +0.000 HD
ENDROOT
BRANCH   1   6
ATOM      3  C   UNL     1      45.386   4.153  11.788  0.00  0.00    +0.000 A 
ATOM      4  C   UNL     1      45.643   5.508  11.920  0.00  0.00    +0.000 A 
ATOM      5  C   UNL     1      46.348   5.946  13.043  0.00  0.00    +0.000 A 
ATOM      6  C   UNL     1      46.748   5.046  14.031  0.00  0.00    +0.000 A 
ATOM      7  C   UNL     1      46.446   3.699  13.778  0.00  0.00    +0.000 A 
ATOM      8  N   UNL     1      45.773   3.221  12.699  0.00  0.00    +0.000 NA
BRANCH   3  11
ATOM      9  C   UNL     1      44.555   1.852   8.905  0.00  0.00    +0.000 C 
ATOM     10  N   UNL     1      45.094   2.429  10.105  0.00  0.00    +0.000 N 
ATOM     11  C   UNL     1      44.672   3.657  10.569  0.00  0.00    +0.000 C 
ATOM     12  O   UNL     1      43.786   4.317  10.032  0.00  0.00    +0.000 OA
ATOM     13  H   UNL     1      45.850   1.983  10.616  0.00  0.00    +0.000 HD
ENDBRANCH   3  11
ENDBRANCH   1   6
BRANCH   1  14
ATOM     14  C   UNL     1      47.530   4.565  16.365  0.00  0.00    +0.000 C 
BRANCH  14  15
ATOM     15  C   UNL     1      48.646   4.970  17.374  0.00  0.00    +0.000 C 
ATOM     16  C   UNL     1      49.357   6.249  16.877  0.00  0.00    +0.000 C 
ATOM     17  C   UNL     1      48.043   5.262  18.764  0.00  0.00    +0.000 C 
BRANCH  15  18
ATOM     18  C   UNL     1      49.676   3.830  17.390  0.00  0.00    +0.000 A 
ATOM     19  C   UNL     1      49.407   2.535  16.950  0.00  0.00    +0.000 A 
ATOM     20  N   UNL     1      50.322   1.533  16.964  0.00  0.00    +0.000 NA
ATOM     21  C   UNL     1      51.541   1.865  17.438  0.00  0.00    +0.000 A 
ATOM     22  C   UNL     1      51.831   3.140  17.876  0.00  0.00    +0.000 A 
ATOM     23  N   UNL     1      50.917   4.137  17.861  0.00  0.00    +0.000 NA
ENDBRANCH  15  18
ENDBRANCH  14  15
ENDBRANCH   1  14
TORSDOF 5
ENDMDL
MODEL 5
REMARK VINA RESULT:    -6.066      1.889      2.053
REMARK INTER + INTRA:          -8.529
REMARK INTER:                  -7.829
REMARK INTRA:                  -0.700
REMARK UNBOUND:                -0.690
REMARK  Name = 
REMARK  8 active torsions:
REMARK  status: ('A' for Active; 'I' for Inactive)
REMARK    1  A    between atoms: C_1  and  N_2
REMARK    2  A    between atoms: C_3  and  C_5
REMARK    3  A    between atoms: C_8  and  N_9
REMARK    4  A    between atoms: N_9  and  C_10
REMARK    5  A    between atoms: C_10  and  C_11
REMARK    6  A    between atoms: C_11  and  C_12
REMARK    7  A    between atoms: C_11  and  C_13
REMARK    8  A    between atoms: C_11  and  C_14
REMARK                            x       y       z     vdW  Elec       q    Type
REMARK                         _______ _______ _______ _____ _____    ______ ____
ROOT
ATOM      1  N   UNL     1      45.006   5.959  13.127  0.00  0.00    +0.000 N 
ATOM      2  H   UNL     1      44.579   6.120  14.035  0.00  0.00    +0.000 HD
ENDROOT
BRANCH   1   6
ATOM      3  C   UNL     1      47.668   8.965  12.037  0.00  0.00    +0.000 A 
ATOM      4  C   UNL     1      48.085   7.653  11.882  0.00  0.00    +0.000 A 
ATOM      5  C   UNL     1      47.210   6.628  12.246  0.00  0.00    +0.000 A 
ATOM      6  C   UNL     1      45.959   6.918  12.792  0.00  0.00    +0.000 A 
ATOM      7  C   UNL     1      45.642   8.282  12.885  0.00  0.00    +0.000 A 
ATOM      8  N   UNL     1      46.453   9.315  12.535  0.00  0.00    +0.000 NA
BRANCH   3  11
ATOM      9  C   UNL     1      50.879  10.665  10.992  0.00  0.00    +0.000 C 
ATOM     10  N   UNL     1      49.874   9.701  11.344  0.00  0.00    +0.000 N 
ATOM     11  C   UNL     1      48.574  10.078  11.610  0.00  0.00    +0.000 C 
ATOM     12  O   UNL     1      48.172  11.235  11.522  0.00  0.00    +0.000 OA
ATOM     13  H   UNL     1      50.100   8.720  11.472  0.00  0.00    +0.000 HD
ENDBRANCH   3  11
ENDBRANCH   1   6
BRANCH   1  14
ATOM     14  C   UNL     1      45.114   4.558  12.698  0.00  0.00    +0.000 C 
BRANCH  14  15
ATOM     15  C   UNL     1      43.999   4.117  11.704  0.00  0.00    +0.000 C 
ATOM     16  C   UNL     1      43.412   2.759  12.149  0.00  0.00    +0.000 C 
ATOM     17  C   UNL     1      42.854   5.151  11.677  0.00  0.00    +0.000 C 
BRANCH  15  18
ATOM     18  C   UNL     1      44.666   3.920  10.335  0.00  0.00    +0.000 A 
ATOM     19  C   UNL     1      45.250   4.951   9.600  0.00  0.00    +0.000 A 
ATOM     20  N   UNL     1      45.840   4.769   8.391  0.00  0.00    +0.000 NA
ATOM     21  C   UNL     1      45.835   3.503   7.926  0.00  0.00    +0.000 A 
ATOM     22  C   UNL     1      45.266   2.466   8.635  0.00  0.00    +0.000 A 
ATOM     23  N   UNL     1      44.678   2.650   9.840  0.00  0.00    +0.000 NA
ENDBRANCH  15  18
ENDBRANCH  14  15
ENDBRANCH   1  14
TORSDOF 5
ENDMDL
MODEL 6
REMARK VINA RESULT:    -6.043      2.645      3.378
REMARK INTER + INTRA:          -8.500
REMARK INTER:                  -7.700
REMARK INTRA:                  -0.800
REMARK UNBOUND:                -0.690
REMARK  Name = 
REMARK  8 active torsions:
REMARK  status: ('A' for Active; 'I' for Inactive)
REMARK    1  A    between atoms: C_1  and  N_2
REMARK    2  A    between atoms: C_3  and  C_5
REMARK    3  A    between atoms: C_8  and  N_9
REMARK    4  A    between atoms: N_9  and  C_10
REMARK    5  A    between atoms: C_10  and  C_11
REMARK    6  A    between atoms: C_11  and  C_12
REMARK    7  A    between atoms: C_11  and  C_13
REMARK    8  A    between atoms: C_11  and  C_14
REMARK                            x       y       z     vdW  Elec       q    Type
REMARK                         _______ _______ _______ _____ _____    ______ ____
ROOT
ATOM      1  N   UNL     1      46.280   5.231  12.479  0.00  0.00    +0.000 N 
ATOM      2  H   UNL     1      46.918   5.180  11.690  0.00  0.00    +0.000 HD
ENDROOT
BRANCH   1   6
ATOM      3  C   UNL     1      48.436   5.486  16.028  0.00  0.00    +0.000 A 
ATOM      4  C   UNL     1      47.503   4.468  15.917  0.00  0.00    +0.000 A 
ATOM      5  C   UNL     1      46.764   4.366  14.736  0.00  0.00    +0.000 A 
ATOM      6  C   UNL     1      46.932   5.294  13.708  0.00  0.00    +0.000 A 
ATOM      7  C   UNL     1      47.917   6.269  13.928  0.00  0.00    +0.000 A 
ATOM      8  N   UNL     1      48.668   6.404  15.052  0.00  0.00    +0.000 NA
BRANCH   3  11
ATOM      9  C   UNL     1      49.260   6.185  19.651  0.00  0.00    +0.000 C 
ATOM     10  N   UNL     1      48.586   5.976  18.400  0.00  0.00    +0.000 N 
ATOM     11  C   UNL     1      49.270   5.585  17.268  0.00  0.00    +0.000 C 
ATOM     12  O   UNL     1      50.474   5.343  17.252  0.00  0.00    +0.000 OA
ATOM     13  H   UNL     1      47.596   6.172  18.290  0.00  0.00    +0.000 HD
ENDBRANCH   3  11
ENDBRANCH   1   6
BRANCH   1  14
ATOM     14  C   UNL     1      44.996   5.902  12.234  0.00  0.00    +0.000 C 
BRANCH  14  15
ATOM     15  C   UNL     1      43.861   4.939  11.776  0.00  0.00    +0.000 C 
ATOM     16  C   UNL     1      43.576   3.905  12.888  0.00  0.00    +0.000 C 
ATOM     17  C   UNL     1      42.560   5.722  11.502  0.00  0.00    +0.000 C 
BRANCH  15  18
ATOM     18  C   UNL     1      44.380   4.181  10.545  0.00  0.00    +0.000 A 
ATOM     19  C   UNL     1      44.156   2.823  10.318  0.00  0.00    +0.000 A 
ATOM     20  N   UNL     1      44.615   2.160   9.227  0.00  0.00    +0.000 NA
ATOM     21  C   UNL     1      45.318   2.902   8.348  0.00  0.00    +0.000 A 
ATOM     22  C   UNL     1      45.551   4.246   8.549  0.00  0.00    +0.000 A 
ATOM     23  N   UNL     1      45.092   4.906   9.638  0.00  0.00    +0.000 NA
ENDBRANCH  15  18
ENDBRANCH  14  15
ENDBRANCH   1  14
TORSDOF 5
ENDMDL
MODEL 7
REMARK VINA RESULT:    -5.614      3.246      7.633
REMARK INTER + INTRA:          -7.945
REMARK INTER:                  -7.325
REMARK INTRA:                  -0.620
REMARK UNBOUND:                -0.690
REMARK  Name = 
REMARK  8 active torsions:
REMARK  status: ('A' for Active; 'I' for Inactive)
REMARK    1  A    between atoms: C_1  and  N_2
REMARK    2  A    between atoms: C_3  and  C_5
REMARK    3  A    between atoms: C_8  and  N_9
REMARK    4  A    between atoms: N_9  and  C_10
REMARK    5  A    between atoms: C_10  and  C_11
REMARK    6  A    between atoms: C_11  and  C_12
REMARK    7  A    between atoms: C_11  and  C_13
REMARK    8  A    between atoms: C_11  and  C_14
REMARK                            x       y       z     vdW  Elec       q    Type
REMARK                         _______ _______ _______ _____ _____    ______ ____
ROOT
ATOM      1  N   UNL     1      47.386   5.455  15.141  0.00  0.00    +0.000 N 
ATOM      2  H   UNL     1      48.175   6.064  14.944  0.00  0.00    +0.000 HD
ENDROOT
BRANCH   1   6
ATOM      3  C   UNL     1      45.335   4.258  11.725  0.00  0.00    +0.000 A 
ATOM      4  C   UNL     1      45.563   5.614  11.893  0.00  0.00    +0.000 A 
ATOM      5  C   UNL     1      46.246   6.039  13.035  0.00  0.00    +0.000 A 
ATOM      6  C   UNL     1      46.652   5.123  14.005  0.00  0.00    +0.000 A 
ATOM      7  C   UNL     1      46.379   3.777  13.717  0.00  0.00    +0.000 A 
ATOM      8  N   UNL     1      45.730   3.312  12.618  0.00  0.00    +0.000 NA
BRANCH   3  11
ATOM      9  C   UNL     1      44.509   1.958   8.840  0.00  0.00    +0.000 C 
ATOM     10  N   UNL     1      45.029   2.527  10.053  0.00  0.00    +0.000 N 
ATOM     11  C   UNL     1      44.645   3.779  10.486  0.00  0.00    +0.000 C 
ATOM     12  O   UNL     1      43.811   4.470   9.908  0.00  0.00    +0.000 OA
ATOM     13  H   UNL     1      45.744   2.055  10.597  0.00  0.00    +0.000 HD
ENDBRANCH   3  11
ENDBRANCH   1   6
BRANCH   1  14
ATOM     14  C   UNL     1      47.546   4.531  16.272  0.00  0.00    +0.000 C 
BRANCH  14  15
ATOM     15  C   UNL     1      48.496   5.062  17.387  0.00  0.00    +0.000 C 
ATOM     16  C   UNL     1      47.679   5.375  18.661  0.00  0.00    +0.000 C 
ATOM     17  C   UNL     1      49.560   4.002  17.746  0.00  0.00    +0.000 C 
BRANCH  15  18
ATOM     18  C   UNL     1      49.103   6.377  16.877  0.00  0.00    +0.000 A 
ATOM     19  C   UNL     1      48.735   7.636  17.349  0.00  0.00    +0.000 A 
ATOM     20  N   UNL     1      49.276   8.795  16.895  0.00  0.00    +0.000 NA
ATOM     21  C   UNL     1      50.217   8.661  15.938  0.00  0.00    +0.000 A 
ATOM     22  C   UNL     1      50.599   7.427  15.457  0.00  0.00    +0.000 A 
ATOM     23  N   UNL     1      50.058   6.273  15.911  0.00  0.00    +0.000 NA
ENDBRANCH  15  18
ENDBRANCH  14  15
ENDBRANCH   1  14
TORSDOF 5
ENDMDL
MODEL 8
REMARK VINA RESULT:    -5.579      3.165      3.785
REMARK INTER + INTRA:          -7.900
REMARK INTER:                  -7.408
REMARK INTRA:                  -0.492
REMARK UNBOUND:                -0.690
REMARK  Name = 
REMARK  8 active torsions:
REMARK  status: ('A' for Active; 'I' for Inactive)
REMARK    1  A    between atoms: C_1  and  N_2
REMARK    2  A    between atoms: C_3  and  C_5
REMARK    3  A    between atoms: C_8  and  N_9
REMARK    4  A    between atoms: N_9  and  C_10
REMARK    5  A    between atoms: C_10  and  C_11
REMARK    6  A    between atoms: C_11  and  C_12
REMARK    7  A    between atoms: C_11  and  C_13
REMARK    8  A    between atoms: C_11  and  C_14
REMARK                            x       y       z     vdW  Elec       q    Type
REMARK                         _______ _______ _______ _____ _____    ______ ____
ROOT
ATOM      1  N   UNL     1      46.117   4.230  14.492  0.00  0.00    +0.000 N 
ATOM      2  H   UNL     1      45.381   3.636  14.864  0.00  0.00    +0.000 HD
ENDROOT
BRANCH   1   6
ATOM      3  C   UNL     1      49.363   4.958  16.990  0.00  0.00    +0.000 A 
ATOM      4  C   UNL     1      48.633   3.801  17.210  0.00  0.00    +0.000 A 
ATOM      5  C   UNL     1      47.536   3.539  16.386  0.00  0.00    +0.000 A 
ATOM      6  C   UNL     1      47.159   4.441  15.391  0.00  0.00    +0.000 A 
ATOM      7  C   UNL     1      47.984   5.568  15.254  0.00  0.00    +0.000 A 
ATOM      8  N   UNL     1      49.066   5.863  16.021  0.00  0.00    +0.000 NA
BRANCH   3  11
ATOM      9  C   UNL     1      52.885   4.560  18.307  0.00  0.00    +0.000 C 
ATOM     10  N   UNL     1      51.674   4.462  17.541  0.00  0.00    +0.000 N 
ATOM     11  C   UNL     1      50.570   5.234  17.833  0.00  0.00    +0.000 C 
ATOM     12  O   UNL     1      50.551   6.082  18.721  0.00  0.00    +0.000 OA
ATOM     13  H   UNL     1      51.568   3.776  16.800  0.00  0.00    +0.000 HD
ENDBRANCH   3  11
ENDBRANCH   1   6
BRANCH   1  14
ATOM     14  C   UNL     1      46.332   4.165  13.040  0.00  0.00    +0.000 C 
BRANCH  14  15
ATOM     15  C   UNL     1      45.454   5.165  12.230  0.00  0.00    +0.000 C 
ATOM     16  C   UNL     1      44.069   5.304  12.902  0.00  0.00    +0.000 C 
ATOM     17  C   UNL     1      46.113   6.560  12.192  0.00  0.00    +0.000 C 
BRANCH  15  18
ATOM     18  C   UNL     1      45.246   4.557  10.835  0.00  0.00    +0.000 A 
ATOM     19  C   UNL     1      45.618   5.190   9.649  0.00  0.00    +0.000 A 
ATOM     20  N   UNL     1      45.433   4.645   8.420  0.00  0.00    +0.000 NA
ATOM     21  C   UNL     1      44.857   3.426   8.404  0.00  0.00    +0.000 A 
ATOM     22  C   UNL     1      44.483   2.780   9.563  0.00  0.00    +0.000 A 
ATOM     23  N   UNL     1      44.668   3.324  10.788  0.00  0.00    +0.000 NA
ENDBRANCH  15  18
ENDBRANCH  14  15
ENDBRANCH   1  14
TORSDOF 5
ENDMDL
MODEL 9
REMARK VINA RESULT:    -5.170      3.183      6.553
REMARK INTER + INTRA:          -7.371
REMARK INTER:                  -7.064
REMARK INTRA:                  -0.307
REMARK UNBOUND:                -0.690
REMARK  Name = 
REMARK  8 active torsions:
REMARK  status: ('A' for Active; 'I' for Inactive)
REMARK    1  A    between atoms: C_1  and  N_2
REMARK    2  A    between atoms: C_3  and  C_5
REMARK    3  A    between atoms: C_8  and  N_9
REMARK    4  A    between atoms: N_9  and  C_10
REMARK    5  A    between atoms: C_10  and  C_11
REMARK    6  A    between atoms: C_11  and  C_12
REMARK    7  A    between atoms: C_11  and  C_13
REMARK    8  A    between atoms: C_11  and  C_14
REMARK                            x       y       z     vdW  Elec       q    Type
REMARK                         _______ _______ _______ _____ _____    ______ ____
ROOT
ATOM      1  N   UNL     1      43.401   3.502  10.475  0.00  0.00    +0.000 N 
ATOM      2  H   UNL     1      42.502   3.061  10.301  0.00  0.00    +0.000 HD
ENDROOT
BRANCH   1   6
ATOM      3  C   UNL     1      46.311   2.536   7.662  0.00  0.00    +0.000 A 
ATOM      4  C   UNL     1      45.947   3.868   7.776  0.00  0.00    +0.000 A 
ATOM      5  C   UNL     1      44.968   4.215   8.710  0.00  0.00    +0.000 A 
ATOM      6  C   UNL     1      44.342   3.237   9.483  0.00  0.00    +0.000 A 
ATOM      7  C   UNL     1      44.806   1.926   9.291  0.00  0.00    +0.000 A 
ATOM      8  N   UNL     1      45.760   1.540   8.405  0.00  0.00    +0.000 NA
BRANCH   3  11
ATOM      9  C   UNL     1      48.259   2.474   4.422  0.00  0.00    +0.000 C 
ATOM     10  N   UNL     1      47.336   2.788   5.477  0.00  0.00    +0.000 N 
ATOM     11  C   UNL     1      47.390   2.151   6.699  0.00  0.00    +0.000 C 
ATOM     12  O   UNL     1      48.243   1.317   6.992  0.00  0.00    +0.000 OA
ATOM     13  H   UNL     1      46.572   3.443   5.338  0.00  0.00    +0.000 HD
ENDBRANCH   3  11
ENDBRANCH   1   6
BRANCH   1  14
ATOM     14  C   UNL     1      43.370   4.773  11.211  0.00  0.00    +0.000 C 
BRANCH  14  15
ATOM     15  C   UNL     1      44.279   4.789  12.476  0.00  0.00    +0.000 C 
ATOM     16  C   UNL     1      43.402   4.724  13.747  0.00  0.00    +0.000 C 
ATOM     17  C   UNL     1      45.226   3.570  12.481  0.00  0.00    +0.000 C 
BRANCH  15  18
ATOM     18  C   UNL     1      45.023   6.132  12.481  0.00  0.00    +0.000 A 
ATOM     19  C   UNL     1      44.631   7.240  11.730  0.00  0.00    +0.000 A 
ATOM     20  N   UNL     1      45.292   8.425  11.741  0.00  0.00    +0.000 NA
ATOM     21  C   UNL     1      46.378   8.478  12.540  0.00  0.00    +0.000 A 
ATOM     22  C   UNL     1      46.784   7.397  13.294  0.00  0.00    +0.000 A 
ATOM     23  N   UNL     1      46.123   6.216  13.281  0.00  0.00    +0.000 NA
ENDBRANCH  15  18
ENDBRANCH  14  15
ENDBRANCH   1  14
TORSDOF 5
ENDMDL
