MODEL 1
REMARK VINA RESULT:    -8.836      0.000      0.000
REMARK INTER + INTRA:         -13.483
REMARK INTER:                 -12.710
REMARK INTRA:                  -0.774
REMARK UNBOUND:                -0.774
REMARK  Name = 
REMARK  9 active torsions:
REMARK  status: ('A' for Active; 'I' for Inactive)
REMARK    1  A    between atoms: C_1  and  C_2
REMARK    2  A    between atoms: C_2  and  O_3
REMARK    3  A    between atoms: O_3  and  C_4
REMARK    4  A    between atoms: C_8  and  C_9
REMARK    5  A    between atoms: C_9  and  C_10
REMARK    6  A    between atoms: C_10  and  N_11
REMARK    7  A    between atoms: N_11  and  C_12
REMARK    8  A    between atoms: C_15  and  C_16
REMARK    9  A    between atoms: C_23  and  O_24
REMARK                            x       y       z     vdW  Elec       q    Type
REMARK                         _______ _______ _______ _____ _____    ______ ____
ROOT
ATOM      1  C   UNL     1      43.500   5.135  12.604  0.00  0.00    +0.000 C 
ENDROOT
BRANCH   1   6
ATOM      2  C   UNL     1      47.048   4.811  13.953  0.00  0.00    +0.000 A 
ATOM      3  C   UNL     1      47.687   5.899  13.372  0.00  0.00    +0.000 A 
ATOM      4  C   UNL     1      46.944   6.787  12.580  0.00  0.00    +0.000 A 
ATOM      5  C   UNL     1      45.582   6.574  12.348  0.00  0.00    +0.000 A 
ATOM      6  C   UNL     1      44.942   5.460  12.904  0.00  0.00    +0.000 A 
ATOM      7  C   UNL     1      45.692   4.588  13.703  0.00  0.00    +0.000 A 
BRANCH   2   8
ATOM      8  O   UNL     1      47.614   3.863  14.754  0.00  0.00    +0.000 OA
BRANCH   8  10
ATOM      9  C   UNL     1      48.070   5.487  16.524  0.00  0.00    +0.000 C 
ATOM     10  C   UNL     1      47.790   4.061  16.168  0.00  0.00    +0.000 C 
ATOM     11  C   UNL     1      47.266   3.102  17.211  0.00  0.00    +0.000 C 
ATOM     12  C   UNL     1      48.693   2.996  16.779  0.00  0.00    +0.000 C 
BRANCH  12  13
ATOM     13  O   UNL     1      48.986   1.834  15.977  0.00  0.00    +0.000 OA
ATOM     14  H   UNL     1      49.621   1.250  16.432  0.00  0.00    +0.000 HD
ENDBRANCH  12  13
ENDBRANCH   8  10
ENDBRANCH   2   8
ENDBRANCH   1   6
BRANCH   1  15
ATOM     15  C   UNL     1      43.398   4.071  11.505  0.00  0.00    +0.000 C 
BRANCH  15  16
ATOM     16  N   UNL     1      43.701   4.637  10.190  0.00  0.00    +0.000 N 
ATOM     17  H   UNL     1      43.872   5.638  10.189  0.00  0.00    +0.000 HD
BRANCH  16  18
ATOM     18  C   UNL     1      44.567   3.945   9.333  0.00  0.00    +0.000 A 
ATOM     19  C   UNL     1      45.450   4.581   8.451  0.00  0.00    +0.000 A 
ATOM     20  C   UNL     1      46.348   3.846   7.668  0.00  0.00    +0.000 A 
ATOM     21  C   UNL     1      46.414   2.458   7.785  0.00  0.00    +0.000 A 
ATOM     22  C   UNL     1      45.564   1.807   8.679  0.00  0.00    +0.000 A 
ATOM     23  C   UNL     1      44.659   2.549   9.451  0.00  0.00    +0.000 A 
BRANCH  21  24
ATOM     24  C   UNL     1      47.401   1.729   6.939  0.00  0.00    +0.000 C 
ATOM     25  N   UNL     1      48.479   2.431   6.482  0.00  0.00    +0.000 N 
ATOM     26  O   UNL     1      47.234   0.558   6.626  0.00  0.00    +0.000 OA
ATOM     27  H   UNL     1      48.515   3.439   6.497  0.00  0.00    +0.000 HD
ATOM     28  H   UNL     1      49.062   1.953   5.807  0.00  0.00    +0.000 HD
ENDBRANCH  21  24
ENDBRANCH  16  18
ENDBRANCH  15  16
ENDBRANCH   1  15
TORSDOF 8
ENDMDL
MODEL 2
REMARK VINA RESULT:    -8.036      2.109      3.578
REMARK INTER + INTRA:         -12.332
REMARK INTER:                 -11.068
REMARK INTRA:                  -1.265
REMARK UNBOUND:                -0.774
REMARK  Name = 
REMARK  9 active torsions:
REMARK  status: ('A' for Active; 'I' for Inactive)
REMARK    1  A    between atoms: C_1  and  C_2
REMARK    2  A    between atoms: C_2  and  O_3
REMARK    3  A    between atoms: O_3  and  C_4
REMARK    4  A    between atoms: C_8  and  C_9
REMARK    5  A    between atoms: C_9  and  C_10
REMARK    6  A    between atoms: C_10  and  N_11
REMARK    7  A    between atoms: N_11  and  C_12
REMARK    8  A    between atoms: C_15  and  C_16
REMARK    9  A    between atoms: C_23  and  O_24
REMARK                            x       y       z     vdW  Elec       q    Type
REMARK                         _______ _______ _______ _____ _____    ______ ____
ROOT
ATOM      1  C   UNL     1      43.539   5.716  12.066  0.00  0.00    +0.000 C 
ENDROOT
BRANCH   1   6
ATOM      2  C   UNL     1      46.993   6.492  13.472  0.00  0.00    +0.000 A 
ATOM      3  C   UNL     1      47.449   5.237  13.851  0.00  0.00    +0.000 A 
ATOM      4  C   UNL     1      46.652   4.112  13.592  0.00  0.00    +0.000 A 
ATOM      5  C   UNL     1      45.400   4.244  12.986  0.00  0.00    +0.000 A 
ATOM      6  C   UNL     1      44.922   5.512  12.633  0.00  0.00    +0.000 A 
ATOM      7  C   UNL     1      45.733   6.626  12.886  0.00  0.00    +0.000 A 
BRANCH   2   8
ATOM      8  O   UNL     1      47.642   7.682  13.638  0.00  0.00    +0.000 OA
BRANCH   8  10
ATOM      9  C   UNL     1      50.059   7.878  13.940  0.00  0.00    +0.000 C 
ATOM     10  C   UNL     1      48.899   7.964  12.999  0.00  0.00    +0.000 C 
ATOM     11  C   UNL     1      49.115   7.857  11.508  0.00  0.00    +0.000 C 
ATOM     12  C   UNL     1      48.813   9.195  12.104  0.00  0.00    +0.000 C 
BRANCH  12  13
ATOM     13  O   UNL     1      47.499   9.700  11.795  0.00  0.00    +0.000 OA
ATOM     14  H   UNL     1      47.352   9.717  10.830  0.00  0.00    +0.000 HD
ENDBRANCH  12  13
ENDBRANCH   8  10
ENDBRANCH   2   8
ENDBRANCH   1   6
BRANCH   1  15
ATOM     15  C   UNL     1      43.182   4.594  11.084  0.00  0.00    +0.000 C 
BRANCH  15  16
ATOM     16  N   UNL     1      43.687   4.885   9.741  0.00  0.00    +0.000 N 
ATOM     17  H   UNL     1      43.903   5.863   9.573  0.00  0.00    +0.000 HD
BRANCH  16  18
ATOM     18  C   UNL     1      44.628   4.021   9.166  0.00  0.00    +0.000 A 
ATOM     19  C   UNL     1      44.602   2.631   9.334  0.00  0.00    +0.000 A 
ATOM     20  C   UNL     1      45.521   1.803   8.679  0.00  0.00    +0.000 A 
ATOM     21  C   UNL     1      46.459   2.346   7.801  0.00  0.00    +0.000 A 
ATOM     22  C   UNL     1      46.483   3.726   7.596  0.00  0.00    +0.000 A 
ATOM     23  C   UNL     1      45.567   4.549   8.267  0.00  0.00    +0.000 A 
BRANCH  21  24
ATOM     24  C   UNL     1      47.401   1.416   7.118  0.00  0.00    +0.000 C 
ATOM     25  N   UNL     1      48.445   1.967   6.432  0.00  0.00    +0.000 N 
ATOM     26  O   UNL     1      47.225   0.204   7.130  0.00  0.00    +0.000 OA
ATOM     27  H   UNL     1      48.475   2.943   6.183  0.00  0.00    +0.000 HD
ATOM     28  H   UNL     1      48.992   1.325   5.873  0.00  0.00    +0.000 HD
ENDBRANCH  21  24
ENDBRANCH  16  18
ENDBRANCH  15  16
ENDBRANCH   1  15
TORSDOF 8
ENDMDL
MODEL 3
REMARK VINA RESULT:    -8.005      1.761      2.289
REMARK INTER + INTRA:         -12.288
REMARK INTER:                 -11.101
REMARK INTRA:                  -1.188
REMARK UNBOUND:                -0.774
REMARK  Name = 
REMARK  9 active torsions:
REMARK  status: ('A' for Active; 'I' for Inactive)
REMARK    1  A    between atoms: C_1  and  C_2
REMARK    2  A    between atoms: C_2  and  O_3
REMARK    3  A    between atoms: O_3  and  C_4
REMARK    4  A    between atoms: C_8  and  C_9
REMARK    5  A    between atoms: C_9  and  C_10
REMARK    6  A    between atoms: C_10  and  N_11
REMARK    7  A    between atoms: N_11  and  C_12
REMARK    8  A    between atoms: C_15  and  C_16
REMARK    9  A    between atoms: C_23  and  O_24
REMARK                            x       y       z     vdW  Elec       q    Type
REMARK                         _______ _______ _______ _____ _____    ______ ____
ROOT
ATOM      1  C   UNL     1      44.785   4.900  12.436  0.00  0.00    +0.000 C 
ENDROOT
BRANCH   1   6
ATOM      2  C   UNL     1      48.090   6.146  13.864  0.00  0.00    +0.000 A 
ATOM      3  C   UNL     1      48.553   6.981  12.856  0.00  0.00    +0.000 A 
ATOM      4  C   UNL     1      47.756   7.193  11.722  0.00  0.00    +0.000 A 
ATOM      5  C   UNL     1      46.520   6.555  11.584  0.00  0.00    +0.000 A 
ATOM      6  C   UNL     1      46.065   5.686  12.582  0.00  0.00    +0.000 A 
ATOM      7  C   UNL     1      46.865   5.493  13.716  0.00  0.00    +0.000 A 
BRANCH   2   8
ATOM      8  O   UNL     1      48.728   5.842  15.031  0.00  0.00    +0.000 OA
BRANCH   8  10
ATOM      9  C   UNL     1      50.776   7.003  15.691  0.00  0.00    +0.000 C 
ATOM     10  C   UNL     1      49.299   6.854  15.879  0.00  0.00    +0.000 C 
ATOM     11  C   UNL     1      48.491   7.971  16.497  0.00  0.00    +0.000 C 
ATOM     12  C   UNL     1      48.781   6.749  17.310  0.00  0.00    +0.000 C 
BRANCH  12  13
ATOM     13  O   UNL     1      47.637   5.903  17.541  0.00  0.00    +0.000 OA
ATOM     14  H   UNL     1      47.342   5.485  16.710  0.00  0.00    +0.000 HD
ENDBRANCH  12  13
ENDBRANCH   8  10
ENDBRANCH   2   8
ENDBRANCH   1   6
BRANCH   1  15
ATOM     15  C   UNL     1      43.976   5.396  11.231  0.00  0.00    +0.000 C 
BRANCH  15  16
ATOM     16  N   UNL     1      43.584   4.284  10.364  0.00  0.00    +0.000 N 
ATOM     17  H   UNL     1      42.709   4.423   9.867  0.00  0.00    +0.000 HD
BRANCH  16  18
ATOM     18  C   UNL     1      44.557   3.662   9.571  0.00  0.00    +0.000 A 
ATOM     19  C   UNL     1      44.727   2.273   9.508  0.00  0.00    +0.000 A 
ATOM     20  C   UNL     1      45.665   1.695   8.645  0.00  0.00    +0.000 A 
ATOM     21  C   UNL     1      46.424   2.495   7.790  0.00  0.00    +0.000 A 
ATOM     22  C   UNL     1      46.251   3.879   7.817  0.00  0.00    +0.000 A 
ATOM     23  C   UNL     1      45.317   4.451   8.693  0.00  0.00    +0.000 A 
BRANCH  21  24
ATOM     24  C   UNL     1      47.395   1.824   6.881  0.00  0.00    +0.000 C 
ATOM     25  N   UNL     1      48.472   2.551   6.461  0.00  0.00    +0.000 N 
ATOM     26  O   UNL     1      47.216   0.680   6.485  0.00  0.00    +0.000 OA
ATOM     27  H   UNL     1      48.516   3.555   6.549  0.00  0.00    +0.000 HD
ATOM     28  H   UNL     1      49.043   2.120   5.746  0.00  0.00    +0.000 HD
ENDBRANCH  21  24
ENDBRANCH  16  18
ENDBRANCH  15  16
ENDBRANCH   1  15
TORSDOF 8
ENDMDL
MODEL 4
REMARK VINA RESULT:    -7.832      3.029      4.892
REMARK INTER + INTRA:         -12.039
REMARK INTER:                 -11.110
REMARK INTRA:                  -0.928
REMARK UNBOUND:                -0.774
REMARK  Name = 
REMARK  9 active torsions:
REMARK  status: ('A' for Active; 'I' for Inactive)
REMARK    1  A    between atoms: C_1  and  C_2
REMARK    2  A    between atoms: C_2  and  O_3
REMARK    3  A    between atoms: O_3  and  C_4
REMARK    4  A    between atoms: C_8  and  C_9
REMARK    5  A    between atoms: C_9  and  C_10
REMARK    6  A    between atoms: C_10  and  N_11
REMARK    7  A    between atoms: N_11  and  C_12
REMARK    8  A    between atoms: C_15  and  C_16
REMARK    9  A    between atoms: C_23  and  O_24
REMARK                            x       y       z     vdW  Elec       q    Type
REMARK                         _______ _______ _______ _____ _____    ______ ____
ROOT
ATOM      1  C   UNL     1      45.222   4.664  12.153  0.00  0.00    +0.000 C 
ENDROOT
BRANCH   1   6
ATOM      2  C   UNL     1      45.799   8.357  12.886  0.00  0.00    +0.000 A 
ATOM      3  C   UNL     1      47.084   8.359  13.411  0.00  0.00    +0.000 A 
ATOM      4  C   UNL     1      47.800   7.155  13.473  0.00  0.00    +0.000 A 
ATOM      5  C   UNL     1      47.226   5.956  13.040  0.00  0.00    +0.000 A 
ATOM      6  C   UNL     1      45.919   5.945  12.542  0.00  0.00    +0.000 A 
ATOM      7  C   UNL     1      45.219   7.156  12.474  0.00  0.00    +0.000 A 
BRANCH   2   8
ATOM      8  O   UNL     1      44.973   9.435  12.744  0.00  0.00    +0.000 OA
BRANCH   8  10
ATOM      9  C   UNL     1      46.293  10.991  11.398  0.00  0.00    +0.000 C 
ATOM     10  C   UNL     1      44.995  10.267  11.571  0.00  0.00    +0.000 C 
ATOM     11  C   UNL     1      44.069  10.068  10.394  0.00  0.00    +0.000 C 
ATOM     12  C   UNL     1      43.714  11.083  11.434  0.00  0.00    +0.000 C 
BRANCH  12  13
ATOM     13  O   UNL     1      42.599  10.714  12.269  0.00  0.00    +0.000 OA
ATOM     14  H   UNL     1      42.822  10.825  13.213  0.00  0.00    +0.000 HD
ENDBRANCH  12  13
ENDBRANCH   8  10
ENDBRANCH   2   8
ENDBRANCH   1   6
BRANCH   1  15
ATOM     15  C   UNL     1      43.956   4.958  11.339  0.00  0.00    +0.000 C 
BRANCH  15  16
ATOM     16  N   UNL     1      43.630   3.845  10.446  0.00  0.00    +0.000 N 
ATOM     17  H   UNL     1      42.668   3.830  10.121  0.00  0.00    +0.000 HD
BRANCH  16  18
ATOM     18  C   UNL     1      44.541   3.488   9.442  0.00  0.00    +0.000 A 
ATOM     19  C   UNL     1      45.210   4.422   8.641  0.00  0.00    +0.000 A 
ATOM     20  C   UNL     1      46.166   4.019   7.701  0.00  0.00    +0.000 A 
ATOM     21  C   UNL     1      46.508   2.672   7.575  0.00  0.00    +0.000 A 
ATOM     22  C   UNL     1      45.874   1.729   8.384  0.00  0.00    +0.000 A 
ATOM     23  C   UNL     1      44.908   2.140   9.314  0.00  0.00    +0.000 A 
BRANCH  21  24
ATOM     24  C   UNL     1      47.544   2.303   6.570  0.00  0.00    +0.000 C 
ATOM     25  N   UNL     1      47.512   2.947   5.367  0.00  0.00    +0.000 N 
ATOM     26  O   UNL     1      48.368   1.426   6.794  0.00  0.00    +0.000 OA
ATOM     27  H   UNL     1      46.710   3.471   5.054  0.00  0.00    +0.000 HD
ATOM     28  H   UNL     1      48.141   2.588   4.660  0.00  0.00    +0.000 HD
ENDBRANCH  21  24
ENDBRANCH  16  18
ENDBRANCH  15  16
ENDBRANCH   1  15
TORSDOF 8
ENDMDL
MODEL 5
REMARK VINA RESULT:    -7.815      1.929      2.291
REMARK INTER + INTRA:         -12.015
REMARK INTER:                 -10.976
REMARK INTRA:                  -1.038
REMARK UNBOUND:                -0.774
REMARK  Name = 
REMARK  9 active torsions:
REMARK  status: ('A' for Active; 'I' for Inactive)
REMARK    1  A    between atoms: C_1  and  C_2
REMARK    2  A    between atoms: C_2  and  O_3
REMARK    3  A    between atoms: O_3  and  C_4
REMARK    4  A    between atoms: C_8  and  C_9
REMARK    5  A    between atoms: C_9  and  C_10
REMARK    6  A    between atoms: C_10  and  N_11
REMARK    7  A    between atoms: N_11  and  C_12
REMARK    8  A    between atoms: C_15  and  C_16
REMARK    9  A    between atoms: C_23  and  O_24
REMARK                            x       y       z     vdW  Elec       q    Type
REMARK                         _______ _______ _______ _____ _____    ______ ____
ROOT
ATOM      1  C   UNL     1      43.865   4.377  12.827  0.00  0.00    +0.000 C 
ENDROOT
BRANCH   1   6
ATOM      2  C   UNL     1      47.082   6.411  12.973  0.00  0.00    +0.000 A 
ATOM      3  C   UNL     1      46.761   7.530  12.217  0.00  0.00    +0.000 A 
ATOM      4  C   UNL     1      45.463   7.659  11.703  0.00  0.00    +0.000 A 
ATOM      5  C   UNL     1      44.504   6.665  11.918  0.00  0.00    +0.000 A 
ATOM      6  C   UNL     1      44.834   5.520  12.650  0.00  0.00    +0.000 A 
ATOM      7  C   UNL     1      46.130   5.409  13.169  0.00  0.00    +0.000 A 
BRANCH   2   8
ATOM      8  O   UNL     1      48.286   6.135  13.553  0.00  0.00    +0.000 OA
BRANCH   8  10
ATOM      9  C   UNL     1      50.068   7.788  13.289  0.00  0.00    +0.000 C 
ATOM     10  C   UNL     1      49.072   7.148  14.205  0.00  0.00    +0.000 C 
ATOM     11  C   UNL     1      48.639   7.848  15.471  0.00  0.00    +0.000 C 
ATOM     12  C   UNL     1      49.572   6.684  15.569  0.00  0.00    +0.000 C 
BRANCH  12  13
ATOM     13  O   UNL     1      48.980   5.492  16.122  0.00  0.00    +0.000 OA
ATOM     14  H   UNL     1      48.006   5.549  16.104  0.00  0.00    +0.000 HD
ENDBRANCH  12  13
ENDBRANCH   8  10
ENDBRANCH   2   8
ENDBRANCH   1   6
BRANCH   1  15
ATOM     15  C   UNL     1      44.269   3.180  11.958  0.00  0.00    +0.000 C 
BRANCH  15  16
ATOM     16  N   UNL     1      43.739   3.309  10.600  0.00  0.00    +0.000 N 
ATOM     17  H   UNL     1      43.116   4.099  10.462  0.00  0.00    +0.000 HD
BRANCH  16  18
ATOM     18  C   UNL     1      44.597   3.105   9.511  0.00  0.00    +0.000 A 
ATOM     19  C   UNL     1      45.141   4.150   8.753  0.00  0.00    +0.000 A 
ATOM     20  C   UNL     1      46.052   3.899   7.721  0.00  0.00    +0.000 A 
ATOM     21  C   UNL     1      46.476   2.597   7.454  0.00  0.00    +0.000 A 
ATOM     22  C   UNL     1      45.969   1.545   8.217  0.00  0.00    +0.000 A 
ATOM     23  C   UNL     1      45.047   1.803   9.241  0.00  0.00    +0.000 A 
BRANCH  21  24
ATOM     24  C   UNL     1      47.460   2.391   6.355  0.00  0.00    +0.000 C 
ATOM     25  N   UNL     1      47.441   3.278   5.317  0.00  0.00    +0.000 N 
ATOM     26  O   UNL     1      48.231   1.439   6.355  0.00  0.00    +0.000 OA
ATOM     27  H   UNL     1      46.667   3.903   5.154  0.00  0.00    +0.000 HD
ATOM     28  H   UNL     1      48.027   3.043   4.526  0.00  0.00    +0.000 HD
ENDBRANCH  21  24
ENDBRANCH  16  18
ENDBRANCH  15  16
ENDBRANCH   1  15
TORSDOF 8
ENDMDL
MODEL 6
REMARK VINA RESULT:    -6.746      2.847      4.337
REMARK INTER + INTRA:         -10.477
REMARK INTER:                  -9.162
REMARK INTRA:                  -1.314
REMARK UNBOUND:                -0.774
REMARK  Name = 
REMARK  9 active torsions:
REMARK  status: ('A' for Active; 'I' for Inactive)
REMARK    1  A    between atoms: C_1  and  C_2
REMARK    2  A    between atoms: C_2  and  O_3
REMARK    3  A    between atoms: O_3  and  C_4
REMARK    4  A    between atoms: C_8  and  C_9
REMARK    5  A    between atoms: C_9  and  C_10
REMARK    6  A    between atoms: C_10  and  N_11
REMARK    7  A    between atoms: N_11  and  C_12
REMARK    8  A    between atoms: C_15  and  C_16
REMARK    9  A    between atoms: C_23  and  O_24
REMARK                            x       y       z     vdW  Elec       q    Type
REMARK                         _______ _______ _______ _____ _____    ______ ____
ROOT
ATOM      1  C   UNL     1      48.177   8.039  12.880  0.00  0.00    +0.000 C 
ENDROOT
BRANCH   1   6
ATOM      2  C   UNL     1      48.963   6.387  16.221  0.00  0.00    +0.000 A 
ATOM      3  C   UNL     1      48.904   7.457  17.103  0.00  0.00    +0.000 A 
ATOM      4  C   UNL     1      48.543   8.723  16.620  0.00  0.00    +0.000 A 
ATOM      5  C   UNL     1      48.273   8.923  15.264  0.00  0.00    +0.000 A 
ATOM      6  C   UNL     1      48.365   7.854  14.366  0.00  0.00    +0.000 A 
ATOM      7  C   UNL     1      48.713   6.592  14.863  0.00  0.00    +0.000 A 
BRANCH   2   8
ATOM      8  O   UNL     1      49.284   5.095  16.524  0.00  0.00    +0.000 OA
BRANCH   8  10
ATOM      9  C   UNL     1      49.107   4.276  18.820  0.00  0.00    +0.000 C 
ATOM     10  C   UNL     1      48.510   4.310  17.448  0.00  0.00    +0.000 C 
ATOM     11  C   UNL     1      47.049   3.986  17.242  0.00  0.00    +0.000 C 
ATOM     12  C   UNL     1      48.080   2.981  16.838  0.00  0.00    +0.000 C 
BRANCH  12  13
ATOM     13  O   UNL     1      48.232   2.825  15.413  0.00  0.00    +0.000 OA
ATOM     14  H   UNL     1      47.588   3.380  14.933  0.00  0.00    +0.000 HD
ENDBRANCH  12  13
ENDBRANCH   8  10
ENDBRANCH   2   8
ENDBRANCH   1   6
BRANCH   1  15
ATOM     15  C   UNL     1      46.779   8.588  12.572  0.00  0.00    +0.000 C 
BRANCH  15  16
ATOM     16  N   UNL     1      45.742   7.802  13.242  0.00  0.00    +0.000 N 
ATOM     17  H   UNL     1      44.946   8.342  13.569  0.00  0.00    +0.000 HD
BRANCH  16  18
ATOM     18  C   UNL     1      45.365   6.567  12.699  0.00  0.00    +0.000 A 
ATOM     19  C   UNL     1      45.592   5.342  13.338  0.00  0.00    +0.000 A 
ATOM     20  C   UNL     1      45.131   4.140  12.789  0.00  0.00    +0.000 A 
ATOM     21  C   UNL     1      44.389   4.143  11.607  0.00  0.00    +0.000 A 
ATOM     22  C   UNL     1      44.126   5.355  10.969  0.00  0.00    +0.000 A 
ATOM     23  C   UNL     1      44.602   6.554  11.520  0.00  0.00    +0.000 A 
BRANCH  21  24
ATOM     24  C   UNL     1      43.909   2.835  11.078  0.00  0.00    +0.000 C 
ATOM     25  N   UNL     1      44.550   2.323   9.987  0.00  0.00    +0.000 N 
ATOM     26  O   UNL     1      42.947   2.260  11.571  0.00  0.00    +0.000 OA
ATOM     27  H   UNL     1      45.158   2.878   9.406  0.00  0.00    +0.000 HD
ATOM     28  H   UNL     1      44.125   1.505   9.571  0.00  0.00    +0.000 HD
ENDBRANCH  21  24
ENDBRANCH  16  18
ENDBRANCH  15  16
ENDBRANCH   1  15
TORSDOF 8
ENDMDL
MODEL 7
REMARK VINA RESULT:    -6.639      3.498      7.564
REMARK INTER + INTRA:         -10.323
REMARK INTER:                  -8.913
REMARK INTRA:                  -1.410
REMARK UNBOUND:                -0.774
REMARK  Name = 
REMARK  9 active torsions:
REMARK  status: ('A' for Active; 'I' for Inactive)
REMARK    1  A    between atoms: C_1  and  C_2
REMARK    2  A    between atoms: C_2  and  O_3
REMARK    3  A    between atoms: O_3  and  C_4
REMARK    4  A    between atoms: C_8  and  C_9
REMARK    5  A    between atoms: C_9  and  C_10
REMARK    6  A    between atoms: C_10  and  N_11
REMARK    7  A    between atoms: N_11  and  C_12
REMARK    8  A    between atoms: C_15  and  C_16
REMARK    9  A    between atoms: C_23  and  O_24
REMARK                            x       y       z     vdW  Elec       q    Type
REMARK                         _______ _______ _______ _____ _____    ______ ____
ROOT
ATOM      1  C   UNL     1      49.087   8.495  12.236  0.00  0.00    +0.000 C 
ENDROOT
BRANCH   1   6
ATOM      2  C   UNL     1      45.866   6.603  11.492  0.00  0.00    +0.000 A 
ATOM      3  C   UNL     1      44.917   7.353  12.173  0.00  0.00    +0.000 A 
ATOM      4  C   UNL     1      45.315   8.524  12.835  0.00  0.00    +0.000 A 
ATOM      5  C   UNL     1      46.653   8.926  12.838  0.00  0.00    +0.000 A 
ATOM      6  C   UNL     1      47.618   8.155  12.180  0.00  0.00    +0.000 A 
ATOM      7  C   UNL     1      47.206   6.995  11.513  0.00  0.00    +0.000 A 
BRANCH   2   8
ATOM      8  O   UNL     1      45.649   5.452  10.791  0.00  0.00    +0.000 OA
BRANCH   8  10
ATOM      9  C   UNL     1      45.396   3.544  12.299  0.00  0.00    +0.000 C 
ATOM     10  C   UNL     1      44.764   4.422  11.265  0.00  0.00    +0.000 C 
ATOM     11  C   UNL     1      43.260   4.502  11.147  0.00  0.00    +0.000 C 
ATOM     12  C   UNL     1      44.030   3.737  10.118  0.00  0.00    +0.000 C 
BRANCH  12  13
ATOM     13  O   UNL     1      44.083   4.370   8.824  0.00  0.00    +0.000 OA
ATOM     14  H   UNL     1      44.564   5.217   8.872  0.00  0.00    +0.000 HD
ENDBRANCH  12  13
ENDBRANCH   8  10
ENDBRANCH   2   8
ENDBRANCH   1   6
BRANCH   1  15
ATOM     15  C   UNL     1      49.854   7.464  13.073  0.00  0.00    +0.000 C 
BRANCH  15  16
ATOM     16  N   UNL     1      49.689   7.716  14.505  0.00  0.00    +0.000 N 
ATOM     17  H   UNL     1      49.344   8.643  14.735  0.00  0.00    +0.000 HD
BRANCH  16  18
ATOM     18  C   UNL     1      49.124   6.719  15.311  0.00  0.00    +0.000 A 
ATOM     19  C   UNL     1      48.035   5.933  14.915  0.00  0.00    +0.000 A 
ATOM     20  C   UNL     1      47.553   4.899  15.727  0.00  0.00    +0.000 A 
ATOM     21  C   UNL     1      48.182   4.598  16.935  0.00  0.00    +0.000 A 
ATOM     22  C   UNL     1      49.287   5.350  17.334  0.00  0.00    +0.000 A 
ATOM     23  C   UNL     1      49.756   6.392  16.521  0.00  0.00    +0.000 A 
BRANCH  21  24
ATOM     24  C   UNL     1      47.637   3.476  17.749  0.00  0.00    +0.000 C 
ATOM     25  N   UNL     1      48.338   3.104  18.860  0.00  0.00    +0.000 N 
ATOM     26  O   UNL     1      46.623   2.876  17.414  0.00  0.00    +0.000 OA
ATOM     27  H   UNL     1      49.291   3.390  19.020  0.00  0.00    +0.000 HD
ATOM     28  H   UNL     1      48.019   2.261  19.320  0.00  0.00    +0.000 HD
ENDBRANCH  21  24
ENDBRANCH  16  18
ENDBRANCH  15  16
ENDBRANCH   1  15
TORSDOF 8
ENDMDL
MODEL 8
REMARK VINA RESULT:    -6.459      4.368      8.285
REMARK INTER + INTRA:         -10.064
REMARK INTER:                  -9.521
REMARK INTRA:                  -0.543
REMARK UNBOUND:                -0.774
REMARK  Name = 
REMARK  9 active torsions:
REMARK  status: ('A' for Active; 'I' for Inactive)
REMARK    1  A    between atoms: C_1  and  C_2
REMARK    2  A    between atoms: C_2  and  O_3
REMARK    3  A    between atoms: O_3  and  C_4
REMARK    4  A    between atoms: C_8  and  C_9
REMARK    5  A    between atoms: C_9  and  C_10
REMARK    6  A    between atoms: C_10  and  N_11
REMARK    7  A    between atoms: N_11  and  C_12
REMARK    8  A    between atoms: C_15  and  C_16
REMARK    9  A    between atoms: C_23  and  O_24
REMARK                            x       y       z     vdW  Elec       q    Type
REMARK                         _______ _______ _______ _____ _____    ______ ____
ROOT
ATOM      1  C   UNL     1      47.421   4.615  15.651  0.00  0.00    +0.000 C 
ENDROOT
BRANCH   1   6
ATOM      2  C   UNL     1      45.957   5.212  12.185  0.00  0.00    +0.000 A 
ATOM      3  C   UNL     1      46.606   6.373  11.785  0.00  0.00    +0.000 A 
ATOM      4  C   UNL     1      47.577   6.939  12.623  0.00  0.00    +0.000 A 
ATOM      5  C   UNL     1      47.877   6.365  13.862  0.00  0.00    +0.000 A 
ATOM      6  C   UNL     1      47.202   5.215  14.284  0.00  0.00    +0.000 A 
ATOM      7  C   UNL     1      46.243   4.653  13.432  0.00  0.00    +0.000 A 
BRANCH   2   8
ATOM      8  O   UNL     1      45.001   4.530  11.491  0.00  0.00    +0.000 OA
BRANCH   8  10
ATOM      9  C   UNL     1      43.474   2.738  12.151  0.00  0.00    +0.000 C 
ATOM     10  C   UNL     1      43.720   4.212  12.062  0.00  0.00    +0.000 C 
ATOM     11  C   UNL     1      42.937   5.170  12.928  0.00  0.00    +0.000 C 
ATOM     12  C   UNL     1      42.609   5.073  11.472  0.00  0.00    +0.000 C 
BRANCH  12  13
ATOM     13  O   UNL     1      43.003   6.223  10.697  0.00  0.00    +0.000 OA
ATOM     14  H   UNL     1      42.220   6.724  10.399  0.00  0.00    +0.000 HD
ENDBRANCH  12  13
ENDBRANCH   8  10
ENDBRANCH   2   8
ENDBRANCH   1   6
BRANCH   1  15
ATOM     15  C   UNL     1      48.479   5.405  16.430  0.00  0.00    +0.000 C 
BRANCH  15  16
ATOM     16  N   UNL     1      48.802   4.750  17.698  0.00  0.00    +0.000 N 
ATOM     17  H   UNL     1      47.995   4.463  18.244  0.00  0.00    +0.000 HD
BRANCH  16  18
ATOM     18  C   UNL     1      49.836   3.806  17.733  0.00  0.00    +0.000 A 
ATOM     19  C   UNL     1      49.694   2.490  17.275  0.00  0.00    +0.000 A 
ATOM     20  C   UNL     1      50.779   1.605  17.263  0.00  0.00    +0.000 A 
ATOM     21  C   UNL     1      52.044   2.033  17.666  0.00  0.00    +0.000 A 
ATOM     22  C   UNL     1      52.214   3.348  18.098  0.00  0.00    +0.000 A 
ATOM     23  C   UNL     1      51.119   4.225  18.120  0.00  0.00    +0.000 A 
BRANCH  21  24
ATOM     24  C   UNL     1      53.165   1.053  17.615  0.00  0.00    +0.000 C 
ATOM     25  N   UNL     1      52.974  -0.155  18.223  0.00  0.00    +0.000 N 
ATOM     26  O   UNL     1      54.235   1.331  17.089  0.00  0.00    +0.000 OA
ATOM     27  H   UNL     1      52.226  -0.319  18.879  0.00  0.00    +0.000 HD
ATOM     28  H   UNL     1      53.791  -0.749  18.287  0.00  0.00    +0.000 HD
ENDBRANCH  21  24
ENDBRANCH  16  18
ENDBRANCH  15  16
ENDBRANCH   1  15
TORSDOF 8
ENDMDL
