MODEL 1
REMARK VINA RESULT:    -7.746      0.000      0.000
REMARK INTER + INTRA:         -11.412
REMARK INTER:                 -10.463
REMARK INTRA:                  -0.949
REMARK UNBOUND:                -0.949
REMARK  Name = 
REMARK  9 active torsions:
REMARK  status: ('A' for Active; 'I' for Inactive)
REMARK    1  A    between atoms: C_1  and  O_2
REMARK    2  A    between atoms: O_2  and  C_3
REMARK    3  A    between atoms: C_6  and  C_7
REMARK    4  A    between atoms: C_7  and  C_8
REMARK    5  A    between atoms: C_7  and  N_9
REMARK    6  A    between atoms: N_9  and  C_10
REMARK    7  A    between atoms: C_13  and  C_14
REMARK    8  A    between atoms: C_14  and  O_16
REMARK    9  A    between atoms: C_18  and  N_19
REMARK                            x       y       z     vdW  Elec       q    Type
REMARK                         _______ _______ _______ _____ _____    ______ ____
ROOT
ATOM      1  C   UNL     1      44.504   3.690   9.316  0.00  0.00    +0.000 A 
ATOM      2  N   UNL     1      44.198   2.377   9.335  0.00  0.00    +0.000 NA
ATOM      3  C   UNL     1      45.044   1.521   8.711  0.00  0.00    +0.000 A 
ATOM      4  C   UNL     1      46.198   1.911   8.048  0.00  0.00    +0.000 A 
ATOM      5  C   UNL     1      46.486   3.275   7.983  0.00  0.00    +0.000 A 
ATOM      6  C   UNL     1      45.625   4.186   8.600  0.00  0.00    +0.000 A 
ENDROOT
BRANCH   6   7
ATOM      7  N   UNL     1      45.996   5.550   8.670  0.00  0.00    +0.000 N 
ATOM      8  H   UNL     1      47.000   5.694   8.646  0.00  0.00    +0.000 HD
ATOM      9  H   UNL     1      45.530   6.077   7.926  0.00  0.00    +0.000 HD
ENDBRANCH   6   7
BRANCH   1  10
ATOM     10  N   UNL     1      43.653   4.623   9.932  0.00  0.00    +0.000 N 
ATOM     11  H   UNL     1      43.956   5.574   9.696  0.00  0.00    +0.000 HD
BRANCH  10  12
ATOM     12  C   UNL     1      43.501   4.515  11.390  0.00  0.00    +0.000 C 
ATOM     13  C   UNL     1      42.393   5.471  11.847  0.00  0.00    +0.000 C 
BRANCH  12  17
ATOM     14  C   UNL     1      47.266   5.448  13.258  0.00  0.00    +0.000 A 
ATOM     15  C   UNL     1      46.670   4.216  13.500  0.00  0.00    +0.000 A 
ATOM     16  C   UNL     1      45.447   3.913  12.902  0.00  0.00    +0.000 A 
ATOM     17  C   UNL     1      44.832   4.855  12.077  0.00  0.00    +0.000 A 
ATOM     18  N   UNL     1      45.402   6.065  11.819  0.00  0.00    +0.000 NA
ATOM     19  C   UNL     1      46.590   6.327  12.419  0.00  0.00    +0.000 A 
BRANCH  14  21
ATOM     20  C   UNL     1      49.052   7.001  13.110  0.00  0.00    +0.000 C 
ATOM     21  O   UNL     1      48.458   5.882  13.761  0.00  0.00    +0.000 OA
ENDBRANCH  14  21
ENDBRANCH  12  17
ENDBRANCH  10  12
ENDBRANCH   1  10
BRANCH   4  22
ATOM     22  C   UNL     1      47.032   0.859   7.435  0.00  0.00    +0.000 C 
ATOM     23  O   UNL     1      47.876   1.104   6.588  0.00  0.00    +0.000 OA
BRANCH  22  24
ATOM     24  O   UNL     1      46.761  -0.394   7.855  0.00  0.00    +0.000 OA
ATOM     25  H   UNL     1      45.975  -0.498   8.418  0.00  0.00    +0.000 HD
ENDBRANCH  22  24
ENDBRANCH   4  22
TORSDOF 7
ENDMDL
MODEL 2
REMARK VINA RESULT:    -7.371      0.954      1.985
REMARK INTER + INTRA:         -10.906
REMARK INTER:                 -11.126
REMARK INTRA:                   0.220
REMARK UNBOUND:                -0.949
REMARK  Name = 
REMARK  9 active torsions:
REMARK  status: ('A' for Active; 'I' for Inactive)
REMARK    1  A    between atoms: C_1  and  O_2
REMARK    2  A    between atoms: O_2  and  C_3
REMARK    3  A    between atoms: C_6  and  C_7
REMARK    4  A    between atoms: C_7  and  C_8
REMARK    5  A    between atoms: C_7  and  N_9
REMARK    6  A    between atoms: N_9  and  C_10
REMARK    7  A    between atoms: C_13  and  C_14
REMARK    8  A    between atoms: C_14  and  O_16
REMARK    9  A    between atoms: C_18  and  N_19
REMARK                            x       y       z     vdW  Elec       q    Type
REMARK                         _______ _______ _______ _____ _____    ______ ____
ROOT
ATOM      1  C   UNL     1      44.778   4.097   9.117  0.00  0.00    +0.000 A 
ATOM      2  N   UNL     1      45.597   4.607   8.175  0.00  0.00    +0.000 NA
ATOM      3  C   UNL     1      46.406   3.749   7.507  0.00  0.00    +0.000 A 
ATOM      4  C   UNL     1      46.451   2.382   7.739  0.00  0.00    +0.000 A 
ATOM      5  C   UNL     1      45.643   1.862   8.750  0.00  0.00    +0.000 A 
ATOM      6  C   UNL     1      44.810   2.722   9.470  0.00  0.00    +0.000 A 
ENDROOT
BRANCH   6   7
ATOM      7  N   UNL     1      43.878   2.178  10.385  0.00  0.00    +0.000 N 
ATOM      8  H   UNL     1      44.195   1.314  10.815  0.00  0.00    +0.000 HD
ATOM      9  H   UNL     1      43.637   2.875  11.095  0.00  0.00    +0.000 HD
ENDBRANCH   6   7
BRANCH   1  10
ATOM     10  N   UNL     1      43.931   4.944   9.852  0.00  0.00    +0.000 N 
ATOM     11  H   UNL     1      44.167   5.922   9.654  0.00  0.00    +0.000 HD
BRANCH  10  12
ATOM     12  C   UNL     1      43.898   4.742  11.307  0.00  0.00    +0.000 C 
ATOM     13  C   UNL     1      42.717   5.526  11.891  0.00  0.00    +0.000 C 
BRANCH  12  17
ATOM     14  C   UNL     1      47.578   6.082  13.095  0.00  0.00    +0.000 A 
ATOM     15  C   UNL     1      47.001   6.831  12.077  0.00  0.00    +0.000 A 
ATOM     16  C   UNL     1      45.812   6.397  11.490  0.00  0.00    +0.000 A 
ATOM     17  C   UNL     1      45.223   5.210  11.927  0.00  0.00    +0.000 A 
ATOM     18  N   UNL     1      45.767   4.464  12.928  0.00  0.00    +0.000 NA
ATOM     19  C   UNL     1      46.924   4.915  13.474  0.00  0.00    +0.000 A 
BRANCH  14  21
ATOM     20  C   UNL     1      49.494   7.469  13.261  0.00  0.00    +0.000 C 
ATOM     21  O   UNL     1      48.727   6.381  13.767  0.00  0.00    +0.000 OA
ENDBRANCH  14  21
ENDBRANCH  12  17
ENDBRANCH  10  12
ENDBRANCH   1  10
BRANCH   4  22
ATOM     22  C   UNL     1      47.370   1.571   6.914  0.00  0.00    +0.000 C 
ATOM     23  O   UNL     1      47.129   0.414   6.612  0.00  0.00    +0.000 OA
BRANCH  22  24
ATOM     24  O   UNL     1      48.510   2.198   6.556  0.00  0.00    +0.000 OA
ATOM     25  H   UNL     1      49.133   1.681   6.016  0.00  0.00    +0.000 HD
ENDBRANCH  22  24
ENDBRANCH   4  22
TORSDOF 7
ENDMDL
MODEL 3
REMARK VINA RESULT:    -6.781      2.503      3.373
REMARK INTER + INTRA:         -10.108
REMARK INTER:                  -9.579
REMARK INTRA:                  -0.530
REMARK UNBOUND:                -0.949
REMARK  Name = 
REMARK  9 active torsions:
REMARK  status: ('A' for Active; 'I' for Inactive)
REMARK    1  A    between atoms: C_1  and  O_2
REMARK    2  A    between atoms: O_2  and  C_3
REMARK    3  A    between atoms: C_6  and  C_7
REMARK    4  A    between atoms: C_7  and  C_8
REMARK    5  A    between atoms: C_7  and  N_9
REMARK    6  A    between atoms: N_9  and  C_10
REMARK    7  A    between atoms: C_13  and  C_14
REMARK    8  A    between atoms: C_14  and  O_16
REMARK    9  A    between atoms: C_18  and  N_19
REMARK                            x       y       z     vdW  Elec       q    Type
REMARK                         _______ _______ _______ _____ _____    ______ ____
ROOT
ATOM      1  C   UNL     1      44.971   4.269   9.336  0.00  0.00    +0.000 A 
ATOM      2  N   UNL     1      45.738   4.976   8.482  0.00  0.00    +0.000 NA
ATOM      3  C   UNL     1      46.496   4.288   7.593  0.00  0.00    +0.000 A 
ATOM      4  C   UNL     1      46.538   2.904   7.513  0.00  0.00    +0.000 A 
ATOM      5  C   UNL     1      45.785   2.172   8.432  0.00  0.00    +0.000 A 
ATOM      6  C   UNL     1      45.007   2.850   9.373  0.00  0.00    +0.000 A 
ENDROOT
BRANCH   6   7
ATOM      7  N   UNL     1      44.125   2.114  10.200  0.00  0.00    +0.000 N 
ATOM      8  H   UNL     1      44.472   1.989  11.145  0.00  0.00    +0.000 HD
ATOM      9  H   UNL     1      43.200   2.554  10.201  0.00  0.00    +0.000 HD
ENDBRANCH   6   7
BRANCH   1  10
ATOM     10  N   UNL     1      44.179   4.930  10.289  0.00  0.00    +0.000 N 
ATOM     11  H   UNL     1      43.809   5.798   9.887  0.00  0.00    +0.000 HD
BRANCH  10  12
ATOM     12  C   UNL     1      44.815   5.233  11.580  0.00  0.00    +0.000 C 
ATOM     13  C   UNL     1      44.008   4.568  12.700  0.00  0.00    +0.000 C 
BRANCH  12  17
ATOM     14  C   UNL     1      45.044   9.501  12.095  0.00  0.00    +0.000 A 
ATOM     15  C   UNL     1      45.800   8.672  12.915  0.00  0.00    +0.000 A 
ATOM     16  C   UNL     1      45.724   7.289  12.756  0.00  0.00    +0.000 A 
ATOM     17  C   UNL     1      44.881   6.754  11.782  0.00  0.00    +0.000 A 
ATOM     18  N   UNL     1      44.136   7.547  10.961  0.00  0.00    +0.000 NA
ATOM     19  C   UNL     1      44.234   8.888  11.146  0.00  0.00    +0.000 A 
BRANCH  14  21
ATOM     20  C   UNL     1      44.030  11.501  11.324  0.00  0.00    +0.000 C 
ATOM     21  O   UNL     1      45.020  10.865  12.126  0.00  0.00    +0.000 OA
ENDBRANCH  14  21
ENDBRANCH  12  17
ENDBRANCH  10  12
ENDBRANCH   1  10
BRANCH   4  22
ATOM     22  C   UNL     1      47.396   2.298   6.476  0.00  0.00    +0.000 C 
ATOM     23  O   UNL     1      47.952   1.223   6.633  0.00  0.00    +0.000 OA
BRANCH  22  24
ATOM     24  O   UNL     1      47.547   3.042   5.360  0.00  0.00    +0.000 OA
ATOM     25  H   UNL     1      48.250   3.714   5.384  0.00  0.00    +0.000 HD
ENDBRANCH  22  24
ENDBRANCH   4  22
TORSDOF 7
ENDMDL
MODEL 4
REMARK VINA RESULT:    -6.341      1.680      6.464
REMARK INTER + INTRA:          -9.514
REMARK INTER:                  -9.397
REMARK INTRA:                  -0.117
REMARK UNBOUND:                -0.949
REMARK  Name = 
REMARK  9 active torsions:
REMARK  status: ('A' for Active; 'I' for Inactive)
REMARK    1  A    between atoms: C_1  and  O_2
REMARK    2  A    between atoms: O_2  and  C_3
REMARK    3  A    between atoms: C_6  and  C_7
REMARK    4  A    between atoms: C_7  and  C_8
REMARK    5  A    between atoms: C_7  and  N_9
REMARK    6  A    between atoms: N_9  and  C_10
REMARK    7  A    between atoms: C_13  and  C_14
REMARK    8  A    between atoms: C_14  and  O_16
REMARK    9  A    between atoms: C_18  and  N_19
REMARK                            x       y       z     vdW  Elec       q    Type
REMARK                         _______ _______ _______ _____ _____    ______ ____
ROOT
ATOM      1  C   UNL     1      44.755   5.658  10.912  0.00  0.00    +0.000 A 
ATOM      2  N   UNL     1      46.051   5.858  10.599  0.00  0.00    +0.000 NA
ATOM      3  C   UNL     1      46.800   6.603  11.448  0.00  0.00    +0.000 A 
ATOM      4  C   UNL     1      46.315   7.179  12.612  0.00  0.00    +0.000 A 
ATOM      5  C   UNL     1      44.961   7.017  12.909  0.00  0.00    +0.000 A 
ATOM      6  C   UNL     1      44.157   6.269  12.045  0.00  0.00    +0.000 A 
ENDROOT
BRANCH   6   7
ATOM      7  N   UNL     1      42.826   5.972  12.423  0.00  0.00    +0.000 N 
ATOM      8  H   UNL     1      42.655   4.978  12.540  0.00  0.00    +0.000 HD
ATOM      9  H   UNL     1      42.579   6.491  13.271  0.00  0.00    +0.000 HD
ENDBRANCH   6   7
BRANCH   1  10
ATOM     10  N   UNL     1      43.929   4.908  10.058  0.00  0.00    +0.000 N 
ATOM     11  H   UNL     1      42.948   5.158  10.221  0.00  0.00    +0.000 HD
BRANCH  10  12
ATOM     12  C   UNL     1      44.069   3.446  10.122  0.00  0.00    +0.000 C 
ATOM     13  C   UNL     1      44.624   3.058  11.497  0.00  0.00    +0.000 C 
BRANCH  12  17
ATOM     14  C   UNL     1      46.739   2.112   7.019  0.00  0.00    +0.000 A 
ATOM     15  C   UNL     1      46.212   3.397   6.962  0.00  0.00    +0.000 A 
ATOM     16  C   UNL     1      45.341   3.831   7.961  0.00  0.00    +0.000 A 
ATOM     17  C   UNL     1      45.002   2.965   9.001  0.00  0.00    +0.000 A 
ATOM     18  N   UNL     1      45.513   1.704   9.083  0.00  0.00    +0.000 NA
ATOM     19  C   UNL     1      46.355   1.315   8.092  0.00  0.00    +0.000 A 
BRANCH  14  21
ATOM     20  C   UNL     1      48.041   2.386   5.057  0.00  0.00    +0.000 C 
ATOM     21  O   UNL     1      47.605   1.553   6.126  0.00  0.00    +0.000 OA
ENDBRANCH  14  21
ENDBRANCH  12  17
ENDBRANCH  10  12
ENDBRANCH   1  10
BRANCH   4  22
ATOM     22  C   UNL     1      47.259   7.947  13.449  0.00  0.00    +0.000 C 
ATOM     23  O   UNL     1      48.456   7.713  13.468  0.00  0.00    +0.000 OA
BRANCH  22  24
ATOM     24  O   UNL     1      46.689   8.898  14.218  0.00  0.00    +0.000 OA
ATOM     25  H   UNL     1      46.501   8.649  15.140  0.00  0.00    +0.000 HD
ENDBRANCH  22  24
ENDBRANCH   4  22
TORSDOF 7
ENDMDL
MODEL 5
REMARK VINA RESULT:    -6.103      1.584      6.381
REMARK INTER + INTRA:          -9.192
REMARK INTER:                  -8.648
REMARK INTRA:                  -0.544
REMARK UNBOUND:                -0.949
REMARK  Name = 
REMARK  9 active torsions:
REMARK  status: ('A' for Active; 'I' for Inactive)
REMARK    1  A    between atoms: C_1  and  O_2
REMARK    2  A    between atoms: O_2  and  C_3
REMARK    3  A    between atoms: C_6  and  C_7
REMARK    4  A    between atoms: C_7  and  C_8
REMARK    5  A    between atoms: C_7  and  N_9
REMARK    6  A    between atoms: N_9  and  C_10
REMARK    7  A    between atoms: C_13  and  C_14
REMARK    8  A    between atoms: C_14  and  O_16
REMARK    9  A    between atoms: C_18  and  N_19
REMARK                            x       y       z     vdW  Elec       q    Type
REMARK                         _______ _______ _______ _____ _____    ______ ____
ROOT
ATOM      1  C   UNL     1      46.197   5.535  12.567  0.00  0.00    +0.000 A 
ATOM      2  N   UNL     1      46.621   6.562  11.802  0.00  0.00    +0.000 NA
ATOM      3  C   UNL     1      47.719   7.244  12.210  0.00  0.00    +0.000 A 
ATOM      4  C   UNL     1      48.428   6.958  13.368  0.00  0.00    +0.000 A 
ATOM      5  C   UNL     1      47.958   5.930  14.186  0.00  0.00    +0.000 A 
ATOM      6  C   UNL     1      46.818   5.218  13.803  0.00  0.00    +0.000 A 
ENDROOT
BRANCH   6   7
ATOM      7  N   UNL     1      46.433   4.078  14.547  0.00  0.00    +0.000 N 
ATOM      8  H   UNL     1      46.385   3.232  13.989  0.00  0.00    +0.000 HD
ATOM      9  H   UNL     1      47.059   3.955  15.348  0.00  0.00    +0.000 HD
ENDBRANCH   6   7
BRANCH   1  10
ATOM     10  N   UNL     1      45.054   4.805  12.200  0.00  0.00    +0.000 N 
ATOM     11  H   UNL     1      45.262   3.801  12.231  0.00  0.00    +0.000 HD
BRANCH  10  12
ATOM     12  C   UNL     1      44.452   5.131  10.899  0.00  0.00    +0.000 C 
ATOM     13  C   UNL     1      42.934   4.946  10.993  0.00  0.00    +0.000 C 
BRANCH  12  17
ATOM     14  C   UNL     1      46.064   2.604   7.809  0.00  0.00    +0.000 A 
ATOM     15  C   UNL     1      45.383   2.029   8.876  0.00  0.00    +0.000 A 
ATOM     16  C   UNL     1      44.866   2.844   9.883  0.00  0.00    +0.000 A 
ATOM     17  C   UNL     1      45.047   4.226   9.811  0.00  0.00    +0.000 A 
ATOM     18  N   UNL     1      45.704   4.811   8.770  0.00  0.00    +0.000 NA
ATOM     19  C   UNL     1      46.196   3.988   7.811  0.00  0.00    +0.000 A 
BRANCH  14  21
ATOM     20  C   UNL     1      47.995   2.187   6.499  0.00  0.00    +0.000 C 
ATOM     21  O   UNL     1      46.616   1.942   6.751  0.00  0.00    +0.000 OA
ENDBRANCH  14  21
ENDBRANCH  12  17
ENDBRANCH  10  12
ENDBRANCH   1  10
BRANCH   4  22
ATOM     22  C   UNL     1      49.619   7.776  13.669  0.00  0.00    +0.000 C 
ATOM     23  O   UNL     1      49.746   8.920  13.263  0.00  0.00    +0.000 OA
BRANCH  22  24
ATOM     24  O   UNL     1      50.569   7.148  14.392  0.00  0.00    +0.000 OA
ATOM     25  H   UNL     1      51.425   7.010  13.950  0.00  0.00    +0.000 HD
ENDBRANCH  22  24
ENDBRANCH   4  22
TORSDOF 7
ENDMDL
MODEL 6
REMARK VINA RESULT:    -6.048      2.755      6.821
REMARK INTER + INTRA:          -9.119
REMARK INTER:                  -8.634
REMARK INTRA:                  -0.485
REMARK UNBOUND:                -0.949
REMARK  Name = 
REMARK  9 active torsions:
REMARK  status: ('A' for Active; 'I' for Inactive)
REMARK    1  A    between atoms: C_1  and  O_2
REMARK    2  A    between atoms: O_2  and  C_3
REMARK    3  A    between atoms: C_6  and  C_7
REMARK    4  A    between atoms: C_7  and  C_8
REMARK    5  A    between atoms: C_7  and  N_9
REMARK    6  A    between atoms: N_9  and  C_10
REMARK    7  A    between atoms: C_13  and  C_14
REMARK    8  A    between atoms: C_14  and  O_16
REMARK    9  A    between atoms: C_18  and  N_19
REMARK                            x       y       z     vdW  Elec       q    Type
REMARK                         _______ _______ _______ _____ _____    ______ ____
ROOT
ATOM      1  C   UNL     1      44.986   6.095  11.864  0.00  0.00    +0.000 A 
ATOM      2  N   UNL     1      44.168   6.775  11.035  0.00  0.00    +0.000 NA
ATOM      3  C   UNL     1      44.144   8.127  11.136  0.00  0.00    +0.000 A 
ATOM      4  C   UNL     1      44.902   8.852  12.043  0.00  0.00    +0.000 A 
ATOM      5  C   UNL     1      45.709   8.146  12.936  0.00  0.00    +0.000 A 
ATOM      6  C   UNL     1      45.742   6.751  12.870  0.00  0.00    +0.000 A 
ENDROOT
BRANCH   6   7
ATOM      7  N   UNL     1      46.675   6.044  13.666  0.00  0.00    +0.000 N 
ATOM      8  H   UNL     1      46.644   6.304  14.647  0.00  0.00    +0.000 HD
ATOM      9  H   UNL     1      46.542   5.036  13.547  0.00  0.00    +0.000 HD
ENDBRANCH   6   7
BRANCH   1  10
ATOM     10  N   UNL     1      45.037   4.692  11.814  0.00  0.00    +0.000 N 
ATOM     11  H   UNL     1      45.995   4.390  11.609  0.00  0.00    +0.000 HD
BRANCH  10  12
ATOM     12  C   UNL     1      44.114   4.032  10.879  0.00  0.00    +0.000 C 
ATOM     13  C   UNL     1      43.383   2.903  11.615  0.00  0.00    +0.000 C 
BRANCH  12  17
ATOM     14  C   UNL     1      46.367   2.486   7.552  0.00  0.00    +0.000 A 
ATOM     15  C   UNL     1      46.210   3.859   7.691  0.00  0.00    +0.000 A 
ATOM     16  C   UNL     1      45.475   4.364   8.764  0.00  0.00    +0.000 A 
ATOM     17  C   UNL     1      44.898   3.482   9.678  0.00  0.00    +0.000 A 
ATOM     18  N   UNL     1      45.045   2.132   9.565  0.00  0.00    +0.000 NA
ATOM     19  C   UNL     1      45.764   1.677   8.509  0.00  0.00    +0.000 A 
BRANCH  14  21
ATOM     20  C   UNL     1      47.348   2.608   5.397  0.00  0.00    +0.000 C 
ATOM     21  O   UNL     1      47.061   1.847   6.566  0.00  0.00    +0.000 OA
ENDBRANCH  14  21
ENDBRANCH  12  17
ENDBRANCH  10  12
ENDBRANCH   1  10
BRANCH   4  22
ATOM     22  C   UNL     1      44.786  10.325  12.018  0.00  0.00    +0.000 C 
ATOM     23  O   UNL     1      45.753  11.054  11.874  0.00  0.00    +0.000 OA
BRANCH  22  24
ATOM     24  O   UNL     1      43.536  10.796  12.207  0.00  0.00    +0.000 OA
ATOM     25  H   UNL     1      43.411  11.390  12.967  0.00  0.00    +0.000 HD
ENDBRANCH  22  24
ENDBRANCH   4  22
TORSDOF 7
ENDMDL
MODEL 7
REMARK VINA RESULT:    -5.970      1.494      5.759
REMARK INTER + INTRA:          -9.013
REMARK INTER:                  -9.120
REMARK INTRA:                   0.107
REMARK UNBOUND:                -0.949
REMARK  Name = 
REMARK  9 active torsions:
REMARK  status: ('A' for Active; 'I' for Inactive)
REMARK    1  A    between atoms: C_1  and  O_2
REMARK    2  A    between atoms: O_2  and  C_3
REMARK    3  A    between atoms: C_6  and  C_7
REMARK    4  A    between atoms: C_7  and  C_8
REMARK    5  A    between atoms: C_7  and  N_9
REMARK    6  A    between atoms: N_9  and  C_10
REMARK    7  A    between atoms: C_13  and  C_14
REMARK    8  A    between atoms: C_14  and  O_16
REMARK    9  A    between atoms: C_18  and  N_19
REMARK                            x       y       z     vdW  Elec       q    Type
REMARK                         _______ _______ _______ _____ _____    ______ ____
ROOT
ATOM      1  C   UNL     1      44.647   5.204  12.295  0.00  0.00    +0.000 A 
ATOM      2  N   UNL     1      45.049   4.463  13.348  0.00  0.00    +0.000 NA
ATOM      3  C   UNL     1      46.236   4.773  13.924  0.00  0.00    +0.000 A 
ATOM      4  C   UNL     1      47.067   5.797  13.493  0.00  0.00    +0.000 A 
ATOM      5  C   UNL     1      46.677   6.528  12.371  0.00  0.00    +0.000 A 
ATOM      6  C   UNL     1      45.467   6.223  11.743  0.00  0.00    +0.000 A 
ENDROOT
BRANCH   6   7
ATOM      7  N   UNL     1      44.996   7.062  10.705  0.00  0.00    +0.000 N 
ATOM      8  H   UNL     1      44.819   6.566   9.837  0.00  0.00    +0.000 HD
ATOM      9  H   UNL     1      44.162   7.569  11.017  0.00  0.00    +0.000 HD
ENDBRANCH   6   7
BRANCH   1  10
ATOM     10  N   UNL     1      43.434   4.915  11.649  0.00  0.00    +0.000 N 
ATOM     11  H   UNL     1      42.651   5.125  12.278  0.00  0.00    +0.000 HD
BRANCH  10  12
ATOM     12  C   UNL     1      43.275   3.552  11.122  0.00  0.00    +0.000 C 
ATOM     13  C   UNL     1      43.537   2.548  12.250  0.00  0.00    +0.000 C 
BRANCH  12  17
ATOM     14  C   UNL     1      45.953   2.921   7.811  0.00  0.00    +0.000 A 
ATOM     15  C   UNL     1      45.677   1.869   8.677  0.00  0.00    +0.000 A 
ATOM     16  C   UNL     1      44.815   2.071   9.755  0.00  0.00    +0.000 A 
ATOM     17  C   UNL     1      44.249   3.331   9.956  0.00  0.00    +0.000 A 
ATOM     18  N   UNL     1      44.499   4.373   9.115  0.00  0.00    +0.000 NA
ATOM     19  C   UNL     1      45.344   4.141   8.079  0.00  0.00    +0.000 A 
BRANCH  14  21
ATOM     20  C   UNL     1      47.900   2.019   6.801  0.00  0.00    +0.000 C 
ATOM     21  O   UNL     1      46.764   2.874   6.715  0.00  0.00    +0.000 OA
ENDBRANCH  14  21
ENDBRANCH  12  17
ENDBRANCH  10  12
ENDBRANCH   1  10
BRANCH   4  22
ATOM     22  C   UNL     1      48.321   6.029  14.238  0.00  0.00    +0.000 C 
ATOM     23  O   UNL     1      48.430   5.783  15.427  0.00  0.00    +0.000 OA
BRANCH  22  24
ATOM     24  O   UNL     1      49.319   6.569  13.508  0.00  0.00    +0.000 OA
ATOM     25  H   UNL     1      50.204   6.187  13.642  0.00  0.00    +0.000 HD
ENDBRANCH  22  24
ENDBRANCH   4  22
TORSDOF 7
ENDMDL
MODEL 8
REMARK VINA RESULT:    -5.806      1.690      6.306
REMARK INTER + INTRA:          -8.792
REMARK INTER:                  -8.638
REMARK INTRA:                  -0.154
REMARK UNBOUND:                -0.949
REMARK  Name = 
REMARK  9 active torsions:
REMARK  status: ('A' for Active; 'I' for Inactive)
REMARK    1  A    between atoms: C_1  and  O_2
REMARK    2  A    between atoms: O_2  and  C_3
REMARK    3  A    between atoms: C_6  and  C_7
REMARK    4  A    between atoms: C_7  and  C_8
REMARK    5  A    between atoms: C_7  and  N_9
REMARK    6  A    between atoms: N_9  and  C_10
REMARK    7  A    between atoms: C_13  and  C_14
REMARK    8  A    between atoms: C_14  and  O_16
REMARK    9  A    between atoms: C_18  and  N_19
REMARK                            x       y       z     vdW  Elec       q    Type
REMARK                         _______ _______ _______ _____ _____    ______ ____
ROOT
ATOM      1  C   UNL     1      45.351   6.973  11.772  0.00  0.00    +0.000 A 
ATOM      2  N   UNL     1      46.253   5.982  11.916  0.00  0.00    +0.000 NA
ATOM      3  C   UNL     1      47.275   6.177  12.786  0.00  0.00    +0.000 A 
ATOM      4  C   UNL     1      47.454   7.335  13.529  0.00  0.00    +0.000 A 
ATOM      5  C   UNL     1      46.550   8.380  13.340  0.00  0.00    +0.000 A 
ATOM      6  C   UNL     1      45.496   8.219  12.437  0.00  0.00    +0.000 A 
ENDROOT
BRANCH   6   7
ATOM      7  N   UNL     1      44.492   9.213  12.361  0.00  0.00    +0.000 N 
ATOM      8  H   UNL     1      44.277   9.493  11.409  0.00  0.00    +0.000 HD
ATOM      9  H   UNL     1      43.651   8.899  12.852  0.00  0.00    +0.000 HD
ENDBRANCH   6   7
BRANCH   1  10
ATOM     10  N   UNL     1      44.283   6.831  10.871  0.00  0.00    +0.000 N 
ATOM     11  H   UNL     1      43.724   7.691  10.860  0.00  0.00    +0.000 HD
BRANCH  10  12
ATOM     12  C   UNL     1      43.391   5.681  11.081  0.00  0.00    +0.000 C 
ATOM     13  C   UNL     1      43.264   5.418  12.585  0.00  0.00    +0.000 C 
BRANCH  12  17
ATOM     14  C   UNL     1      45.027   2.234   9.087  0.00  0.00    +0.000 A 
ATOM     15  C   UNL     1      45.087   3.475   8.465  0.00  0.00    +0.000 A 
ATOM     16  C   UNL     1      44.552   4.594   9.105  0.00  0.00    +0.000 A 
ATOM     17  C   UNL     1      43.954   4.449  10.357  0.00  0.00    +0.000 A 
ATOM     18  N   UNL     1      43.891   3.244  10.989  0.00  0.00    +0.000 NA
ATOM     19  C   UNL     1      44.419   2.178  10.336  0.00  0.00    +0.000 A 
BRANCH  14  21
ATOM     20  C   UNL     1      46.666   1.145   7.764  0.00  0.00    +0.000 C 
ATOM     21  O   UNL     1      45.512   1.058   8.593  0.00  0.00    +0.000 OA
ENDBRANCH  14  21
ENDBRANCH  12  17
ENDBRANCH  10  12
ENDBRANCH   1  10
BRANCH   4  22
ATOM     22  C   UNL     1      48.604   7.391  14.454  0.00  0.00    +0.000 C 
ATOM     23  O   UNL     1      48.546   7.953  15.535  0.00  0.00    +0.000 OA
BRANCH  22  24
ATOM     24  O   UNL     1      49.729   6.807  13.993  0.00  0.00    +0.000 OA
ATOM     25  H   UNL     1      49.721   6.536  13.058  0.00  0.00    +0.000 HD
ENDBRANCH  22  24
ENDBRANCH   4  22
TORSDOF 7
ENDMDL
MODEL 9
REMARK VINA RESULT:    -5.426      4.092      6.204
REMARK INTER + INTRA:          -8.278
REMARK INTER:                  -7.460
REMARK INTRA:                  -0.818
REMARK UNBOUND:                -0.949
REMARK  Name = 
REMARK  9 active torsions:
REMARK  status: ('A' for Active; 'I' for Inactive)
REMARK    1  A    between atoms: C_1  and  O_2
REMARK    2  A    between atoms: O_2  and  C_3
REMARK    3  A    between atoms: C_6  and  C_7
REMARK    4  A    between atoms: C_7  and  C_8
REMARK    5  A    between atoms: C_7  and  N_9
REMARK    6  A    between atoms: N_9  and  C_10
REMARK    7  A    between atoms: C_13  and  C_14
REMARK    8  A    between atoms: C_14  and  O_16
REMARK    9  A    between atoms: C_18  and  N_19
REMARK                            x       y       z     vdW  Elec       q    Type
REMARK                         _______ _______ _______ _____ _____    ______ ____
ROOT
ATOM      1  C   UNL     1      46.843   5.612  13.105  0.00  0.00    +0.000 A 
ATOM      2  N   UNL     1      46.116   6.560  12.481  0.00  0.00    +0.000 NA
ATOM      3  C   UNL     1      44.867   6.230  12.069  0.00  0.00    +0.000 A 
ATOM      4  C   UNL     1      44.295   4.979  12.241  0.00  0.00    +0.000 A 
ATOM      5  C   UNL     1      45.068   3.983  12.840  0.00  0.00    +0.000 A 
ATOM      6  C   UNL     1      46.366   4.284  13.260  0.00  0.00    +0.000 A 
ENDROOT
BRANCH   6   7
ATOM      7  N   UNL     1      47.092   3.325  14.005  0.00  0.00    +0.000 N 
ATOM      8  H   UNL     1      48.082   3.309  13.782  0.00  0.00    +0.000 HD
ATOM      9  H   UNL     1      46.943   3.476  15.007  0.00  0.00    +0.000 HD
ENDBRANCH   6   7
BRANCH   1  10
ATOM     10  N   UNL     1      48.150   5.895  13.537  0.00  0.00    +0.000 N 
ATOM     11  H   UNL     1      48.584   5.041  13.904  0.00  0.00    +0.000 HD
BRANCH  10  12
ATOM     12  C   UNL     1      48.300   6.972  14.526  0.00  0.00    +0.000 C 
ATOM     13  C   UNL     1      49.332   7.981  14.012  0.00  0.00    +0.000 C 
BRANCH  12  17
ATOM     14  C   UNL     1      49.465   5.313  18.324  0.00  0.00    +0.000 A 
ATOM     15  C   UNL     1      49.515   6.688  18.136  0.00  0.00    +0.000 A 
ATOM     16  C   UNL     1      49.145   7.230  16.904  0.00  0.00    +0.000 A 
ATOM     17  C   UNL     1      48.739   6.381  15.874  0.00  0.00    +0.000 A 
ATOM     18  N   UNL     1      48.674   5.030  16.040  0.00  0.00    +0.000 NA
ATOM     19  C   UNL     1      49.043   4.538  17.249  0.00  0.00    +0.000 A 
BRANCH  14  21
ATOM     20  C   UNL     1      48.776   4.575  20.470  0.00  0.00    +0.000 C 
ATOM     21  O   UNL     1      49.786   4.641  19.468  0.00  0.00    +0.000 OA
ENDBRANCH  14  21
ENDBRANCH  12  17
ENDBRANCH  10  12
ENDBRANCH   1  10
BRANCH   4  22
ATOM     22  C   UNL     1      42.914   4.777  11.759  0.00  0.00    +0.000 C 
ATOM     23  O   UNL     1      42.087   5.673  11.751  0.00  0.00    +0.000 OA
BRANCH  22  24
ATOM     24  O   UNL     1      42.632   3.517  11.366  0.00  0.00    +0.000 OA
ATOM     25  H   UNL     1      43.329   3.055  10.870  0.00  0.00    +0.000 HD
ENDBRANCH  22  24
ENDBRANCH   4  22
TORSDOF 7
ENDMDL
