MODEL 1
REMARK VINA RESULT:    -6.878      0.000      0.000
REMARK INTER + INTRA:         -10.269
REMARK INTER:                  -9.491
REMARK INTRA:                  -0.778
REMARK UNBOUND:                -0.778
REMARK  Name = 
REMARK  10 active torsions:
REMARK  status: ('A' for Active; 'I' for Inactive)
REMARK    1  A    between atoms: C_1  and  O_2
REMARK    2  A    between atoms: O_2  and  C_3
REMARK    3  A    between atoms: C_5  and  C_6
REMARK    4  A    between atoms: C_6  and  N_7
REMARK    5  A    between atoms: C_13  and  C_14
REMARK    6  A    between atoms: C_14  and  O_16
REMARK    7  A    between atoms: C_20  and  O_21
REMARK    8  A    between atoms: O_21  and  C_22
REMARK    9  A    between atoms: C_23  and  O_24
REMARK   10  A    between atoms: O_24  and  C_25
REMARK                            x       y       z     vdW  Elec       q    Type
REMARK                         _______ _______ _______ _____ _____    ______ ____
ROOT
ATOM      1  C   UNL     1      44.846   6.511  11.271  0.00  0.00    +0.000 C 
ENDROOT
BRANCH   1   2
ATOM      2  N   UNL     1      44.430   5.110  11.225  0.00  0.00    +0.000 N 
ATOM      3  C   UNL     1      43.534   4.543  12.104  0.00  0.00    +0.000 A 
ATOM      4  C   UNL     1      43.270   3.259  11.678  0.00  0.00    +0.000 A 
ATOM      5  C   UNL     1      44.021   3.041  10.502  0.00  0.00    +0.000 A 
ATOM      6  N   UNL     1      44.048   1.943   9.707  0.00  0.00    +0.000 NA
ATOM      7  C   UNL     1      44.840   2.048   8.615  0.00  0.00    +0.000 A 
ATOM      8  C   UNL     1      45.644   3.135   8.302  0.00  0.00    +0.000 A 
ATOM      9  C   UNL     1      45.610   4.261   9.134  0.00  0.00    +0.000 A 
ATOM     10  C   UNL     1      44.761   4.196  10.243  0.00  0.00    +0.000 A 
BRANCH   8  11
ATOM     11  C   UNL     1      46.470   3.194   7.078  0.00  0.00    +0.000 C 
ATOM     12  O   UNL     1      46.773   2.189   6.456  0.00  0.00    +0.000 OA
BRANCH  11  13
ATOM     13  O   UNL     1      46.838   4.430   6.684  0.00  0.00    +0.000 OA
ATOM     14  H   UNL     1      47.722   4.527   6.293  0.00  0.00    +0.000 HD
ENDBRANCH  11  13
ENDBRANCH   8  11
ENDBRANCH   1   2
BRANCH   1  17
ATOM     15  C   UNL     1      48.395   7.658  12.117  0.00  0.00    +0.000 A 
ATOM     16  C   UNL     1      47.144   7.535  11.494  0.00  0.00    +0.000 A 
ATOM     17  C   UNL     1      46.154   6.680  11.999  0.00  0.00    +0.000 A 
ATOM     18  C   UNL     1      46.416   5.962  13.172  0.00  0.00    +0.000 A 
ATOM     19  C   UNL     1      47.650   6.082  13.819  0.00  0.00    +0.000 A 
ATOM     20  C   UNL     1      48.642   6.947  13.308  0.00  0.00    +0.000 A 
BRANCH  15  22
ATOM     21  C   UNL     1      49.307   9.836  11.714  0.00  0.00    +0.000 C 
ATOM     22  O   UNL     1      49.408   8.422  11.598  0.00  0.00    +0.000 OA
ENDBRANCH  15  22
BRANCH  19  23
ATOM     23  O   UNL     1      47.943   5.422  14.990  0.00  0.00    +0.000 OA
ATOM     24  C   UNL     1      47.130   4.292  15.286  0.00  0.00    +0.000 C 
ENDBRANCH  19  23
BRANCH  20  25
ATOM     25  O   UNL     1      49.828   6.941  14.009  0.00  0.00    +0.000 OA
ATOM     26  C   UNL     1      50.032   7.981  14.954  0.00  0.00    +0.000 C 
ENDBRANCH  20  25
ENDBRANCH   1  17
TORSDOF 7
ENDMDL
MODEL 2
REMARK VINA RESULT:    -6.731      0.623      2.649
REMARK INTER + INTRA:         -10.068
REMARK INTER:                  -9.363
REMARK INTRA:                  -0.705
REMARK UNBOUND:                -0.778
REMARK  Name = 
REMARK  10 active torsions:
REMARK  status: ('A' for Active; 'I' for Inactive)
REMARK    1  A    between atoms: C_1  and  O_2
REMARK    2  A    between atoms: O_2  and  C_3
REMARK    3  A    between atoms: C_5  and  C_6
REMARK    4  A    between atoms: C_6  and  N_7
REMARK    5  A    between atoms: C_13  and  C_14
REMARK    6  A    between atoms: C_14  and  O_16
REMARK    7  A    between atoms: C_20  and  O_21
REMARK    8  A    between atoms: O_21  and  C_22
REMARK    9  A    between atoms: C_23  and  O_24
REMARK   10  A    between atoms: O_24  and  C_25
REMARK                            x       y       z     vdW  Elec       q    Type
REMARK                         _______ _______ _______ _____ _____    ______ ____
ROOT
ATOM      1  C   UNL     1      44.874   7.030  11.557  0.00  0.00    +0.000 C 
ENDROOT
BRANCH   1   2
ATOM      2  N   UNL     1      44.381   5.654  11.497  0.00  0.00    +0.000 N 
ATOM      3  C   UNL     1      43.454   5.129  12.369  0.00  0.00    +0.000 A 
ATOM      4  C   UNL     1      43.120   3.865  11.932  0.00  0.00    +0.000 A 
ATOM      5  C   UNL     1      43.860   3.618  10.754  0.00  0.00    +0.000 A 
ATOM      6  N   UNL     1      43.827   2.527   9.948  0.00  0.00    +0.000 NA
ATOM      7  C   UNL     1      44.626   2.599   8.859  0.00  0.00    +0.000 A 
ATOM      8  C   UNL     1      45.489   3.643   8.557  0.00  0.00    +0.000 A 
ATOM      9  C   UNL     1      45.516   4.761   9.399  0.00  0.00    +0.000 A 
ATOM     10  C   UNL     1      44.662   4.733  10.507  0.00  0.00    +0.000 A 
BRANCH   8  11
ATOM     11  C   UNL     1      46.319   3.668   7.334  0.00  0.00    +0.000 C 
ATOM     12  O   UNL     1      46.180   2.846   6.444  0.00  0.00    +0.000 OA
BRANCH  11  13
ATOM     13  O   UNL     1      47.215   4.672   7.260  0.00  0.00    +0.000 OA
ATOM     14  H   UNL     1      47.731   4.867   8.060  0.00  0.00    +0.000 HD
ENDBRANCH  11  13
ENDBRANCH   8  11
ENDBRANCH   1   2
BRANCH   1  17
ATOM     15  C   UNL     1      47.829   6.240  13.852  0.00  0.00    +0.000 A 
ATOM     16  C   UNL     1      46.607   6.150  13.171  0.00  0.00    +0.000 A 
ATOM     17  C   UNL     1      46.223   7.109  12.223  0.00  0.00    +0.000 A 
ATOM     18  C   UNL     1      47.102   8.158  11.930  0.00  0.00    +0.000 A 
ATOM     19  C   UNL     1      48.334   8.258  12.585  0.00  0.00    +0.000 A 
ATOM     20  C   UNL     1      48.716   7.288  13.536  0.00  0.00    +0.000 A 
BRANCH  15  22
ATOM     21  C   UNL     1      47.240   4.388  15.252  0.00  0.00    +0.000 C 
ATOM     22  O   UNL     1      48.190   5.364  14.843  0.00  0.00    +0.000 OA
ENDBRANCH  15  22
BRANCH  19  23
ATOM     23  O   UNL     1      49.245   9.253  12.309  0.00  0.00    +0.000 OA
ATOM     24  C   UNL     1      48.847  10.203  11.327  0.00  0.00    +0.000 C 
ENDBRANCH  19  23
BRANCH  20  25
ATOM     25  O   UNL     1      49.930   7.524  14.143  0.00  0.00    +0.000 OA
ATOM     26  C   UNL     1      49.912   8.148  15.418  0.00  0.00    +0.000 C 
ENDBRANCH  20  25
ENDBRANCH   1  17
TORSDOF 7
ENDMDL
MODEL 3
REMARK VINA RESULT:    -6.089      2.996      4.948
REMARK INTER + INTRA:          -9.182
REMARK INTER:                  -8.401
REMARK INTRA:                  -0.781
REMARK UNBOUND:                -0.778
REMARK  Name = 
REMARK  10 active torsions:
REMARK  status: ('A' for Active; 'I' for Inactive)
REMARK    1  A    between atoms: C_1  and  O_2
REMARK    2  A    between atoms: O_2  and  C_3
REMARK    3  A    between atoms: C_5  and  C_6
REMARK    4  A    between atoms: C_6  and  N_7
REMARK    5  A    between atoms: C_13  and  C_14
REMARK    6  A    between atoms: C_14  and  O_16
REMARK    7  A    between atoms: C_20  and  O_21
REMARK    8  A    between atoms: O_21  and  C_22
REMARK    9  A    between atoms: C_23  and  O_24
REMARK   10  A    between atoms: O_24  and  C_25
REMARK                            x       y       z     vdW  Elec       q    Type
REMARK                         _______ _______ _______ _____ _____    ______ ____
ROOT
ATOM      1  C   UNL     1      47.914   6.124  12.971  0.00  0.00    +0.000 C 
ENDROOT
BRANCH   1   2
ATOM      2  N   UNL     1      46.616   6.695  12.614  0.00  0.00    +0.000 N 
ATOM      3  C   UNL     1      46.369   8.046  12.517  0.00  0.00    +0.000 A 
ATOM      4  C   UNL     1      45.092   8.214  12.025  0.00  0.00    +0.000 A 
ATOM      5  C   UNL     1      44.550   6.928  11.809  0.00  0.00    +0.000 A 
ATOM      6  N   UNL     1      43.340   6.595  11.293  0.00  0.00    +0.000 NA
ATOM      7  C   UNL     1      43.120   5.266  11.168  0.00  0.00    +0.000 A 
ATOM      8  C   UNL     1      43.985   4.262  11.575  0.00  0.00    +0.000 A 
ATOM      9  C   UNL     1      45.229   4.618  12.111  0.00  0.00    +0.000 A 
ATOM     10  C   UNL     1      45.502   5.987  12.205  0.00  0.00    +0.000 A 
BRANCH   8  11
ATOM     11  C   UNL     1      43.691   2.825  11.388  0.00  0.00    +0.000 C 
ATOM     12  O   UNL     1      43.699   2.305  10.285  0.00  0.00    +0.000 OA
BRANCH  11  13
ATOM     13  O   UNL     1      43.442   2.131  12.516  0.00  0.00    +0.000 OA
ATOM     14  H   UNL     1      44.078   2.226  13.245  0.00  0.00    +0.000 HD
ENDBRANCH  11  13
ENDBRANCH   8  11
ENDBRANCH   1   2
BRANCH   1  17
ATOM     15  C   UNL     1      47.426   4.669  16.474  0.00  0.00    +0.000 A 
ATOM     16  C   UNL     1      47.379   4.847  15.084  0.00  0.00    +0.000 A 
ATOM     17  C   UNL     1      48.040   5.913  14.458  0.00  0.00    +0.000 A 
ATOM     18  C   UNL     1      48.792   6.795  15.242  0.00  0.00    +0.000 A 
ATOM     19  C   UNL     1      48.868   6.627  16.629  0.00  0.00    +0.000 A 
ATOM     20  C   UNL     1      48.202   5.550  17.253  0.00  0.00    +0.000 A 
BRANCH  15  22
ATOM     21  C   UNL     1      47.438   2.559  17.607  0.00  0.00    +0.000 C 
ATOM     22  O   UNL     1      46.721   3.686  17.118  0.00  0.00    +0.000 OA
ENDBRANCH  15  22
BRANCH  19  23
ATOM     23  O   UNL     1      49.619   7.449  17.438  0.00  0.00    +0.000 OA
ATOM     24  C   UNL     1      49.202   8.808  17.499  0.00  0.00    +0.000 C 
ENDBRANCH  19  23
BRANCH  20  25
ATOM     25  O   UNL     1      48.316   5.521  18.625  0.00  0.00    +0.000 OA
ATOM     26  C   UNL     1      47.253   6.082  19.380  0.00  0.00    +0.000 C 
ENDBRANCH  20  25
ENDBRANCH   1  17
TORSDOF 7
ENDMDL
MODEL 4
REMARK VINA RESULT:    -5.892      2.513      6.875
REMARK INTER + INTRA:          -8.909
REMARK INTER:                  -8.067
REMARK INTRA:                  -0.842
REMARK UNBOUND:                -0.778
REMARK  Name = 
REMARK  10 active torsions:
REMARK  status: ('A' for Active; 'I' for Inactive)
REMARK    1  A    between atoms: C_1  and  O_2
REMARK    2  A    between atoms: O_2  and  C_3
REMARK    3  A    between atoms: C_5  and  C_6
REMARK    4  A    between atoms: C_6  and  N_7
REMARK    5  A    between atoms: C_13  and  C_14
REMARK    6  A    between atoms: C_14  and  O_16
REMARK    7  A    between atoms: C_20  and  O_21
REMARK    8  A    between atoms: O_21  and  C_22
REMARK    9  A    between atoms: C_23  and  O_24
REMARK   10  A    between atoms: O_24  and  C_25
REMARK                            x       y       z     vdW  Elec       q    Type
REMARK                         _______ _______ _______ _____ _____    ______ ____
ROOT
ATOM      1  C   UNL     1      45.404   7.012  11.676  0.00  0.00    +0.000 C 
ENDROOT
BRANCH   1   2
ATOM      2  N   UNL     1      46.795   7.142  12.108  0.00  0.00    +0.000 N 
ATOM      3  C   UNL     1      47.710   7.983  11.516  0.00  0.00    +0.000 A 
ATOM      4  C   UNL     1      48.867   7.954  12.265  0.00  0.00    +0.000 A 
ATOM      5  C   UNL     1      48.647   7.075  13.348  0.00  0.00    +0.000 A 
ATOM      6  N   UNL     1      49.483   6.766  14.370  0.00  0.00    +0.000 NA
ATOM      7  C   UNL     1      48.969   5.917  15.291  0.00  0.00    +0.000 A 
ATOM      8  C   UNL     1      47.720   5.316  15.227  0.00  0.00    +0.000 A 
ATOM      9  C   UNL     1      46.869   5.640  14.164  0.00  0.00    +0.000 A 
ATOM     10  C   UNL     1      47.357   6.555  13.225  0.00  0.00    +0.000 A 
BRANCH   8  11
ATOM     11  C   UNL     1      47.211   4.414  16.281  0.00  0.00    +0.000 C 
ATOM     12  O   UNL     1      47.141   3.207  16.117  0.00  0.00    +0.000 OA
BRANCH  11  13
ATOM     13  O   UNL     1      46.860   5.010  17.438  0.00  0.00    +0.000 OA
ATOM     14  H   UNL     1      46.885   4.467  18.243  0.00  0.00    +0.000 HD
ENDBRANCH  11  13
ENDBRANCH   8  11
ENDBRANCH   1   2
BRANCH   1  17
ATOM     15  C   UNL     1      45.482   4.533   8.764  0.00  0.00    +0.000 A 
ATOM     16  C   UNL     1      45.724   5.656   9.568  0.00  0.00    +0.000 A 
ATOM     17  C   UNL     1      45.189   5.763  10.859  0.00  0.00    +0.000 A 
ATOM     18  C   UNL     1      44.425   4.704  11.364  0.00  0.00    +0.000 A 
ATOM     19  C   UNL     1      44.185   3.567  10.586  0.00  0.00    +0.000 A 
ATOM     20  C   UNL     1      44.729   3.463   9.287  0.00  0.00    +0.000 A 
BRANCH  15  22
ATOM     21  C   UNL     1      47.203   3.865   7.237  0.00  0.00    +0.000 C 
ATOM     22  O   UNL     1      45.924   4.441   7.469  0.00  0.00    +0.000 OA
ENDBRANCH  15  22
BRANCH  19  23
ATOM     23  O   UNL     1      43.467   2.487  11.048  0.00  0.00    +0.000 OA
ATOM     24  C   UNL     1      43.422   2.332  12.462  0.00  0.00    +0.000 C 
ENDBRANCH  19  23
BRANCH  20  25
ATOM     25  O   UNL     1      44.382   2.317   8.608  0.00  0.00    +0.000 OA
ATOM     26  C   UNL     1      45.320   1.251   8.604  0.00  0.00    +0.000 C 
ENDBRANCH  20  25
ENDBRANCH   1  17
TORSDOF 7
ENDMDL
MODEL 5
REMARK VINA RESULT:    -5.822      3.005      4.466
REMARK INTER + INTRA:          -8.812
REMARK INTER:                  -8.029
REMARK INTRA:                  -0.784
REMARK UNBOUND:                -0.778
REMARK  Name = 
REMARK  10 active torsions:
REMARK  status: ('A' for Active; 'I' for Inactive)
REMARK    1  A    between atoms: C_1  and  O_2
REMARK    2  A    between atoms: O_2  and  C_3
REMARK    3  A    between atoms: C_5  and  C_6
REMARK    4  A    between atoms: C_6  and  N_7
REMARK    5  A    between atoms: C_13  and  C_14
REMARK    6  A    between atoms: C_14  and  O_16
REMARK    7  A    between atoms: C_20  and  O_21
REMARK    8  A    between atoms: O_21  and  C_22
REMARK    9  A    between atoms: C_23  and  O_24
REMARK   10  A    between atoms: O_24  and  C_25
REMARK                            x       y       z     vdW  Elec       q    Type
REMARK                         _______ _______ _______ _____ _____    ______ ____
ROOT
ATOM      1  C   UNL     1      47.932   6.119  13.152  0.00  0.00    +0.000 C 
ENDROOT
BRANCH   1   2
ATOM      2  N   UNL     1      46.654   6.704  12.748  0.00  0.00    +0.000 N 
ATOM      3  C   UNL     1      46.426   8.058  12.644  0.00  0.00    +0.000 A 
ATOM      4  C   UNL     1      45.170   8.242  12.106  0.00  0.00    +0.000 A 
ATOM      5  C   UNL     1      44.621   6.962  11.870  0.00  0.00    +0.000 A 
ATOM      6  N   UNL     1      43.428   6.644  11.309  0.00  0.00    +0.000 NA
ATOM      7  C   UNL     1      43.197   5.317  11.174  0.00  0.00    +0.000 A 
ATOM      8  C   UNL     1      44.036   4.302  11.611  0.00  0.00    +0.000 A 
ATOM      9  C   UNL     1      45.263   4.644  12.192  0.00  0.00    +0.000 A 
ATOM     10  C   UNL     1      45.548   6.010  12.298  0.00  0.00    +0.000 A 
BRANCH   8  11
ATOM     11  C   UNL     1      43.732   2.870  11.411  0.00  0.00    +0.000 C 
ATOM     12  O   UNL     1      43.746   2.357  10.305  0.00  0.00    +0.000 OA
BRANCH  11  13
ATOM     13  O   UNL     1      43.468   2.169  12.532  0.00  0.00    +0.000 OA
ATOM     14  H   UNL     1      42.533   2.048  12.770  0.00  0.00    +0.000 HD
ENDBRANCH  11  13
ENDBRANCH   8  11
ENDBRANCH   1   2
BRANCH   1  17
ATOM     15  C   UNL     1      48.989   6.779  16.767  0.00  0.00    +0.000 A 
ATOM     16  C   UNL     1      48.818   6.909  15.381  0.00  0.00    +0.000 A 
ATOM     17  C   UNL     1      48.042   5.999  14.650  0.00  0.00    +0.000 A 
ATOM     18  C   UNL     1      47.397   4.960  15.332  0.00  0.00    +0.000 A 
ATOM     19  C   UNL     1      47.540   4.821  16.716  0.00  0.00    +0.000 A 
ATOM     20  C   UNL     1      48.321   5.742  17.448  0.00  0.00    +0.000 A 
BRANCH  15  22
ATOM     21  C   UNL     1      49.770   8.999  17.214  0.00  0.00    +0.000 C 
ATOM     22  O   UNL     1      49.810   7.605  17.491  0.00  0.00    +0.000 OA
ENDBRANCH  15  22
BRANCH  19  23
ATOM     23  O   UNL     1      46.903   3.836  17.435  0.00  0.00    +0.000 OA
ATOM     24  C   UNL     1      47.546   2.567  17.454  0.00  0.00    +0.000 C 
ENDBRANCH  19  23
BRANCH  20  25
ATOM     25  O   UNL     1      48.420   5.470  18.794  0.00  0.00    +0.000 OA
ATOM     26  C   UNL     1      47.650   6.268  19.680  0.00  0.00    +0.000 C 
ENDBRANCH  20  25
ENDBRANCH   1  17
TORSDOF 7
ENDMDL
MODEL 6
REMARK VINA RESULT:    -5.729      3.466      7.390
REMARK INTER + INTRA:          -8.685
REMARK INTER:                  -7.929
REMARK INTRA:                  -0.756
REMARK UNBOUND:                -0.778
REMARK  Name = 
REMARK  10 active torsions:
REMARK  status: ('A' for Active; 'I' for Inactive)
REMARK    1  A    between atoms: C_1  and  O_2
REMARK    2  A    between atoms: O_2  and  C_3
REMARK    3  A    between atoms: C_5  and  C_6
REMARK    4  A    between atoms: C_6  and  N_7
REMARK    5  A    between atoms: C_13  and  C_14
REMARK    6  A    between atoms: C_14  and  O_16
REMARK    7  A    between atoms: C_20  and  O_21
REMARK    8  A    between atoms: O_21  and  C_22
REMARK    9  A    between atoms: C_23  and  O_24
REMARK   10  A    between atoms: O_24  and  C_25
REMARK                            x       y       z     vdW  Elec       q    Type
REMARK                         _______ _______ _______ _____ _____    ______ ____
ROOT
ATOM      1  C   UNL     1      48.697   6.837  13.054  0.00  0.00    +0.000 C 
ENDROOT
BRANCH   1   2
ATOM      2  N   UNL     1      48.754   7.236  14.460  0.00  0.00    +0.000 N 
ATOM      3  C   UNL     1      48.917   8.535  14.886  0.00  0.00    +0.000 A 
ATOM      4  C   UNL     1      48.781   8.557  16.258  0.00  0.00    +0.000 A 
ATOM      5  C   UNL     1      48.520   7.234  16.677  0.00  0.00    +0.000 A 
ATOM      6  N   UNL     1      48.272   6.778  17.930  0.00  0.00    +0.000 NA
ATOM      7  C   UNL     1      48.013   5.452  18.013  0.00  0.00    +0.000 A 
ATOM      8  C   UNL     1      48.046   4.554  16.956  0.00  0.00    +0.000 A 
ATOM      9  C   UNL     1      48.309   5.038  15.668  0.00  0.00    +0.000 A 
ATOM     10  C   UNL     1      48.531   6.414  15.548  0.00  0.00    +0.000 A 
BRANCH   8  11
ATOM     11  C   UNL     1      47.730   3.119  17.113  0.00  0.00    +0.000 C 
ATOM     12  O   UNL     1      48.508   2.247  16.766  0.00  0.00    +0.000 OA
BRANCH  11  13
ATOM     13  O   UNL     1      46.543   2.845  17.689  0.00  0.00    +0.000 OA
ATOM     14  H   UNL     1      45.902   2.334  17.165  0.00  0.00    +0.000 HD
ENDBRANCH  11  13
ENDBRANCH   8  11
ENDBRANCH   1   2
BRANCH   1  17
ATOM     15  C   UNL     1      45.455   5.104  12.000  0.00  0.00    +0.000 A 
ATOM     16  C   UNL     1      46.749   5.331  12.491  0.00  0.00    +0.000 A 
ATOM     17  C   UNL     1      47.279   6.625  12.592  0.00  0.00    +0.000 A 
ATOM     18  C   UNL     1      46.478   7.713  12.227  0.00  0.00    +0.000 A 
ATOM     19  C   UNL     1      45.178   7.511  11.751  0.00  0.00    +0.000 A 
ATOM     20  C   UNL     1      44.649   6.206  11.654  0.00  0.00    +0.000 A 
BRANCH  15  22
ATOM     21  C   UNL     1      44.955   3.308  10.495  0.00  0.00    +0.000 C 
ATOM     22  O   UNL     1      44.946   3.845  11.812  0.00  0.00    +0.000 OA
ENDBRANCH  15  22
BRANCH  19  23
ATOM     23  O   UNL     1      44.341   8.549  11.409  0.00  0.00    +0.000 OA
ATOM     24  C   UNL     1      44.802   9.853  11.744  0.00  0.00    +0.000 C 
ENDBRANCH  19  23
BRANCH  20  25
ATOM     25  O   UNL     1      43.378   6.138  11.129  0.00  0.00    +0.000 OA
ATOM     26  C   UNL     1      42.353   5.622  11.965  0.00  0.00    +0.000 C 
ENDBRANCH  20  25
ENDBRANCH   1  17
TORSDOF 7
ENDMDL
MODEL 7
REMARK VINA RESULT:    -5.711      4.049      7.508
REMARK INTER + INTRA:          -8.660
REMARK INTER:                  -7.983
REMARK INTRA:                  -0.677
REMARK UNBOUND:                -0.778
REMARK  Name = 
REMARK  10 active torsions:
REMARK  status: ('A' for Active; 'I' for Inactive)
REMARK    1  A    between atoms: C_1  and  O_2
REMARK    2  A    between atoms: O_2  and  C_3
REMARK    3  A    between atoms: C_5  and  C_6
REMARK    4  A    between atoms: C_6  and  N_7
REMARK    5  A    between atoms: C_13  and  C_14
REMARK    6  A    between atoms: C_14  and  O_16
REMARK    7  A    between atoms: C_20  and  O_21
REMARK    8  A    between atoms: O_21  and  C_22
REMARK    9  A    between atoms: C_23  and  O_24
REMARK   10  A    between atoms: O_24  and  C_25
REMARK                            x       y       z     vdW  Elec       q    Type
REMARK                         _______ _______ _______ _____ _____    ______ ____
ROOT
ATOM      1  C   UNL     1      48.923   6.837  13.815  0.00  0.00    +0.000 C 
ENDROOT
BRANCH   1   2
ATOM      2  N   UNL     1      48.982   7.344  15.185  0.00  0.00    +0.000 N 
ATOM      3  C   UNL     1      49.217   8.661  15.509  0.00  0.00    +0.000 A 
ATOM      4  C   UNL     1      49.061   8.802  16.872  0.00  0.00    +0.000 A 
ATOM      5  C   UNL     1      48.714   7.535  17.390  0.00  0.00    +0.000 A 
ATOM      6  N   UNL     1      48.419   7.197  18.670  0.00  0.00    +0.000 NA
ATOM      7  C   UNL     1      48.078   5.900  18.853  0.00  0.00    +0.000 A 
ATOM      8  C   UNL     1      48.073   4.920  17.871  0.00  0.00    +0.000 A 
ATOM      9  C   UNL     1      48.385   5.281  16.555  0.00  0.00    +0.000 A 
ATOM     10  C   UNL     1      48.692   6.627  16.330  0.00  0.00    +0.000 A 
BRANCH   8  11
ATOM     11  C   UNL     1      47.668   3.523  18.135  0.00  0.00    +0.000 C 
ATOM     12  O   UNL     1      46.843   2.950  17.443  0.00  0.00    +0.000 OA
BRANCH  11  13
ATOM     13  O   UNL     1      48.289   2.923  19.170  0.00  0.00    +0.000 OA
ATOM     14  H   UNL     1      48.952   3.444  19.653  0.00  0.00    +0.000 HD
ENDBRANCH  11  13
ENDBRANCH   8  11
ENDBRANCH   1   2
BRANCH   1  17
ATOM     15  C   UNL     1      45.431   7.502  12.405  0.00  0.00    +0.000 A 
ATOM     16  C   UNL     1      46.775   7.661  12.773  0.00  0.00    +0.000 A 
ATOM     17  C   UNL     1      47.503   6.618  13.362  0.00  0.00    +0.000 A 
ATOM     18  C   UNL     1      46.876   5.381  13.552  0.00  0.00    +0.000 A 
ATOM     19  C   UNL     1      45.542   5.194  13.177  0.00  0.00    +0.000 A 
ATOM     20  C   UNL     1      44.815   6.247  12.581  0.00  0.00    +0.000 A 
BRANCH  15  22
ATOM     21  C   UNL     1      45.071   9.862  12.207  0.00  0.00    +0.000 C 
ATOM     22  O   UNL     1      44.674   8.530  11.904  0.00  0.00    +0.000 OA
ENDBRANCH  15  22
BRANCH  19  23
ATOM     23  O   UNL     1      44.892   3.989  13.315  0.00  0.00    +0.000 OA
ATOM     24  C   UNL     1      45.226   2.991  12.357  0.00  0.00    +0.000 C 
ENDBRANCH  19  23
BRANCH  20  25
ATOM     25  O   UNL     1      43.499   5.952  12.300  0.00  0.00    +0.000 OA
ATOM     26  C   UNL     1      43.175   5.633  10.955  0.00  0.00    +0.000 C 
ENDBRANCH  20  25
ENDBRANCH   1  17
TORSDOF 7
ENDMDL
MODEL 8
REMARK VINA RESULT:    -5.089      2.780      4.179
REMARK INTER + INTRA:          -7.801
REMARK INTER:                  -7.300
REMARK INTRA:                  -0.501
REMARK UNBOUND:                -0.778
REMARK  Name = 
REMARK  10 active torsions:
REMARK  status: ('A' for Active; 'I' for Inactive)
REMARK    1  A    between atoms: C_1  and  O_2
REMARK    2  A    between atoms: O_2  and  C_3
REMARK    3  A    between atoms: C_5  and  C_6
REMARK    4  A    between atoms: C_6  and  N_7
REMARK    5  A    between atoms: C_13  and  C_14
REMARK    6  A    between atoms: C_14  and  O_16
REMARK    7  A    between atoms: C_20  and  O_21
REMARK    8  A    between atoms: O_21  and  C_22
REMARK    9  A    between atoms: C_23  and  O_24
REMARK   10  A    between atoms: O_24  and  C_25
REMARK                            x       y       z     vdW  Elec       q    Type
REMARK                         _______ _______ _______ _____ _____    ______ ____
ROOT
ATOM      1  C   UNL     1      47.755   6.043  13.578  0.00  0.00    +0.000 C 
ENDROOT
BRANCH   1   2
ATOM      2  N   UNL     1      46.526   6.632  13.050  0.00  0.00    +0.000 N 
ATOM      3  C   UNL     1      46.307   7.987  12.938  0.00  0.00    +0.000 A 
ATOM      4  C   UNL     1      45.114   8.176  12.274  0.00  0.00    +0.000 A 
ATOM      5  C   UNL     1      44.595   6.899  11.967  0.00  0.00    +0.000 A 
ATOM      6  N   UNL     1      43.467   6.587  11.281  0.00  0.00    +0.000 NA
ATOM      7  C   UNL     1      43.254   5.262  11.108  0.00  0.00    +0.000 A 
ATOM      8  C   UNL     1      44.044   4.242  11.618  0.00  0.00    +0.000 A 
ATOM      9  C   UNL     1      45.203   4.578  12.328  0.00  0.00    +0.000 A 
ATOM     10  C   UNL     1      45.474   5.943  12.479  0.00  0.00    +0.000 A 
BRANCH   8  11
ATOM     11  C   UNL     1      43.765   2.812  11.372  0.00  0.00    +0.000 C 
ATOM     12  O   UNL     1      43.839   2.325  10.256  0.00  0.00    +0.000 OA
BRANCH  11  13
ATOM     13  O   UNL     1      43.455   2.083  12.462  0.00  0.00    +0.000 OA
ATOM     14  H   UNL     1      43.268   1.139  12.328  0.00  0.00    +0.000 HD
ENDBRANCH  11  13
ENDBRANCH   8  11
ENDBRANCH   1   2
BRANCH   1  17
ATOM     15  C   UNL     1      50.588   8.161  12.123  0.00  0.00    +0.000 A 
ATOM     16  C   UNL     1      49.466   7.327  12.234  0.00  0.00    +0.000 A 
ATOM     17  C   UNL     1      48.917   6.998  13.481  0.00  0.00    +0.000 A 
ATOM     18  C   UNL     1      49.486   7.548  14.635  0.00  0.00    +0.000 A 
ATOM     19  C   UNL     1      50.596   8.396  14.547  0.00  0.00    +0.000 A 
ATOM     20  C   UNL     1      51.143   8.725  13.288  0.00  0.00    +0.000 A 
BRANCH  15  22
ATOM     21  C   UNL     1      51.957   7.396  10.311  0.00  0.00    +0.000 C 
ATOM     22  O   UNL     1      51.194   8.429  10.922  0.00  0.00    +0.000 OA
ENDBRANCH  15  22
BRANCH  19  23
ATOM     23  O   UNL     1      51.171   8.984  15.650  0.00  0.00    +0.000 OA
ATOM     24  C   UNL     1      50.273   9.607  16.561  0.00  0.00    +0.000 C 
ENDBRANCH  19  23
BRANCH  20  25
ATOM     25  O   UNL     1      52.259   9.530  13.339  0.00  0.00    +0.000 OA
ATOM     26  C   UNL     1      52.084  10.908  13.049  0.00  0.00    +0.000 C 
ENDBRANCH  20  25
ENDBRANCH   1  17
TORSDOF 7
ENDMDL
MODEL 9
REMARK VINA RESULT:    -5.066      3.568      5.670
REMARK INTER + INTRA:          -7.769
REMARK INTER:                  -6.880
REMARK INTRA:                  -0.889
REMARK UNBOUND:                -0.778
REMARK  Name = 
REMARK  10 active torsions:
REMARK  status: ('A' for Active; 'I' for Inactive)
REMARK    1  A    between atoms: C_1  and  O_2
REMARK    2  A    between atoms: O_2  and  C_3
REMARK    3  A    between atoms: C_5  and  C_6
REMARK    4  A    between atoms: C_6  and  N_7
REMARK    5  A    between atoms: C_13  and  C_14
REMARK    6  A    between atoms: C_14  and  O_16
REMARK    7  A    between atoms: C_20  and  O_21
REMARK    8  A    between atoms: O_21  and  C_22
REMARK    9  A    between atoms: C_23  and  O_24
REMARK   10  A    between atoms: O_24  and  C_25
REMARK                            x       y       z     vdW  Elec       q    Type
REMARK                         _______ _______ _______ _____ _____    ______ ____
ROOT
ATOM      1  C   UNL     1      49.039   7.956  13.860  0.00  0.00    +0.000 C 
ENDROOT
BRANCH   1   2
ATOM      2  N   UNL     1      47.686   8.072  13.319  0.00  0.00    +0.000 N 
ATOM      3  C   UNL     1      47.130   9.254  12.880  0.00  0.00    +0.000 A 
ATOM      4  C   UNL     1      45.909   8.968  12.309  0.00  0.00    +0.000 A 
ATOM      5  C   UNL     1      45.719   7.571  12.395  0.00  0.00    +0.000 A 
ATOM      6  N   UNL     1      44.686   6.827  11.927  0.00  0.00    +0.000 NA
ATOM      7  C   UNL     1      44.808   5.494  12.125  0.00  0.00    +0.000 A 
ATOM      8  C   UNL     1      45.844   4.869  12.803  0.00  0.00    +0.000 A 
ATOM      9  C   UNL     1      46.902   5.649  13.286  0.00  0.00    +0.000 A 
ATOM     10  C   UNL     1      46.825   7.026  13.051  0.00  0.00    +0.000 A 
BRANCH   8  11
ATOM     11  C   UNL     1      45.927   3.402  12.964  0.00  0.00    +0.000 C 
ATOM     12  O   UNL     1      46.820   2.874  13.605  0.00  0.00    +0.000 OA
BRANCH  11  13
ATOM     13  O   UNL     1      44.936   2.697  12.382  0.00  0.00    +0.000 OA
ATOM     14  H   UNL     1      44.921   2.671  11.411  0.00  0.00    +0.000 HD
ENDBRANCH  11  13
ENDBRANCH   8  11
ENDBRANCH   1   2
BRANCH   1  17
ATOM     15  C   UNL     1      49.108   6.305  17.309  0.00  0.00    +0.000 A 
ATOM     16  C   UNL     1      49.182   6.505  15.923  0.00  0.00    +0.000 A 
ATOM     17  C   UNL     1      49.027   7.778  15.356  0.00  0.00    +0.000 A 
ATOM     18  C   UNL     1      48.830   8.875  16.203  0.00  0.00    +0.000 A 
ATOM     19  C   UNL     1      48.770   8.701  17.590  0.00  0.00    +0.000 A 
ATOM     20  C   UNL     1      48.929   7.417  18.155  0.00  0.00    +0.000 A 
BRANCH  15  22
ATOM     21  C   UNL     1      50.291   4.239  17.572  0.00  0.00    +0.000 C 
ATOM     22  O   UNL     1      49.172   5.061  17.881  0.00  0.00    +0.000 OA
ENDBRANCH  15  22
BRANCH  19  23
ATOM     23  O   UNL     1      48.608   9.751  18.465  0.00  0.00    +0.000 OA
ATOM     24  C   UNL     1      47.644  10.728  18.090  0.00  0.00    +0.000 C 
ENDBRANCH  19  23
BRANCH  20  25
ATOM     25  O   UNL     1      48.803   7.372  19.526  0.00  0.00    +0.000 OA
ATOM     26  C   UNL     1      47.539   6.998  20.053  0.00  0.00    +0.000 C 
ENDBRANCH  20  25
ENDBRANCH   1  17
TORSDOF 7
ENDMDL
