MODEL 1
REMARK VINA RESULT:    -6.980      0.000      0.000
REMARK INTER + INTRA:          -9.344
REMARK INTER:                  -8.612
REMARK INTRA:                  -0.732
REMARK UNBOUND:                -0.732
REMARK  Name = 
REMARK  5 active torsions:
REMARK  status: ('A' for Active; 'I' for Inactive)
REMARK    1  A    between atoms: C_1  and  C_2
REMARK    2  A    between atoms: C_7  and  C_8
REMARK    3  A    between atoms: C_12  and  C_13
REMARK    4  A    between atoms: C_13  and  N_14
REMARK    5  A    between atoms: C_18  and  C_19
REMARK                            x       y       z     vdW  Elec       q    Type
REMARK                         _______ _______ _______ _____ _____    ______ ____
ROOT
ATOM      1  C   UNL     1      49.039   7.006  16.435  0.00  0.00    +0.000 C 
ATOM      2  C   UNL     1      48.462   8.320  16.995  0.00  0.00    +0.000 C 
ATOM      3  C   UNL     1      49.883   7.978  17.235  0.00  0.00    +0.000 C 
ENDROOT
BRANCH   1   4
ATOM      4  N   UNL     1      48.739   5.690  17.004  0.00  0.00    +0.000 N 
ATOM      5  C   UNL     1      49.712   4.670  17.141  0.00  0.00    +0.000 A 
ATOM      6  C   UNL     1      51.055   4.923  17.371  0.00  0.00    +0.000 A 
ATOM      7  C   UNL     1      51.928   3.849  17.561  0.00  0.00    +0.000 A 
ATOM      8  C   UNL     1      51.403   2.583  17.520  0.00  0.00    +0.000 A 
ATOM      9  N   UNL     1      50.088   2.342  17.306  0.00  0.00    +0.000 NA
ATOM     10  N   UNL     1      49.250   3.400  17.107  0.00  0.00    +0.000 NA
ATOM     11  H   UNL     1      47.964   5.201  16.550  0.00  0.00    +0.000 HD
BRANCH   8  12
ATOM     12  C   UNL     1      52.256   1.387  17.721  0.00  0.00    +0.000 C 
ATOM     13  N   UNL     1      51.619   0.248  18.125  0.00  0.00    +0.000 N 
ATOM     14  O   UNL     1      53.470   1.414  17.532  0.00  0.00    +0.000 OA
ATOM     15  H   UNL     1      50.616   0.247  18.286  0.00  0.00    +0.000 HD
ATOM     16  H   UNL     1      52.157  -0.592  18.276  0.00  0.00    +0.000 HD
ENDBRANCH   8  12
ENDBRANCH   1   4
BRANCH   1  21
ATOM     17  C   UNL     1      47.662   6.218  12.961  0.00  0.00    +0.000 A 
ATOM     18  C   UNL     1      48.430   7.083  12.176  0.00  0.00    +0.000 A 
ATOM     19  C   UNL     1      49.496   7.798  12.725  0.00  0.00    +0.000 A 
ATOM     20  C   UNL     1      49.753   7.739  14.092  0.00  0.00    +0.000 A 
ATOM     21  C   UNL     1      48.928   6.987  14.925  0.00  0.00    +0.000 A 
ATOM     22  C   UNL     1      47.934   6.181  14.328  0.00  0.00    +0.000 A 
BRANCH  17  29
ATOM     23  C   UNL     1      45.013   7.541  11.970  0.00  0.00    +0.000 C 
ATOM     24  C   UNL     1      45.515   6.185  11.467  0.00  0.00    +0.000 C 
ATOM     25  C   UNL     1      44.312   5.275  11.152  0.00  0.00    +0.000 C 
ATOM     26  C   UNL     1      43.681   4.731  12.429  0.00  0.00    +0.000 C 
ATOM     27  O   UNL     1      44.639   3.968  13.157  0.00  0.00    +0.000 OA
ATOM     28  C   UNL     1      45.729   4.770  13.607  0.00  0.00    +0.000 C 
ATOM     29  C   UNL     1      46.470   5.438  12.438  0.00  0.00    +0.000 C 
ENDBRANCH  17  29
ENDBRANCH   1  21
TORSDOF 4
ENDMDL
MODEL 2
REMARK VINA RESULT:    -6.679      3.071      4.245
REMARK INTER + INTRA:          -8.972
REMARK INTER:                  -8.070
REMARK INTRA:                  -0.902
REMARK UNBOUND:                -0.732
REMARK  Name = 
REMARK  5 active torsions:
REMARK  status: ('A' for Active; 'I' for Inactive)
REMARK    1  A    between atoms: C_1  and  C_2
REMARK    2  A    between atoms: C_7  and  C_8
REMARK    3  A    between atoms: C_12  and  C_13
REMARK    4  A    between atoms: C_13  and  N_14
REMARK    5  A    between atoms: C_18  and  C_19
REMARK                            x       y       z     vdW  Elec       q    Type
REMARK                         _______ _______ _______ _____ _____    ______ ____
ROOT
ATOM      1  C   UNL     1      48.988   7.821  12.441  0.00  0.00    +0.000 C 
ATOM      2  C   UNL     1      49.641   8.861  11.512  0.00  0.00    +0.000 C 
ATOM      3  C   UNL     1      49.954   7.424  11.343  0.00  0.00    +0.000 C 
ENDROOT
BRANCH   1   4
ATOM      4  N   UNL     1      49.385   7.632  13.839  0.00  0.00    +0.000 N 
ATOM      5  C   UNL     1      48.770   6.684  14.693  0.00  0.00    +0.000 A 
ATOM      6  C   UNL     1      48.248   5.480  14.245  0.00  0.00    +0.000 A 
ATOM      7  C   UNL     1      47.722   4.578  15.173  0.00  0.00    +0.000 A 
ATOM      8  C   UNL     1      47.760   4.929  16.498  0.00  0.00    +0.000 A 
ATOM      9  N   UNL     1      48.282   6.100  16.931  0.00  0.00    +0.000 NA
ATOM     10  N   UNL     1      48.777   6.978  16.012  0.00  0.00    +0.000 NA
ATOM     11  H   UNL     1      49.366   8.486  14.403  0.00  0.00    +0.000 HD
BRANCH   8  12
ATOM     12  C   UNL     1      47.234   4.026  17.550  0.00  0.00    +0.000 C 
ATOM     13  N   UNL     1      47.660   4.267  18.826  0.00  0.00    +0.000 N 
ATOM     14  O   UNL     1      46.453   3.113  17.294  0.00  0.00    +0.000 OA
ATOM     15  H   UNL     1      48.313   5.022  19.018  0.00  0.00    +0.000 HD
ATOM     16  H   UNL     1      47.330   3.680  19.576  0.00  0.00    +0.000 HD
ENDBRANCH   8  12
ENDBRANCH   1   4
BRANCH   1  21
ATOM     17  C   UNL     1      45.456   6.765  11.447  0.00  0.00    +0.000 A 
ATOM     18  C   UNL     1      44.696   7.668  12.196  0.00  0.00    +0.000 A 
ATOM     19  C   UNL     1      45.301   8.716  12.892  0.00  0.00    +0.000 A 
ATOM     20  C   UNL     1      46.688   8.824  12.932  0.00  0.00    +0.000 A 
ATOM     21  C   UNL     1      47.481   7.867  12.302  0.00  0.00    +0.000 A 
ATOM     22  C   UNL     1      46.843   6.890  11.508  0.00  0.00    +0.000 A 
BRANCH  17  29
ATOM     23  C   UNL     1      45.419   3.843  12.546  0.00  0.00    +0.000 C 
ATOM     24  C   UNL     1      44.388   4.380  11.550  0.00  0.00    +0.000 C 
ATOM     25  C   UNL     1      43.945   3.245  10.608  0.00  0.00    +0.000 C 
ATOM     26  C   UNL     1      45.012   2.945   9.562  0.00  0.00    +0.000 C 
ATOM     27  O   UNL     1      45.261   4.107   8.775  0.00  0.00    +0.000 OA
ATOM     28  C   UNL     1      45.806   5.171   9.554  0.00  0.00    +0.000 C 
ATOM     29  C   UNL     1      44.866   5.585  10.697  0.00  0.00    +0.000 C 
ENDBRANCH  17  29
ENDBRANCH   1  21
TORSDOF 4
ENDMDL
MODEL 3
REMARK VINA RESULT:    -6.527      3.093      4.207
REMARK INTER + INTRA:          -8.784
REMARK INTER:                  -8.423
REMARK INTRA:                  -0.362
REMARK UNBOUND:                -0.732
REMARK  Name = 
REMARK  5 active torsions:
REMARK  status: ('A' for Active; 'I' for Inactive)
REMARK    1  A    between atoms: C_1  and  C_2
REMARK    2  A    between atoms: C_7  and  C_8
REMARK    3  A    between atoms: C_12  and  C_13
REMARK    4  A    between atoms: C_13  and  N_14
REMARK    5  A    between atoms: C_18  and  C_19
REMARK                            x       y       z     vdW  Elec       q    Type
REMARK                         _______ _______ _______ _____ _____    ______ ____
ROOT
ATOM      1  C   UNL     1      49.115   8.434  12.639  0.00  0.00    +0.000 C 
ATOM      2  C   UNL     1      49.796   9.106  11.432  0.00  0.00    +0.000 C 
ATOM      3  C   UNL     1      50.223   7.754  11.859  0.00  0.00    +0.000 C 
ENDROOT
BRANCH   1   4
ATOM      4  N   UNL     1      49.364   8.833  14.027  0.00  0.00    +0.000 N 
ATOM      5  C   UNL     1      48.990   8.036  15.136  0.00  0.00    +0.000 A 
ATOM      6  C   UNL     1      48.957   6.650  15.104  0.00  0.00    +0.000 A 
ATOM      7  C   UNL     1      48.641   5.948  16.270  0.00  0.00    +0.000 A 
ATOM      8  C   UNL     1      48.386   6.676  17.404  0.00  0.00    +0.000 A 
ATOM      9  N   UNL     1      48.431   8.028  17.433  0.00  0.00    +0.000 NA
ATOM     10  N   UNL     1      48.725   8.700  16.283  0.00  0.00    +0.000 NA
ATOM     11  H   UNL     1      48.990   9.752  14.275  0.00  0.00    +0.000 HD
BRANCH   8  12
ATOM     12  C   UNL     1      48.053   6.011  18.687  0.00  0.00    +0.000 C 
ATOM     13  N   UNL     1      46.769   5.560  18.822  0.00  0.00    +0.000 N 
ATOM     14  O   UNL     1      48.883   5.867  19.580  0.00  0.00    +0.000 OA
ATOM     15  H   UNL     1      46.094   5.697  18.075  0.00  0.00    +0.000 HD
ATOM     16  H   UNL     1      46.494   5.101  19.677  0.00  0.00    +0.000 HD
ENDBRANCH   8  12
ENDBRANCH   1   4
BRANCH   1  21
ATOM     17  C   UNL     1      45.794   6.707  11.882  0.00  0.00    +0.000 A 
ATOM     18  C   UNL     1      44.896   7.747  12.144  0.00  0.00    +0.000 A 
ATOM     19  C   UNL     1      45.350   9.041  12.403  0.00  0.00    +0.000 A 
ATOM     20  C   UNL     1      46.714   9.302  12.504  0.00  0.00    +0.000 A 
ATOM     21  C   UNL     1      47.633   8.263  12.377  0.00  0.00    +0.000 A 
ATOM     22  C   UNL     1      47.154   6.991  11.996  0.00  0.00    +0.000 A 
BRANCH  17  29
ATOM     23  C   UNL     1      42.845   5.826  11.351  0.00  0.00    +0.000 C 
ATOM     24  C   UNL     1      44.060   5.059  10.823  0.00  0.00    +0.000 C 
ATOM     25  C   UNL     1      43.739   3.553  10.781  0.00  0.00    +0.000 C 
ATOM     26  C   UNL     1      43.778   2.940  12.176  0.00  0.00    +0.000 C 
ATOM     27  O   UNL     1      45.074   3.104  12.743  0.00  0.00    +0.000 OA
ATOM     28  C   UNL     1      45.398   4.479  12.943  0.00  0.00    +0.000 C 
ATOM     29  C   UNL     1      45.371   5.272  11.628  0.00  0.00    +0.000 C 
ENDBRANCH  17  29
ENDBRANCH   1  21
TORSDOF 4
ENDMDL
MODEL 4
REMARK VINA RESULT:    -6.499      3.040      6.859
REMARK INTER + INTRA:          -8.750
REMARK INTER:                  -7.854
REMARK INTRA:                  -0.896
REMARK UNBOUND:                -0.732
REMARK  Name = 
REMARK  5 active torsions:
REMARK  status: ('A' for Active; 'I' for Inactive)
REMARK    1  A    between atoms: C_1  and  C_2
REMARK    2  A    between atoms: C_7  and  C_8
REMARK    3  A    between atoms: C_12  and  C_13
REMARK    4  A    between atoms: C_13  and  N_14
REMARK    5  A    between atoms: C_18  and  C_19
REMARK                            x       y       z     vdW  Elec       q    Type
REMARK                         _______ _______ _______ _____ _____    ______ ____
ROOT
ATOM      1  C   UNL     1      49.190   7.637  13.550  0.00  0.00    +0.000 C 
ATOM      2  C   UNL     1      50.556   8.262  13.208  0.00  0.00    +0.000 C 
ATOM      3  C   UNL     1      49.358   8.636  12.422  0.00  0.00    +0.000 C 
ENDROOT
BRANCH   1   4
ATOM      4  N   UNL     1      48.837   6.252  13.226  0.00  0.00    +0.000 N 
ATOM      5  C   UNL     1      47.500   5.786  13.194  0.00  0.00    +0.000 A 
ATOM      6  C   UNL     1      46.423   6.581  12.836  0.00  0.00    +0.000 A 
ATOM      7  C   UNL     1      45.148   6.013  12.768  0.00  0.00    +0.000 A 
ATOM      8  C   UNL     1      45.029   4.677  13.052  0.00  0.00    +0.000 A 
ATOM      9  N   UNL     1      46.086   3.902  13.389  0.00  0.00    +0.000 NA
ATOM     10  N   UNL     1      47.322   4.474  13.467  0.00  0.00    +0.000 NA
ATOM     11  H   UNL     1      49.305   5.551  13.805  0.00  0.00    +0.000 HD
BRANCH   8  12
ATOM     12  C   UNL     1      43.715   3.991  12.994  0.00  0.00    +0.000 C 
ATOM     13  N   UNL     1      43.733   2.675  12.626  0.00  0.00    +0.000 N 
ATOM     14  O   UNL     1      42.666   4.570  13.264  0.00  0.00    +0.000 OA
ATOM     15  H   UNL     1      44.611   2.215  12.398  0.00  0.00    +0.000 HD
ATOM     16  H   UNL     1      42.865   2.165  12.572  0.00  0.00    +0.000 HD
ENDBRANCH   8  12
ENDBRANCH   1   4
BRANCH   1  21
ATOM     17  C   UNL     1      48.806   7.311  17.335  0.00  0.00    +0.000 A 
ATOM     18  C   UNL     1      48.379   8.601  17.664  0.00  0.00    +0.000 A 
ATOM     19  C   UNL     1      48.057   9.528  16.671  0.00  0.00    +0.000 A 
ATOM     20  C   UNL     1      48.250   9.216  15.328  0.00  0.00    +0.000 A 
ATOM     21  C   UNL     1      48.795   7.985  14.969  0.00  0.00    +0.000 A 
ATOM     22  C   UNL     1      48.998   7.024  15.985  0.00  0.00    +0.000 A 
BRANCH  17  29
ATOM     23  C   UNL     1      47.159   4.725  17.924  0.00  0.00    +0.000 C 
ATOM     24  C   UNL     1      48.670   4.827  18.142  0.00  0.00    +0.000 C 
ATOM     25  C   UNL     1      49.076   3.955  19.345  0.00  0.00    +0.000 C 
ATOM     26  C   UNL     1      48.696   4.619  20.664  0.00  0.00    +0.000 C 
ATOM     27  O   UNL     1      49.354   5.877  20.782  0.00  0.00    +0.000 OA
ATOM     28  C   UNL     1      48.930   6.797  19.778  0.00  0.00    +0.000 C 
ATOM     29  C   UNL     1      49.205   6.268  18.362  0.00  0.00    +0.000 C 
ENDBRANCH  17  29
ENDBRANCH   1  21
TORSDOF 4
ENDMDL
MODEL 5
REMARK VINA RESULT:    -6.235      4.895      8.266
REMARK INTER + INTRA:          -8.424
REMARK INTER:                  -9.037
REMARK INTRA:                   0.612
REMARK UNBOUND:                -0.732
REMARK  Name = 
REMARK  5 active torsions:
REMARK  status: ('A' for Active; 'I' for Inactive)
REMARK    1  A    between atoms: C_1  and  C_2
REMARK    2  A    between atoms: C_7  and  C_8
REMARK    3  A    between atoms: C_12  and  C_13
REMARK    4  A    between atoms: C_13  and  N_14
REMARK    5  A    between atoms: C_18  and  C_19
REMARK                            x       y       z     vdW  Elec       q    Type
REMARK                         _______ _______ _______ _____ _____    ______ ____
ROOT
ATOM      1  C   UNL     1      44.382   4.105  11.514  0.00  0.00    +0.000 C 
ATOM      2  C   UNL     1      43.397   5.034  10.779  0.00  0.00    +0.000 C 
ATOM      3  C   UNL     1      42.889   4.059  11.772  0.00  0.00    +0.000 C 
ENDROOT
BRANCH   1   4
ATOM      4  N   UNL     1      45.029   2.955  10.877  0.00  0.00    +0.000 N 
ATOM      5  C   UNL     1      45.530   2.990   9.553  0.00  0.00    +0.000 A 
ATOM      6  C   UNL     1      46.044   4.133   8.961  0.00  0.00    +0.000 A 
ATOM      7  C   UNL     1      46.579   4.053   7.673  0.00  0.00    +0.000 A 
ATOM      8  C   UNL     1      46.577   2.829   7.056  0.00  0.00    +0.000 A 
ATOM      9  N   UNL     1      46.085   1.713   7.642  0.00  0.00    +0.000 NA
ATOM     10  N   UNL     1      45.551   1.810   8.894  0.00  0.00    +0.000 NA
ATOM     11  H   UNL     1      44.468   2.099  10.882  0.00  0.00    +0.000 HD
BRANCH   8  12
ATOM     12  C   UNL     1      47.135   2.652   5.693  0.00  0.00    +0.000 C 
ATOM     13  N   UNL     1      48.452   2.294   5.617  0.00  0.00    +0.000 N 
ATOM     14  O   UNL     1      46.452   2.813   4.684  0.00  0.00    +0.000 OA
ATOM     15  H   UNL     1      49.003   2.174   6.462  0.00  0.00    +0.000 HD
ATOM     16  H   UNL     1      48.877   2.162   4.712  0.00  0.00    +0.000 HD
ENDBRANCH   8  12
ENDBRANCH   1   4
BRANCH   1  21
ATOM     17  C   UNL     1      46.739   5.095  14.351  0.00  0.00    +0.000 A 
ATOM     18  C   UNL     1      47.411   6.171  13.765  0.00  0.00    +0.000 A 
ATOM     19  C   UNL     1      47.008   6.687  12.532  0.00  0.00    +0.000 A 
ATOM     20  C   UNL     1      45.985   6.074  11.813  0.00  0.00    +0.000 A 
ATOM     21  C   UNL     1      45.379   4.922  12.309  0.00  0.00    +0.000 A 
ATOM     22  C   UNL     1      45.723   4.494  13.610  0.00  0.00    +0.000 A 
BRANCH  17  29
ATOM     23  C   UNL     1      49.073   6.145  16.140  0.00  0.00    +0.000 C 
ATOM     24  C   UNL     1      47.867   5.381  16.693  0.00  0.00    +0.000 C 
ATOM     25  C   UNL     1      48.307   4.533  17.902  0.00  0.00    +0.000 C 
ATOM     26  C   UNL     1      49.072   3.291  17.457  0.00  0.00    +0.000 C 
ATOM     27  O   UNL     1      48.246   2.485  16.621  0.00  0.00    +0.000 OA
ATOM     28  C   UNL     1      47.902   3.152  15.408  0.00  0.00    +0.000 C 
ATOM     29  C   UNL     1      47.146   4.464  15.669  0.00  0.00    +0.000 C 
ENDBRANCH  17  29
ENDBRANCH   1  21
TORSDOF 4
ENDMDL
MODEL 6
REMARK VINA RESULT:    -6.207      3.106      7.046
REMARK INTER + INTRA:          -8.391
REMARK INTER:                  -7.710
REMARK INTRA:                  -0.681
REMARK UNBOUND:                -0.732
REMARK  Name = 
REMARK  5 active torsions:
REMARK  status: ('A' for Active; 'I' for Inactive)
REMARK    1  A    between atoms: C_1  and  C_2
REMARK    2  A    between atoms: C_7  and  C_8
REMARK    3  A    between atoms: C_12  and  C_13
REMARK    4  A    between atoms: C_13  and  N_14
REMARK    5  A    between atoms: C_18  and  C_19
REMARK                            x       y       z     vdW  Elec       q    Type
REMARK                         _______ _______ _______ _____ _____    ______ ____
ROOT
ATOM      1  C   UNL     1      49.236   7.780  12.806  0.00  0.00    +0.000 C 
ATOM      2  C   UNL     1      50.583   8.169  12.170  0.00  0.00    +0.000 C 
ATOM      3  C   UNL     1      49.333   8.808  11.697  0.00  0.00    +0.000 C 
ENDROOT
BRANCH   1   4
ATOM      4  N   UNL     1      48.560   6.507  12.539  0.00  0.00    +0.000 N 
ATOM      5  C   UNL     1      47.152   6.362  12.573  0.00  0.00    +0.000 A 
ATOM      6  C   UNL     1      46.271   7.377  12.231  0.00  0.00    +0.000 A 
ATOM      7  C   UNL     1      44.899   7.117  12.229  0.00  0.00    +0.000 A 
ATOM      8  C   UNL     1      44.488   5.851  12.558  0.00  0.00    +0.000 A 
ATOM      9  N   UNL     1      45.352   4.860  12.880  0.00  0.00    +0.000 NA
ATOM     10  N   UNL     1      46.688   5.133  12.893  0.00  0.00    +0.000 NA
ATOM     11  H   UNL     1      48.879   5.730  13.122  0.00  0.00    +0.000 HD
BRANCH   8  12
ATOM     12  C   UNL     1      43.050   5.486  12.571  0.00  0.00    +0.000 C 
ATOM     13  N   UNL     1      42.240   6.181  11.717  0.00  0.00    +0.000 N 
ATOM     14  O   UNL     1      42.608   4.605  13.304  0.00  0.00    +0.000 OA
ATOM     15  H   UNL     1      42.622   6.913  11.125  0.00  0.00    +0.000 HD
ATOM     16  H   UNL     1      41.255   5.970  11.689  0.00  0.00    +0.000 HD
ENDBRANCH   8  12
ENDBRANCH   1   4
BRANCH   1  21
ATOM     17  C   UNL     1      48.990   7.234  16.578  0.00  0.00    +0.000 A 
ATOM     18  C   UNL     1      49.497   8.449  17.049  0.00  0.00    +0.000 A 
ATOM     19  C   UNL     1      49.766   9.503  16.175  0.00  0.00    +0.000 A 
ATOM     20  C   UNL     1      49.627   9.332  14.800  0.00  0.00    +0.000 A 
ATOM     21  C   UNL     1      49.246   8.093  14.288  0.00  0.00    +0.000 A 
ATOM     22  C   UNL     1      48.866   7.083  15.198  0.00  0.00    +0.000 A 
BRANCH  17  29
ATOM     23  C   UNL     1      51.154   5.154  17.438  0.00  0.00    +0.000 C 
ATOM     24  C   UNL     1      49.907   5.462  18.270  0.00  0.00    +0.000 C 
ATOM     25  C   UNL     1      49.451   4.187  19.004  0.00  0.00    +0.000 C 
ATOM     26  C   UNL     1      48.754   3.220  18.053  0.00  0.00    +0.000 C 
ATOM     27  O   UNL     1      47.606   3.842  17.482  0.00  0.00    +0.000 OA
ATOM     28  C   UNL     1      47.954   4.961  16.670  0.00  0.00    +0.000 C 
ATOM     29  C   UNL     1      48.709   6.036  17.467  0.00  0.00    +0.000 C 
ENDBRANCH  17  29
ENDBRANCH   1  21
TORSDOF 4
ENDMDL
MODEL 7
REMARK VINA RESULT:    -6.129      5.273      8.298
REMARK INTER + INTRA:          -8.294
REMARK INTER:                  -8.584
REMARK INTRA:                   0.290
REMARK UNBOUND:                -0.732
REMARK  Name = 
REMARK  5 active torsions:
REMARK  status: ('A' for Active; 'I' for Inactive)
REMARK    1  A    between atoms: C_1  and  C_2
REMARK    2  A    between atoms: C_7  and  C_8
REMARK    3  A    between atoms: C_12  and  C_13
REMARK    4  A    between atoms: C_13  and  N_14
REMARK    5  A    between atoms: C_18  and  C_19
REMARK                            x       y       z     vdW  Elec       q    Type
REMARK                         _______ _______ _______ _____ _____    ______ ____
ROOT
ATOM      1  C   UNL     1      44.453   3.993  11.486  0.00  0.00    +0.000 C 
ATOM      2  C   UNL     1      43.548   5.031  10.797  0.00  0.00    +0.000 C 
ATOM      3  C   UNL     1      42.961   4.053  11.741  0.00  0.00    +0.000 C 
ENDROOT
BRANCH   1   4
ATOM      4  N   UNL     1      45.009   2.827  10.793  0.00  0.00    +0.000 N 
ATOM      5  C   UNL     1      45.515   2.886   9.471  0.00  0.00    +0.000 A 
ATOM      6  C   UNL     1      46.118   4.012   8.934  0.00  0.00    +0.000 A 
ATOM      7  C   UNL     1      46.648   3.952   7.643  0.00  0.00    +0.000 A 
ATOM      8  C   UNL     1      46.552   2.762   6.968  0.00  0.00    +0.000 A 
ATOM      9  N   UNL     1      45.972   1.662   7.501  0.00  0.00    +0.000 NA
ATOM     10  N   UNL     1      45.445   1.740   8.757  0.00  0.00    +0.000 NA
ATOM     11  H   UNL     1      44.383   2.019  10.758  0.00  0.00    +0.000 HD
BRANCH   8  12
ATOM     12  C   UNL     1      47.097   2.608   5.597  0.00  0.00    +0.000 C 
ATOM     13  N   UNL     1      48.431   2.324   5.502  0.00  0.00    +0.000 N 
ATOM     14  O   UNL     1      46.391   2.723   4.599  0.00  0.00    +0.000 OA
ATOM     15  H   UNL     1      49.001   2.241   6.339  0.00  0.00    +0.000 HD
ATOM     16  H   UNL     1      48.848   2.210   4.592  0.00  0.00    +0.000 HD
ENDBRANCH   8  12
ENDBRANCH   1   4
BRANCH   1  21
ATOM     17  C   UNL     1      46.945   6.666  12.593  0.00  0.00    +0.000 A 
ATOM     18  C   UNL     1      47.250   6.218  13.881  0.00  0.00    +0.000 A 
ATOM     19  C   UNL     1      46.792   4.982  14.341  0.00  0.00    +0.000 A 
ATOM     20  C   UNL     1      45.936   4.213  13.557  0.00  0.00    +0.000 A 
ATOM     21  C   UNL     1      45.509   4.688  12.319  0.00  0.00    +0.000 A 
ATOM     22  C   UNL     1      46.082   5.882  11.829  0.00  0.00    +0.000 A 
BRANCH  17  29
ATOM     23  C   UNL     1      49.853   7.783  12.816  0.00  0.00    +0.000 C 
ATOM     24  C   UNL     1      48.885   8.175  11.696  0.00  0.00    +0.000 C 
ATOM     25  C   UNL     1      49.147   9.634  11.278  0.00  0.00    +0.000 C 
ATOM     26  C   UNL     1      48.584  10.612  12.302  0.00  0.00    +0.000 C 
ATOM     27  O   UNL     1      47.177  10.429  12.428  0.00  0.00    +0.000 OA
ATOM     28  C   UNL     1      46.851   9.139  12.943  0.00  0.00    +0.000 C 
ATOM     29  C   UNL     1      47.381   8.012  12.043  0.00  0.00    +0.000 C 
ENDBRANCH  17  29
ENDBRANCH   1  21
TORSDOF 4
ENDMDL
MODEL 8
REMARK VINA RESULT:    -5.736      4.343      7.676
REMARK INTER + INTRA:          -7.809
REMARK INTER:                  -7.293
REMARK INTRA:                  -0.517
REMARK UNBOUND:                -0.732
REMARK  Name = 
REMARK  5 active torsions:
REMARK  status: ('A' for Active; 'I' for Inactive)
REMARK    1  A    between atoms: C_1  and  C_2
REMARK    2  A    between atoms: C_7  and  C_8
REMARK    3  A    between atoms: C_12  and  C_13
REMARK    4  A    between atoms: C_13  and  N_14
REMARK    5  A    between atoms: C_18  and  C_19
REMARK                            x       y       z     vdW  Elec       q    Type
REMARK                         _______ _______ _______ _____ _____    ______ ____
ROOT
ATOM      1  C   UNL     1      47.980   8.207  13.948  0.00  0.00    +0.000 C 
ATOM      2  C   UNL     1      48.541   8.425  15.366  0.00  0.00    +0.000 C 
ATOM      3  C   UNL     1      48.601   7.080  14.749  0.00  0.00    +0.000 C 
ENDROOT
BRANCH   1   4
ATOM      4  N   UNL     1      46.546   8.161  13.651  0.00  0.00    +0.000 N 
ATOM      5  C   UNL     1      45.961   7.162  12.835  0.00  0.00    +0.000 A 
ATOM      6  C   UNL     1      46.441   5.864  12.753  0.00  0.00    +0.000 A 
ATOM      7  C   UNL     1      45.755   4.930  11.973  0.00  0.00    +0.000 A 
ATOM      8  C   UNL     1      44.620   5.349  11.328  0.00  0.00    +0.000 A 
ATOM      9  N   UNL     1      44.148   6.614  11.419  0.00  0.00    +0.000 NA
ATOM     10  N   UNL     1      44.837   7.519  12.172  0.00  0.00    +0.000 NA
ATOM     11  H   UNL     1      46.170   9.024  13.252  0.00  0.00    +0.000 HD
BRANCH   8  12
ATOM     12  C   UNL     1      43.825   4.420  10.487  0.00  0.00    +0.000 C 
ATOM     13  N   UNL     1      43.980   4.541   9.135  0.00  0.00    +0.000 N 
ATOM     14  O   UNL     1      43.070   3.584  10.976  0.00  0.00    +0.000 OA
ATOM     15  H   UNL     1      44.603   5.246   8.748  0.00  0.00    +0.000 HD
ATOM     16  H   UNL     1      43.461   3.933   8.521  0.00  0.00    +0.000 HD
ENDBRANCH   8  12
ENDBRANCH   1   4
BRANCH   1  21
ATOM     17  C   UNL     1      50.849   9.575  11.831  0.00  0.00    +0.000 A 
ATOM     18  C   UNL     1      50.149  10.413  10.959  0.00  0.00    +0.000 A 
ATOM     19  C   UNL     1      48.790  10.671  11.143  0.00  0.00    +0.000 A 
ATOM     20  C   UNL     1      48.079  10.017  12.146  0.00  0.00    +0.000 A 
ATOM     21  C   UNL     1      48.717   9.078  12.953  0.00  0.00    +0.000 A 
ATOM     22  C   UNL     1      50.115   8.926  12.823  0.00  0.00    +0.000 A 
BRANCH  17  29
ATOM     23  C   UNL     1      51.894   7.213  10.075  0.00  0.00    +0.000 C 
ATOM     24  C   UNL     1      52.718   8.468  10.374  0.00  0.00    +0.000 C 
ATOM     25  C   UNL     1      54.211   8.096  10.455  0.00  0.00    +0.000 C 
ATOM     26  C   UNL     1      54.535   7.396  11.769  0.00  0.00    +0.000 C 
ATOM     27  O   UNL     1      54.228   8.252  12.866  0.00  0.00    +0.000 OA
ATOM     28  C   UNL     1      52.833   8.540  12.944  0.00  0.00    +0.000 C 
ATOM     29  C   UNL     1      52.317   9.224  11.669  0.00  0.00    +0.000 C 
ENDBRANCH  17  29
ENDBRANCH   1  21
TORSDOF 4
ENDMDL
MODEL 9
REMARK VINA RESULT:    -5.384      5.095      6.599
REMARK INTER + INTRA:          -7.375
REMARK INTER:                  -6.735
REMARK INTRA:                  -0.640
REMARK UNBOUND:                -0.732
REMARK  Name = 
REMARK  5 active torsions:
REMARK  status: ('A' for Active; 'I' for Inactive)
REMARK    1  A    between atoms: C_1  and  C_2
REMARK    2  A    between atoms: C_7  and  C_8
REMARK    3  A    between atoms: C_12  and  C_13
REMARK    4  A    between atoms: C_13  and  N_14
REMARK    5  A    between atoms: C_18  and  C_19
REMARK                            x       y       z     vdW  Elec       q    Type
REMARK                         _______ _______ _______ _____ _____    ______ ____
ROOT
ATOM      1  C   UNL     1      51.752   9.177  11.667  0.00  0.00    +0.000 C 
ATOM      2  C   UNL     1      51.786  10.696  11.923  0.00  0.00    +0.000 C 
ATOM      3  C   UNL     1      51.297  10.178  10.624  0.00  0.00    +0.000 C 
ENDROOT
BRANCH   1   4
ATOM      4  N   UNL     1      52.954   8.379  11.411  0.00  0.00    +0.000 N 
ATOM      5  C   UNL     1      53.057   7.467  10.332  0.00  0.00    +0.000 A 
ATOM      6  C   UNL     1      52.412   7.646   9.118  0.00  0.00    +0.000 A 
ATOM      7  C   UNL     1      52.630   6.726   8.089  0.00  0.00    +0.000 A 
ATOM      8  C   UNL     1      53.490   5.686   8.333  0.00  0.00    +0.000 A 
ATOM      9  N   UNL     1      54.125   5.523   9.516  0.00  0.00    +0.000 NA
ATOM     10  N   UNL     1      53.891   6.420  10.517  0.00  0.00    +0.000 NA
ATOM     11  H   UNL     1      53.267   7.820  12.207  0.00  0.00    +0.000 HD
BRANCH   8  12
ATOM     12  C   UNL     1      53.785   4.671   7.293  0.00  0.00    +0.000 C 
ATOM     13  N   UNL     1      54.625   3.656   7.657  0.00  0.00    +0.000 N 
ATOM     14  O   UNL     1      53.301   4.733   6.166  0.00  0.00    +0.000 OA
ATOM     15  H   UNL     1      55.023   3.626   8.591  0.00  0.00    +0.000 HD
ATOM     16  H   UNL     1      54.856   2.941   6.985  0.00  0.00    +0.000 HD
ENDBRANCH   8  12
ENDBRANCH   1   4
BRANCH   1  21
ATOM     17  C   UNL     1      48.784   7.213  13.053  0.00  0.00    +0.000 A 
ATOM     18  C   UNL     1      49.222   6.971  14.358  0.00  0.00    +0.000 A 
ATOM     19  C   UNL     1      50.384   7.566  14.851  0.00  0.00    +0.000 A 
ATOM     20  C   UNL     1      51.187   8.339  14.015  0.00  0.00    +0.000 A 
ATOM     21  C   UNL     1      50.848   8.496  12.673  0.00  0.00    +0.000 A 
ATOM     22  C   UNL     1      49.608   7.984  12.234  0.00  0.00    +0.000 A 
BRANCH  17  29
ATOM     23  C   UNL     1      45.944   8.512  13.092  0.00  0.00    +0.000 C 
ATOM     24  C   UNL     1      46.404   7.527  12.014  0.00  0.00    +0.000 C 
ATOM     25  C   UNL     1      45.204   6.685  11.542  0.00  0.00    +0.000 C 
ATOM     26  C   UNL     1      44.840   5.616  12.567  0.00  0.00    +0.000 C 
ATOM     27  O   UNL     1      45.946   4.742  12.771  0.00  0.00    +0.000 OA
ATOM     28  C   UNL     1      47.065   5.421  13.338  0.00  0.00    +0.000 C 
ATOM     29  C   UNL     1      47.551   6.573  12.444  0.00  0.00    +0.000 C 
ENDBRANCH  17  29
ENDBRANCH   1  21
TORSDOF 4
ENDMDL
