MODEL 1
REMARK VINA RESULT:    -7.614      0.000      0.000
REMARK INTER + INTRA:         -11.290
REMARK INTER:                 -10.285
REMARK INTRA:                  -1.005
REMARK UNBOUND:                -1.005
REMARK  Name = 
REMARK  7 active torsions:
REMARK  status: ('A' for Active; 'I' for Inactive)
REMARK    1  A    between atoms: C_1  and  N_2
REMARK    2  A    between atoms: C_4  and  C_5
REMARK    3  A    between atoms: N_7  and  C_8
REMARK    4  A    between atoms: C_8  and  C_9
REMARK    5  A    between atoms: C_12  and  C_13
REMARK    6  A    between atoms: C_13  and  N_14
REMARK    7  A    between atoms: C_15  and  C_17
REMARK                            x       y       z     vdW  Elec       q    Type
REMARK                         _______ _______ _______ _____ _____    ______ ____
ROOT
ATOM      1  C   UNL     1      45.017   6.080  11.167  0.00  0.00    +0.000 A 
ATOM      2  C   UNL     1      46.125   5.504  11.807  0.00  0.00    +0.000 A 
ATOM      3  C   UNL     1      46.934   6.258  12.672  0.00  0.00    +0.000 A 
ATOM      4  C   UNL     1      46.638   7.602  12.942  0.00  0.00    +0.000 A 
ATOM      5  C   UNL     1      45.547   8.184  12.281  0.00  0.00    +0.000 A 
ATOM      6  C   UNL     1      44.738   7.431  11.417  0.00  0.00    +0.000 A 
ENDROOT
BRANCH   1   7
ATOM      7  C   UNL     1      44.179   5.267  10.211  0.00  0.00    +0.000 C 
BRANCH   7  10
ATOM      8  C   UNL     1      45.085   3.221   9.208  0.00  0.00    +0.000 C 
ATOM      9  O   UNL     1      44.563   2.520  10.068  0.00  0.00    +0.000 OA
ATOM     10  N   UNL     1      44.958   4.598   9.196  0.00  0.00    +0.000 N 
ATOM     11  H   UNL     1      45.341   5.134   8.434  0.00  0.00    +0.000 HD
BRANCH   8  15
ATOM     12  C   UNL     1      47.666   2.372   5.001  0.00  0.00    +0.000 C 
ATOM     13  N   UNL     1      47.027   2.255   6.290  0.00  0.00    +0.000 N 
ATOM     14  C   UNL     1      46.374   3.239   6.982  0.00  0.00    +0.000 A 
ATOM     15  C   UNL     1      45.874   2.648   8.128  0.00  0.00    +0.000 A 
ATOM     16  C   UNL     1      46.312   1.303   8.025  0.00  0.00    +0.000 A 
ATOM     17  N   UNL     1      47.013   1.066   6.913  0.00  0.00    +0.000 NA
ENDBRANCH   8  15
ENDBRANCH   7  10
ENDBRANCH   1   7
BRANCH   4  18
ATOM     18  C   UNL     1      47.450   8.407  13.931  0.00  0.00    +0.000 C 
BRANCH  18  19
ATOM     19  N   UNL     1      47.840   7.650  15.090  0.00  0.00    +0.000 N 
ATOM     20  C   UNL     1      49.089   7.088  15.211  0.00  0.00    +0.000 C 
ATOM     21  O   UNL     1      49.923   7.148  14.316  0.00  0.00    +0.000 OA
ATOM     22  H   UNL     1      47.156   7.544  15.832  0.00  0.00    +0.000 HD
BRANCH  20  23
ATOM     23  C   UNL     1      49.370   6.410  16.485  0.00  0.00    +0.000 A 
ATOM     24  C   UNL     1      50.376   6.804  17.366  0.00  0.00    +0.000 A 
ATOM     25  N   UNL     1      50.377   5.965  18.455  0.00  0.00    +0.000 N 
ATOM     26  C   UNL     1      49.402   5.028  18.297  0.00  0.00    +0.000 A 
ATOM     27  N   UNL     1      49.159   4.042  19.191  0.00  0.00    +0.000 NA
ATOM     28  C   UNL     1      48.203   3.247  18.819  0.00  0.00    +0.000 A 
ATOM     29  N   UNL     1      47.474   3.374  17.656  0.00  0.00    +0.000 N 
ATOM     30  C   UNL     1      47.674   4.391  16.749  0.00  0.00    +0.000 A 
ATOM     31  O   UNL     1      46.988   4.506  15.740  0.00  0.00    +0.000 OA
ATOM     32  C   UNL     1      48.758   5.279  17.104  0.00  0.00    +0.000 A 
ATOM     33  H   UNL     1      51.004   6.014  19.251  0.00  0.00    +0.000 HD
ATOM     34  H   UNL     1      46.741   2.721  17.429  0.00  0.00    +0.000 HD
ENDBRANCH  20  23
ENDBRANCH  18  19
ENDBRANCH   4  18
TORSDOF 6
ENDMDL
MODEL 2
REMARK VINA RESULT:    -7.429      1.635      9.545
REMARK INTER + INTRA:         -11.040
REMARK INTER:                 -10.163
REMARK INTRA:                  -0.877
REMARK UNBOUND:                -1.005
REMARK  Name = 
REMARK  7 active torsions:
REMARK  status: ('A' for Active; 'I' for Inactive)
REMARK    1  A    between atoms: C_1  and  N_2
REMARK    2  A    between atoms: C_4  and  C_5
REMARK    3  A    between atoms: N_7  and  C_8
REMARK    4  A    between atoms: C_8  and  C_9
REMARK    5  A    between atoms: C_12  and  C_13
REMARK    6  A    between atoms: C_13  and  N_14
REMARK    7  A    between atoms: C_15  and  C_17
REMARK                            x       y       z     vdW  Elec       q    Type
REMARK                         _______ _______ _______ _____ _____    ______ ____
ROOT
ATOM      1  C   UNL     1      47.702   8.058  13.695  0.00  0.00    +0.000 A 
ATOM      2  C   UNL     1      46.444   8.665  13.562  0.00  0.00    +0.000 A 
ATOM      3  C   UNL     1      45.540   8.246  12.573  0.00  0.00    +0.000 A 
ATOM      4  C   UNL     1      45.859   7.189  11.709  0.00  0.00    +0.000 A 
ATOM      5  C   UNL     1      47.126   6.601  11.825  0.00  0.00    +0.000 A 
ATOM      6  C   UNL     1      48.031   7.018  12.813  0.00  0.00    +0.000 A 
ENDROOT
BRANCH   1   7
ATOM      7  C   UNL     1      48.679   8.543  14.738  0.00  0.00    +0.000 C 
BRANCH   7  10
ATOM      8  C   UNL     1      49.130   6.936  16.534  0.00  0.00    +0.000 C 
ATOM      9  O   UNL     1      49.996   6.376  15.872  0.00  0.00    +0.000 OA
ATOM     10  N   UNL     1      48.414   8.018  16.056  0.00  0.00    +0.000 N 
ATOM     11  H   UNL     1      47.760   8.496  16.655  0.00  0.00    +0.000 HD
BRANCH   8  15
ATOM     12  C   UNL     1      48.692   4.476  20.874  0.00  0.00    +0.000 C 
ATOM     13  N   UNL     1      48.602   5.444  19.807  0.00  0.00    +0.000 N 
ATOM     14  C   UNL     1      49.235   5.400  18.595  0.00  0.00    +0.000 A 
ATOM     15  C   UNL     1      48.797   6.502  17.882  0.00  0.00    +0.000 A 
ATOM     16  C   UNL     1      47.916   7.150  18.785  0.00  0.00    +0.000 A 
ATOM     17  N   UNL     1      47.800   6.510  19.952  0.00  0.00    +0.000 NA
ENDBRANCH   8  15
ENDBRANCH   7  10
ENDBRANCH   1   7
BRANCH   4  18
ATOM     18  C   UNL     1      44.868   6.672  10.691  0.00  0.00    +0.000 C 
BRANCH  18  19
ATOM     19  N   UNL     1      45.253   5.411  10.118  0.00  0.00    +0.000 N 
ATOM     20  C   UNL     1      44.380   4.353  10.022  0.00  0.00    +0.000 C 
ATOM     21  O   UNL     1      43.242   4.401  10.472  0.00  0.00    +0.000 OA
ATOM     22  H   UNL     1      46.204   5.324   9.774  0.00  0.00    +0.000 HD
BRANCH  20  23
ATOM     23  C   UNL     1      44.893   3.155   9.341  0.00  0.00    +0.000 A 
ATOM     24  C   UNL     1      44.421   1.866   9.583  0.00  0.00    +0.000 A 
ATOM     25  N   UNL     1      45.107   0.976   8.792  0.00  0.00    +0.000 N 
ATOM     26  C   UNL     1      46.023   1.657   8.049  0.00  0.00    +0.000 A 
ATOM     27  N   UNL     1      46.874   1.061   7.181  0.00  0.00    +0.000 NA
ATOM     28  C   UNL     1      47.678   1.901   6.606  0.00  0.00    +0.000 A 
ATOM     29  N   UNL     1      47.682   3.264   6.814  0.00  0.00    +0.000 N 
ATOM     30  C   UNL     1      46.801   3.900   7.660  0.00  0.00    +0.000 A 
ATOM     31  O   UNL     1      46.798   5.117   7.801  0.00  0.00    +0.000 OA
ATOM     32  C   UNL     1      45.911   2.996   8.354  0.00  0.00    +0.000 A 
ATOM     33  H   UNL     1      44.974  -0.029   8.761  0.00  0.00    +0.000 HD
ATOM     34  H   UNL     1      48.335   3.862   6.330  0.00  0.00    +0.000 HD
ENDBRANCH  20  23
ENDBRANCH  18  19
ENDBRANCH   4  18
TORSDOF 6
ENDMDL
MODEL 3
REMARK VINA RESULT:    -7.280      2.012      2.250
REMARK INTER + INTRA:         -10.839
REMARK INTER:                 -10.024
REMARK INTRA:                  -0.815
REMARK UNBOUND:                -1.005
REMARK  Name = 
REMARK  7 active torsions:
REMARK  status: ('A' for Active; 'I' for Inactive)
REMARK    1  A    between atoms: C_1  and  N_2
REMARK    2  A    between atoms: C_4  and  C_5
REMARK    3  A    between atoms: N_7  and  C_8
REMARK    4  A    between atoms: C_8  and  C_9
REMARK    5  A    between atoms: C_12  and  C_13
REMARK    6  A    between atoms: C_13  and  N_14
REMARK    7  A    between atoms: C_15  and  C_17
REMARK                            x       y       z     vdW  Elec       q    Type
REMARK                         _______ _______ _______ _____ _____    ______ ____
ROOT
ATOM      1  C   UNL     1      45.341   6.538  11.681  0.00  0.00    +0.000 A 
ATOM      2  C   UNL     1      45.070   7.911  11.768  0.00  0.00    +0.000 A 
ATOM      3  C   UNL     1      45.843   8.750  12.586  0.00  0.00    +0.000 A 
ATOM      4  C   UNL     1      46.927   8.241  13.316  0.00  0.00    +0.000 A 
ATOM      5  C   UNL     1      47.180   6.864  13.249  0.00  0.00    +0.000 A 
ATOM      6  C   UNL     1      46.408   6.025  12.431  0.00  0.00    +0.000 A 
ENDROOT
BRANCH   1   7
ATOM      7  C   UNL     1      44.477   5.641  10.827  0.00  0.00    +0.000 C 
BRANCH   7  10
ATOM      8  C   UNL     1      44.809   3.651   9.433  0.00  0.00    +0.000 C 
ATOM      9  O   UNL     1      43.813   3.108   9.900  0.00  0.00    +0.000 OA
ATOM     10  N   UNL     1      45.225   4.907   9.834  0.00  0.00    +0.000 N 
ATOM     11  H   UNL     1      46.006   5.350   9.377  0.00  0.00    +0.000 HD
BRANCH   8  15
ATOM     12  C   UNL     1      47.530   2.547   5.377  0.00  0.00    +0.000 C 
ATOM     13  N   UNL     1      46.836   2.505   6.642  0.00  0.00    +0.000 N 
ATOM     14  C   UNL     1      46.187   3.536   7.264  0.00  0.00    +0.000 A 
ATOM     15  C   UNL     1      45.622   3.009   8.412  0.00  0.00    +0.000 A 
ATOM     16  C   UNL     1      46.023   1.649   8.383  0.00  0.00    +0.000 A 
ATOM     17  N   UNL     1      46.761   1.344   7.312  0.00  0.00    +0.000 NA
ENDBRANCH   8  15
ENDBRANCH   7  10
ENDBRANCH   1   7
BRANCH   4  18
ATOM     18  C   UNL     1      47.820   9.142  14.139  0.00  0.00    +0.000 C 
BRANCH  18  19
ATOM     19  N   UNL     1      47.597   9.017  15.554  0.00  0.00    +0.000 N 
ATOM     20  C   UNL     1      48.483   8.365  16.380  0.00  0.00    +0.000 C 
ATOM     21  O   UNL     1      49.482   7.802  15.952  0.00  0.00    +0.000 OA
ATOM     22  H   UNL     1      46.755   9.436  15.934  0.00  0.00    +0.000 HD
BRANCH  20  23
ATOM     23  C   UNL     1      48.160   8.386  17.814  0.00  0.00    +0.000 A 
ATOM     24  C   UNL     1      48.059   9.554  18.568  0.00  0.00    +0.000 A 
ATOM     25  N   UNL     1      47.750   9.230  19.867  0.00  0.00    +0.000 N 
ATOM     26  C   UNL     1      47.660   7.875  19.978  0.00  0.00    +0.000 A 
ATOM     27  N   UNL     1      47.388   7.236  21.139  0.00  0.00    +0.000 NA
ATOM     28  C   UNL     1      47.381   5.944  21.015  0.00  0.00    +0.000 A 
ATOM     29  N   UNL     1      47.601   5.260  19.838  0.00  0.00    +0.000 N 
ATOM     30  C   UNL     1      47.839   5.887  18.635  0.00  0.00    +0.000 A 
ATOM     31  O   UNL     1      47.994   5.259  17.594  0.00  0.00    +0.000 OA
ATOM     32  C   UNL     1      47.895   7.328  18.735  0.00  0.00    +0.000 A 
ATOM     33  H   UNL     1      47.619   9.879  20.635  0.00  0.00    +0.000 HD
ATOM     34  H   UNL     1      47.577   4.252  19.811  0.00  0.00    +0.000 HD
ENDBRANCH  20  23
ENDBRANCH  18  19
ENDBRANCH   4  18
TORSDOF 6
ENDMDL
MODEL 4
REMARK VINA RESULT:    -7.090      4.523      7.502
REMARK INTER + INTRA:         -10.582
REMARK INTER:                  -9.622
REMARK INTRA:                  -0.960
REMARK UNBOUND:                -1.005
REMARK  Name = 
REMARK  7 active torsions:
REMARK  status: ('A' for Active; 'I' for Inactive)
REMARK    1  A    between atoms: C_1  and  N_2
REMARK    2  A    between atoms: C_4  and  C_5
REMARK    3  A    between atoms: N_7  and  C_8
REMARK    4  A    between atoms: C_8  and  C_9
REMARK    5  A    between atoms: C_12  and  C_13
REMARK    6  A    between atoms: C_13  and  N_14
REMARK    7  A    between atoms: C_15  and  C_17
REMARK                            x       y       z     vdW  Elec       q    Type
REMARK                         _______ _______ _______ _____ _____    ______ ____
ROOT
ATOM      1  C   UNL     1      50.584   8.456  11.955  0.00  0.00    +0.000 A 
ATOM      2  C   UNL     1      50.002   9.601  12.518  0.00  0.00    +0.000 A 
ATOM      3  C   UNL     1      48.619   9.666  12.757  0.00  0.00    +0.000 A 
ATOM      4  C   UNL     1      47.788   8.575  12.464  0.00  0.00    +0.000 A 
ATOM      5  C   UNL     1      48.368   7.442  11.875  0.00  0.00    +0.000 A 
ATOM      6  C   UNL     1      49.749   7.376  11.637  0.00  0.00    +0.000 A 
ENDROOT
BRANCH   1   7
ATOM      7  C   UNL     1      52.066   8.414  11.669  0.00  0.00    +0.000 C 
BRANCH   7  10
ATOM      8  C   UNL     1      52.716   7.739   9.403  0.00  0.00    +0.000 C 
ATOM      9  O   UNL     1      52.659   8.895   8.998  0.00  0.00    +0.000 OA
ATOM     10  N   UNL     1      52.433   7.397  10.712  0.00  0.00    +0.000 N 
ATOM     11  H   UNL     1      52.561   6.448  11.026  0.00  0.00    +0.000 HD
BRANCH   8  15
ATOM     12  C   UNL     1      54.920   3.803   7.228  0.00  0.00    +0.000 C 
ATOM     13  N   UNL     1      54.042   4.899   7.561  0.00  0.00    +0.000 N 
ATOM     14  C   UNL     1      54.092   5.691   8.675  0.00  0.00    +0.000 A 
ATOM     15  C   UNL     1      53.097   6.640   8.528  0.00  0.00    +0.000 A 
ATOM     16  C   UNL     1      52.496   6.301   7.289  0.00  0.00    +0.000 A 
ATOM     17  N   UNL     1      53.067   5.244   6.704  0.00  0.00    +0.000 NA
ENDBRANCH   8  15
ENDBRANCH   7  10
ENDBRANCH   1   7
BRANCH   4  18
ATOM     18  C   UNL     1      46.312   8.597  12.787  0.00  0.00    +0.000 C 
BRANCH  18  19
ATOM     19  N   UNL     1      45.676   7.319  12.609  0.00  0.00    +0.000 N 
ATOM     20  C   UNL     1      44.644   7.133  11.720  0.00  0.00    +0.000 C 
ATOM     21  O   UNL     1      44.165   8.055  11.070  0.00  0.00    +0.000 OA
ATOM     22  H   UNL     1      46.020   6.543  13.164  0.00  0.00    +0.000 HD
BRANCH  20  23
ATOM     23  C   UNL     1      44.147   5.756  11.590  0.00  0.00    +0.000 A 
ATOM     24  C   UNL     1      43.221   5.182  12.459  0.00  0.00    +0.000 A 
ATOM     25  N   UNL     1      42.970   3.889  12.065  0.00  0.00    +0.000 N 
ATOM     26  C   UNL     1      43.721   3.606  10.965  0.00  0.00    +0.000 A 
ATOM     27  N   UNL     1      43.717   2.402  10.346  0.00  0.00    +0.000 NA
ATOM     28  C   UNL     1      44.532   2.351   9.338  0.00  0.00    +0.000 A 
ATOM     29  N   UNL     1      45.318   3.394   8.900  0.00  0.00    +0.000 N 
ATOM     30  C   UNL     1      45.312   4.640   9.487  0.00  0.00    +0.000 A 
ATOM     31  O   UNL     1      45.992   5.565   9.057  0.00  0.00    +0.000 OA
ATOM     32  C   UNL     1      44.446   4.732  10.641  0.00  0.00    +0.000 A 
ATOM     33  H   UNL     1      42.340   3.234  12.516  0.00  0.00    +0.000 HD
ATOM     34  H   UNL     1      45.929   3.287   8.105  0.00  0.00    +0.000 HD
ENDBRANCH  20  23
ENDBRANCH  18  19
ENDBRANCH   4  18
TORSDOF 6
ENDMDL
MODEL 5
REMARK VINA RESULT:    -6.812      4.392      7.924
REMARK INTER + INTRA:         -10.207
REMARK INTER:                  -9.319
REMARK INTRA:                  -0.888
REMARK UNBOUND:                -1.005
REMARK  Name = 
REMARK  7 active torsions:
REMARK  status: ('A' for Active; 'I' for Inactive)
REMARK    1  A    between atoms: C_1  and  N_2
REMARK    2  A    between atoms: C_4  and  C_5
REMARK    3  A    between atoms: N_7  and  C_8
REMARK    4  A    between atoms: C_8  and  C_9
REMARK    5  A    between atoms: C_12  and  C_13
REMARK    6  A    between atoms: C_13  and  N_14
REMARK    7  A    between atoms: C_15  and  C_17
REMARK                            x       y       z     vdW  Elec       q    Type
REMARK                         _______ _______ _______ _____ _____    ______ ____
ROOT
ATOM      1  C   UNL     1      49.547   9.118  11.869  0.00  0.00    +0.000 A 
ATOM      2  C   UNL     1      49.289   7.743  11.785  0.00  0.00    +0.000 A 
ATOM      3  C   UNL     1      48.019   7.225  12.090  0.00  0.00    +0.000 A 
ATOM      4  C   UNL     1      46.967   8.075  12.458  0.00  0.00    +0.000 A 
ATOM      5  C   UNL     1      47.234   9.448  12.567  0.00  0.00    +0.000 A 
ATOM      6  C   UNL     1      48.502   9.965  12.263  0.00  0.00    +0.000 A 
ENDROOT
BRANCH   1   7
ATOM      7  C   UNL     1      50.927   9.657  11.575  0.00  0.00    +0.000 C 
BRANCH   7  10
ATOM      8  C   UNL     1      52.784   8.160  11.008  0.00  0.00    +0.000 C 
ATOM      9  O   UNL     1      53.213   8.190  12.156  0.00  0.00    +0.000 OA
ATOM     10  N   UNL     1      51.658   8.860  10.618  0.00  0.00    +0.000 N 
ATOM     11  H   UNL     1      51.294   8.755   9.685  0.00  0.00    +0.000 HD
BRANCH   8  15
ATOM     12  C   UNL     1      53.849   5.196   7.114  0.00  0.00    +0.000 C 
ATOM     13  N   UNL     1      53.924   6.083   8.250  0.00  0.00    +0.000 N 
ATOM     14  C   UNL     1      52.880   6.661   8.919  0.00  0.00    +0.000 A 
ATOM     15  C   UNL     1      53.431   7.373   9.970  0.00  0.00    +0.000 A 
ATOM     16  C   UNL     1      54.825   7.164   9.814  0.00  0.00    +0.000 A 
ATOM     17  N   UNL     1      55.124   6.385   8.770  0.00  0.00    +0.000 NA
ENDBRANCH   8  15
ENDBRANCH   7  10
ENDBRANCH   1   7
BRANCH   4  18
ATOM     18  C   UNL     1      45.574   7.546  12.712  0.00  0.00    +0.000 C 
BRANCH  18  19
ATOM     19  N   UNL     1      45.384   6.204  12.231  0.00  0.00    +0.000 N 
ATOM     20  C   UNL     1      44.273   5.835  11.509  0.00  0.00    +0.000 C 
ATOM     21  O   UNL     1      43.352   6.611  11.284  0.00  0.00    +0.000 OA
ATOM     22  H   UNL     1      46.109   5.525  12.438  0.00  0.00    +0.000 HD
BRANCH  20  23
ATOM     23  C   UNL     1      44.255   4.450  11.018  0.00  0.00    +0.000 A 
ATOM     24  C   UNL     1      43.577   3.412  11.656  0.00  0.00    +0.000 A 
ATOM     25  N   UNL     1      43.761   2.248  10.947  0.00  0.00    +0.000 N 
ATOM     26  C   UNL     1      44.554   2.504   9.870  0.00  0.00    +0.000 A 
ATOM     27  N   UNL     1      44.939   1.558   8.983  0.00  0.00    +0.000 NA
ATOM     28  C   UNL     1      45.716   2.023   8.054  0.00  0.00    +0.000 A 
ATOM     29  N   UNL     1      46.112   3.338   7.936  0.00  0.00    +0.000 N 
ATOM     30  C   UNL     1      45.702   4.328   8.802  0.00  0.00    +0.000 A 
ATOM     31  O   UNL     1      46.036   5.498   8.656  0.00  0.00    +0.000 OA
ATOM     32  C   UNL     1      44.865   3.847   9.877  0.00  0.00    +0.000 A 
ATOM     33  H   UNL     1      43.385   1.335  11.181  0.00  0.00    +0.000 HD
ATOM     34  H   UNL     1      46.717   3.634   7.186  0.00  0.00    +0.000 HD
ENDBRANCH  20  23
ENDBRANCH  18  19
ENDBRANCH   4  18
TORSDOF 6
ENDMDL
MODEL 6
REMARK VINA RESULT:    -6.799      3.490      4.235
REMARK INTER + INTRA:         -10.189
REMARK INTER:                  -9.268
REMARK INTRA:                  -0.921
REMARK UNBOUND:                -1.005
REMARK  Name = 
REMARK  7 active torsions:
REMARK  status: ('A' for Active; 'I' for Inactive)
REMARK    1  A    between atoms: C_1  and  N_2
REMARK    2  A    between atoms: C_4  and  C_5
REMARK    3  A    between atoms: N_7  and  C_8
REMARK    4  A    between atoms: C_8  and  C_9
REMARK    5  A    between atoms: C_12  and  C_13
REMARK    6  A    between atoms: C_13  and  N_14
REMARK    7  A    between atoms: C_15  and  C_17
REMARK                            x       y       z     vdW  Elec       q    Type
REMARK                         _______ _______ _______ _____ _____    ______ ____
ROOT
ATOM      1  C   UNL     1      44.585   4.633  11.729  0.00  0.00    +0.000 A 
ATOM      2  C   UNL     1      45.749   4.782  12.498  0.00  0.00    +0.000 A 
ATOM      3  C   UNL     1      46.179   6.050  12.919  0.00  0.00    +0.000 A 
ATOM      4  C   UNL     1      45.440   7.200  12.606  0.00  0.00    +0.000 A 
ATOM      5  C   UNL     1      44.293   7.053  11.814  0.00  0.00    +0.000 A 
ATOM      6  C   UNL     1      43.862   5.786  11.393  0.00  0.00    +0.000 A 
ENDROOT
BRANCH   1   7
ATOM      7  C   UNL     1      44.155   3.267  11.251  0.00  0.00    +0.000 C 
BRANCH   7  10
ATOM      8  C   UNL     1      44.963   3.237   8.936  0.00  0.00    +0.000 C 
ATOM      9  O   UNL     1      44.201   4.142   8.615  0.00  0.00    +0.000 OA
ATOM     10  N   UNL     1      45.011   2.728  10.221  0.00  0.00    +0.000 N 
ATOM     11  H   UNL     1      45.699   2.034  10.465  0.00  0.00    +0.000 HD
BRANCH   8  15
ATOM     12  C   UNL     1      47.993   2.249   5.073  0.00  0.00    +0.000 C 
ATOM     13  N   UNL     1      47.233   2.185   6.298  0.00  0.00    +0.000 N 
ATOM     14  C   UNL     1      46.468   3.176   6.851  0.00  0.00    +0.000 A 
ATOM     15  C   UNL     1      45.883   2.636   7.982  0.00  0.00    +0.000 A 
ATOM     16  C   UNL     1      46.392   1.313   8.018  0.00  0.00    +0.000 A 
ATOM     17  N   UNL     1      47.212   1.040   7.000  0.00  0.00    +0.000 NA
ENDBRANCH   8  15
ENDBRANCH   7  10
ENDBRANCH   1   7
BRANCH   4  18
ATOM     18  C   UNL     1      45.845   8.564  13.118  0.00  0.00    +0.000 C 
BRANCH  18  19
ATOM     19  N   UNL     1      47.254   8.821  12.987  0.00  0.00    +0.000 N 
ATOM     20  C   UNL     1      48.089   8.889  14.078  0.00  0.00    +0.000 C 
ATOM     21  O   UNL     1      47.675   8.795  15.226  0.00  0.00    +0.000 OA
ATOM     22  H   UNL     1      47.622   8.947  12.051  0.00  0.00    +0.000 HD
BRANCH  20  23
ATOM     23  C   UNL     1      49.517   9.080  13.784  0.00  0.00    +0.000 A 
ATOM     24  C   UNL     1      50.362   9.888  14.543  0.00  0.00    +0.000 A 
ATOM     25  N   UNL     1      51.626   9.853  14.004  0.00  0.00    +0.000 N 
ATOM     26  C   UNL     1      51.619   9.050  12.905  0.00  0.00    +0.000 A 
ATOM     27  N   UNL     1      52.709   8.824  12.136  0.00  0.00    +0.000 NA
ATOM     28  C   UNL     1      52.463   8.050  11.124  0.00  0.00    +0.000 A 
ATOM     29  N   UNL     1      51.239   7.481  10.841  0.00  0.00    +0.000 N 
ATOM     30  C   UNL     1      50.125   7.662  11.629  0.00  0.00    +0.000 A 
ATOM     31  O   UNL     1      49.056   7.116  11.379  0.00  0.00    +0.000 OA
ATOM     32  C   UNL     1      50.344   8.551  12.748  0.00  0.00    +0.000 A 
ATOM     33  H   UNL     1      52.441  10.348  14.349  0.00  0.00    +0.000 HD
ATOM     34  H   UNL     1      51.117   6.885  10.037  0.00  0.00    +0.000 HD
ENDBRANCH  20  23
ENDBRANCH  18  19
ENDBRANCH   4  18
TORSDOF 6
ENDMDL
MODEL 7
REMARK VINA RESULT:    -6.767      3.574      8.618
REMARK INTER + INTRA:         -10.146
REMARK INTER:                  -9.199
REMARK INTRA:                  -0.947
REMARK UNBOUND:                -1.005
REMARK  Name = 
REMARK  7 active torsions:
REMARK  status: ('A' for Active; 'I' for Inactive)
REMARK    1  A    between atoms: C_1  and  N_2
REMARK    2  A    between atoms: C_4  and  C_5
REMARK    3  A    between atoms: N_7  and  C_8
REMARK    4  A    between atoms: C_8  and  C_9
REMARK    5  A    between atoms: C_12  and  C_13
REMARK    6  A    between atoms: C_13  and  N_14
REMARK    7  A    between atoms: C_15  and  C_17
REMARK                            x       y       z     vdW  Elec       q    Type
REMARK                         _______ _______ _______ _____ _____    ______ ____
ROOT
ATOM      1  C   UNL     1      47.197   7.944  13.104  0.00  0.00    +0.000 A 
ATOM      2  C   UNL     1      47.507   6.577  13.155  0.00  0.00    +0.000 A 
ATOM      3  C   UNL     1      46.527   5.603  12.904  0.00  0.00    +0.000 A 
ATOM      4  C   UNL     1      45.217   5.973  12.566  0.00  0.00    +0.000 A 
ATOM      5  C   UNL     1      44.902   7.339  12.542  0.00  0.00    +0.000 A 
ATOM      6  C   UNL     1      45.881   8.313  12.792  0.00  0.00    +0.000 A 
ENDROOT
BRANCH   1   7
ATOM      7  C   UNL     1      48.251   8.979  13.413  0.00  0.00    +0.000 C 
BRANCH   7  10
ATOM      8  C   UNL     1      50.667   8.612  13.202  0.00  0.00    +0.000 C 
ATOM      9  O   UNL     1      50.802   8.530  14.418  0.00  0.00    +0.000 OA
ATOM     10  N   UNL     1      49.440   8.841  12.606  0.00  0.00    +0.000 N 
ATOM     11  H   UNL     1      49.356   8.831  11.602  0.00  0.00    +0.000 HD
BRANCH   8  15
ATOM     12  C   UNL     1      53.660   7.974   9.238  0.00  0.00    +0.000 C 
ATOM     13  N   UNL     1      53.132   8.203  10.562  0.00  0.00    +0.000 N 
ATOM     14  C   UNL     1      51.817   8.320  10.920  0.00  0.00    +0.000 A 
ATOM     15  C   UNL     1      51.795   8.467  12.295  0.00  0.00    +0.000 A 
ATOM     16  C   UNL     1      53.167   8.446  12.651  0.00  0.00    +0.000 A 
ATOM     17  N   UNL     1      53.978   8.289  11.601  0.00  0.00    +0.000 NA
ENDBRANCH   8  15
ENDBRANCH   7  10
ENDBRANCH   1   7
BRANCH   4  18
ATOM     18  C   UNL     1      44.169   4.942  12.215  0.00  0.00    +0.000 C 
BRANCH  18  19
ATOM     19  N   UNL     1      44.662   3.913  11.339  0.00  0.00    +0.000 N 
ATOM     20  C   UNL     1      44.346   3.878  10.001  0.00  0.00    +0.000 C 
ATOM     21  O   UNL     1      43.580   4.685   9.488  0.00  0.00    +0.000 OA
ATOM     22  H   UNL     1      45.264   3.203  11.742  0.00  0.00    +0.000 HD
BRANCH  20  23
ATOM     23  C   UNL     1      44.986   2.813   9.216  0.00  0.00    +0.000 A 
ATOM     24  C   UNL     1      44.656   1.463   9.330  0.00  0.00    +0.000 A 
ATOM     25  N   UNL     1      45.435   0.732   8.465  0.00  0.00    +0.000 N 
ATOM     26  C   UNL     1      46.272   1.575   7.799  0.00  0.00    +0.000 A 
ATOM     27  N   UNL     1      47.183   1.161   6.888  0.00  0.00    +0.000 NA
ATOM     28  C   UNL     1      47.891   2.134   6.403  0.00  0.00    +0.000 A 
ATOM     29  N   UNL     1      47.747   3.463   6.738  0.00  0.00    +0.000 N 
ATOM     30  C   UNL     1      46.801   3.916   7.632  0.00  0.00    +0.000 A 
ATOM     31  O   UNL     1      46.666   5.107   7.887  0.00  0.00    +0.000 OA
ATOM     32  C   UNL     1      46.015   2.860   8.228  0.00  0.00    +0.000 A 
ATOM     33  H   UNL     1      45.413  -0.274   8.338  0.00  0.00    +0.000 HD
ATOM     34  H   UNL     1      48.330   4.171   6.320  0.00  0.00    +0.000 HD
ENDBRANCH  20  23
ENDBRANCH  18  19
ENDBRANCH   4  18
TORSDOF 6
ENDMDL
MODEL 8
REMARK VINA RESULT:    -6.628      2.926      3.761
REMARK INTER + INTRA:          -9.959
REMARK INTER:                  -9.013
REMARK INTRA:                  -0.946
REMARK UNBOUND:                -1.005
REMARK  Name = 
REMARK  7 active torsions:
REMARK  status: ('A' for Active; 'I' for Inactive)
REMARK    1  A    between atoms: C_1  and  N_2
REMARK    2  A    between atoms: C_4  and  C_5
REMARK    3  A    between atoms: N_7  and  C_8
REMARK    4  A    between atoms: C_8  and  C_9
REMARK    5  A    between atoms: C_12  and  C_13
REMARK    6  A    between atoms: C_13  and  N_14
REMARK    7  A    between atoms: C_15  and  C_17
REMARK                            x       y       z     vdW  Elec       q    Type
REMARK                         _______ _______ _______ _____ _____    ______ ____
ROOT
ATOM      1  C   UNL     1      46.352   4.777  14.123  0.00  0.00    +0.000 A 
ATOM      2  C   UNL     1      46.641   4.130  15.333  0.00  0.00    +0.000 A 
ATOM      3  C   UNL     1      47.663   4.595  16.176  0.00  0.00    +0.000 A 
ATOM      4  C   UNL     1      48.403   5.738  15.843  0.00  0.00    +0.000 A 
ATOM      5  C   UNL     1      48.132   6.368  14.620  0.00  0.00    +0.000 A 
ATOM      6  C   UNL     1      47.111   5.904  13.777  0.00  0.00    +0.000 A 
ENDROOT
BRANCH   1   7
ATOM      7  C   UNL     1      45.276   4.244  13.208  0.00  0.00    +0.000 C 
BRANCH   7  10
ATOM      8  C   UNL     1      44.798   3.872  10.832  0.00  0.00    +0.000 C 
ATOM      9  O   UNL     1      43.592   3.806  11.043  0.00  0.00    +0.000 OA
ATOM     10  N   UNL     1      45.717   4.080  11.843  0.00  0.00    +0.000 N 
ATOM     11  H   UNL     1      46.693   4.200  11.623  0.00  0.00    +0.000 HD
BRANCH   8  15
ATOM     12  C   UNL     1      46.643   2.219   6.480  0.00  0.00    +0.000 C 
ATOM     13  N   UNL     1      46.149   3.037   7.562  0.00  0.00    +0.000 N 
ATOM     14  C   UNL     1      45.622   2.607   8.749  0.00  0.00    +0.000 A 
ATOM     15  C   UNL     1      45.348   3.742   9.492  0.00  0.00    +0.000 A 
ATOM     16  C   UNL     1      45.734   4.801   8.631  0.00  0.00    +0.000 A 
ATOM     17  N   UNL     1      46.217   4.374   7.461  0.00  0.00    +0.000 NA
ENDBRANCH   8  15
ENDBRANCH   7  10
ENDBRANCH   1   7
BRANCH   4  18
ATOM     18  C   UNL     1      49.453   6.300  16.775  0.00  0.00    +0.000 C 
BRANCH  18  19
ATOM     19  N   UNL     1      50.356   5.299  17.276  0.00  0.00    +0.000 N 
ATOM     20  C   UNL     1      51.717   5.387  17.099  0.00  0.00    +0.000 C 
ATOM     21  O   UNL     1      52.236   6.289  16.453  0.00  0.00    +0.000 OA
ATOM     22  H   UNL     1      49.954   4.515  17.779  0.00  0.00    +0.000 HD
BRANCH  20  23
ATOM     23  C   UNL     1      52.518   4.331  17.735  0.00  0.00    +0.000 A 
ATOM     24  C   UNL     1      53.684   4.574  18.459  0.00  0.00    +0.000 A 
ATOM     25  N   UNL     1      54.190   3.381  18.916  0.00  0.00    +0.000 N 
ATOM     26  C   UNL     1      53.386   2.366  18.495  0.00  0.00    +0.000 A 
ATOM     27  N   UNL     1      53.625   1.061  18.764  0.00  0.00    +0.000 NA
ATOM     28  C   UNL     1      52.743   0.268  18.238  0.00  0.00    +0.000 A 
ATOM     29  N   UNL     1      51.654   0.673  17.497  0.00  0.00    +0.000 N 
ATOM     30  C   UNL     1      51.366   1.996  17.243  0.00  0.00    +0.000 A 
ATOM     31  O   UNL     1      50.371   2.335  16.613  0.00  0.00    +0.000 OA
ATOM     32  C   UNL     1      52.345   2.915  17.778  0.00  0.00    +0.000 A 
ATOM     33  H   UNL     1      55.032   3.256  19.469  0.00  0.00    +0.000 HD
ATOM     34  H   UNL     1      51.004   0.001  17.119  0.00  0.00    +0.000 HD
ENDBRANCH  20  23
ENDBRANCH  18  19
ENDBRANCH   4  18
TORSDOF 6
ENDMDL
MODEL 9
REMARK VINA RESULT:    -6.545      5.992      8.417
REMARK INTER + INTRA:          -9.846
REMARK INTER:                  -9.087
REMARK INTRA:                  -0.759
REMARK UNBOUND:                -1.005
REMARK  Name = 
REMARK  7 active torsions:
REMARK  status: ('A' for Active; 'I' for Inactive)
REMARK    1  A    between atoms: C_1  and  N_2
REMARK    2  A    between atoms: C_4  and  C_5
REMARK    3  A    between atoms: N_7  and  C_8
REMARK    4  A    between atoms: C_8  and  C_9
REMARK    5  A    between atoms: C_12  and  C_13
REMARK    6  A    between atoms: C_13  and  N_14
REMARK    7  A    between atoms: C_15  and  C_17
REMARK                            x       y       z     vdW  Elec       q    Type
REMARK                         _______ _______ _______ _____ _____    ______ ____
ROOT
ATOM      1  C   UNL     1      48.672   3.397  17.244  0.00  0.00    +0.000 A 
ATOM      2  C   UNL     1      49.282   2.166  16.962  0.00  0.00    +0.000 A 
ATOM      3  C   UNL     1      50.651   1.966  17.198  0.00  0.00    +0.000 A 
ATOM      4  C   UNL     1      51.441   2.985  17.750  0.00  0.00    +0.000 A 
ATOM      5  C   UNL     1      50.837   4.224  18.006  0.00  0.00    +0.000 A 
ATOM      6  C   UNL     1      49.468   4.424  17.771  0.00  0.00    +0.000 A 
ENDROOT
BRANCH   1   7
ATOM      7  C   UNL     1      47.207   3.611  16.951  0.00  0.00    +0.000 C 
BRANCH   7  10
ATOM      8  C   UNL     1      47.038   4.251  14.590  0.00  0.00    +0.000 C 
ATOM      9  O   UNL     1      47.310   3.114  14.220  0.00  0.00    +0.000 OA
ATOM     10  N   UNL     1      46.969   4.600  15.926  0.00  0.00    +0.000 N 
ATOM     11  H   UNL     1      46.673   5.525  16.193  0.00  0.00    +0.000 HD
BRANCH   8  15
ATOM     12  C   UNL     1      44.922   7.513  11.433  0.00  0.00    +0.000 C 
ATOM     13  N   UNL     1      45.847   6.774  12.259  0.00  0.00    +0.000 N 
ATOM     14  C   UNL     1      45.553   5.758  13.127  0.00  0.00    +0.000 A 
ATOM     15  C   UNL     1      46.759   5.318  13.641  0.00  0.00    +0.000 A 
ATOM     16  C   UNL     1      47.712   6.167  13.021  0.00  0.00    +0.000 A 
ATOM     17  N   UNL     1      47.159   7.050  12.186  0.00  0.00    +0.000 NA
ENDBRANCH   8  15
ENDBRANCH   7  10
ENDBRANCH   1   7
BRANCH   4  18
ATOM     18  C   UNL     1      52.898   2.762  18.084  0.00  0.00    +0.000 C 
BRANCH  18  19
ATOM     19  N   UNL     1      53.422   1.538  17.540  0.00  0.00    +0.000 N 
ATOM     20  C   UNL     1      54.193   0.677  18.285  0.00  0.00    +0.000 C 
ATOM     21  O   UNL     1      54.530   0.929  19.435  0.00  0.00    +0.000 OA
ATOM     22  H   UNL     1      53.197   1.321  16.575  0.00  0.00    +0.000 HD
BRANCH  20  23
ATOM     23  C   UNL     1      54.591  -0.571  17.618  0.00  0.00    +0.000 A 
ATOM     24  C   UNL     1      55.168  -0.622  16.350  0.00  0.00    +0.000 A 
ATOM     25  N   UNL     1      55.416  -1.932  16.018  0.00  0.00    +0.000 N 
ATOM     26  C   UNL     1      55.002  -2.736  17.037  0.00  0.00    +0.000 A 
ATOM     27  N   UNL     1      55.090  -4.086  17.007  0.00  0.00    +0.000 NA
ATOM     28  C   UNL     1      54.608  -4.646  18.074  0.00  0.00    +0.000 A 
ATOM     29  N   UNL     1      54.075  -3.972  19.152  0.00  0.00    +0.000 N 
ATOM     30  C   UNL     1      54.011  -2.598  19.224  0.00  0.00    +0.000 A 
ATOM     31  O   UNL     1      53.568  -2.019  20.209  0.00  0.00    +0.000 OA
ATOM     32  C   UNL     1      54.502  -1.932  18.039  0.00  0.00    +0.000 A 
ATOM     33  H   UNL     1      55.828  -2.266  15.153  0.00  0.00    +0.000 HD
ATOM     34  H   UNL     1      53.720  -4.471  19.953  0.00  0.00    +0.000 HD
ENDBRANCH  20  23
ENDBRANCH  18  19
ENDBRANCH   4  18
TORSDOF 6
ENDMDL
