MODEL 1
REMARK VINA RESULT:    -7.790      0.000      0.000
REMARK INTER + INTRA:         -11.818
REMARK INTER:                 -10.750
REMARK INTRA:                  -1.068
REMARK UNBOUND:                -1.068
REMARK  Name = 
REMARK  7 active torsions:
REMARK  status: ('A' for Active; 'I' for Inactive)
REMARK    1  A    between atoms: C_2  and  C_21
REMARK    2  A    between atoms: N_3  and  C_4
REMARK    3  A    between atoms: C_4  and  C_5
REMARK    4  A    between atoms: C_8  and  C_9
REMARK    5  A    between atoms: C_9  and  N_10
REMARK    6  A    between atoms: C_11  and  C_13
REMARK    7  A    between atoms: C_15  and  O_16
REMARK                            x       y       z     vdW  Elec       q    Type
REMARK                         _______ _______ _______ _____ _____    ______ ____
ROOT
ATOM      1  C   UNL     1      46.577   7.580  12.867  0.00  0.00    +0.000 A 
ATOM      2  C   UNL     1      46.822   6.238  12.547  0.00  0.00    +0.000 A 
ATOM      3  C   UNL     1      45.919   5.513  11.758  0.00  0.00    +0.000 A 
ATOM      4  C   UNL     1      44.763   6.121  11.252  0.00  0.00    +0.000 A 
ATOM      5  C   UNL     1      44.528   7.469  11.558  0.00  0.00    +0.000 A 
ATOM      6  C   UNL     1      45.430   8.193  12.346  0.00  0.00    +0.000 A 
ENDROOT
BRANCH   1   7
ATOM      7  C   UNL     1      47.518   8.339  13.767  0.00  0.00    +0.000 C 
BRANCH   7  10
ATOM      8  O   UNL     1      49.965   7.141  14.170  0.00  0.00    +0.000 OA
ATOM      9  C   UNL     1      49.147   7.096  15.087  0.00  0.00    +0.000 C 
ATOM     10  N   UNL     1      47.876   7.602  14.954  0.00  0.00    +0.000 N 
ATOM     11  H   UNL     1      47.304   7.740  15.780  0.00  0.00    +0.000 HD
BRANCH   9  12
ATOM     12  C   UNL     1      49.483   6.464  16.369  0.00  0.00    +0.000 A 
ATOM     13  C   UNL     1      50.394   7.075  17.221  0.00  0.00    +0.000 A 
ATOM     14  S   UNL     1      50.664   6.213  18.669  0.00  0.00    +0.000 S 
ATOM     15  C   UNL     1      49.534   5.019  18.231  0.00  0.00    +0.000 A 
ATOM     16  N   UNL     1      49.244   3.989  19.069  0.00  0.00    +0.000 NA
ATOM     17  C   UNL     1      48.342   3.177  18.627  0.00  0.00    +0.000 A 
ATOM     18  N   UNL     1      47.713   3.297  17.416  0.00  0.00    +0.000 N 
ATOM     19  C   UNL     1      48.003   4.299  16.521  0.00  0.00    +0.000 A 
ATOM     20  O   UNL     1      47.467   4.345  15.417  0.00  0.00    +0.000 OA
ATOM     21  C   UNL     1      48.987   5.255  16.981  0.00  0.00    +0.000 A 
ATOM     22  H   UNL     1      47.026   2.617  17.121  0.00  0.00    +0.000 HD
ENDBRANCH   9  12
ENDBRANCH   7  10
ENDBRANCH   1   7
BRANCH   4  23
ATOM     23  C   UNL     1      43.796   5.354  10.387  0.00  0.00    +0.000 C 
BRANCH  23  24
ATOM     24  N   UNL     1      44.437   4.688   9.281  0.00  0.00    +0.000 N 
ATOM     25  C   UNL     1      44.484   3.314   9.204  0.00  0.00    +0.000 C 
ATOM     26  O   UNL     1      43.941   2.576  10.024  0.00  0.00    +0.000 OA
ATOM     27  H   UNL     1      45.058   5.190   8.651  0.00  0.00    +0.000 HD
BRANCH  25  28
ATOM     28  C   UNL     1      45.242   2.763   7.984  0.00  0.00    +0.000 C 
ATOM     29  C   UNL     1      46.225   1.661   8.358  0.00  0.00    +0.000 C 
ATOM     30  C   UNL     1      47.262   1.745   7.258  0.00  0.00    +0.000 C 
ATOM     31  C   UNL     1      47.364   3.244   6.992  0.00  0.00    +0.000 C 
ATOM     32  N   UNL     1      46.044   3.823   7.303  0.00  0.00    +0.000 NA
ATOM     33  H   UNL     1      45.565   4.086   6.441  0.00  0.00    +0.000 HD
BRANCH  30  34
ATOM     34  O   UNL     1      46.810   1.049   6.096  0.00  0.00    +0.000 OA
ATOM     35  H   UNL     1      47.375   1.301   5.347  0.00  0.00    +0.000 HD
ENDBRANCH  30  34
ENDBRANCH  25  28
ENDBRANCH  23  24
ENDBRANCH   4  23
TORSDOF 7
ENDMDL
MODEL 2
REMARK VINA RESULT:    -7.041      1.595      2.327
REMARK INTER + INTRA:         -10.784
REMARK INTER:                  -9.564
REMARK INTRA:                  -1.220
REMARK UNBOUND:                -1.068
REMARK  Name = 
REMARK  7 active torsions:
REMARK  status: ('A' for Active; 'I' for Inactive)
REMARK    1  A    between atoms: C_2  and  C_21
REMARK    2  A    between atoms: N_3  and  C_4
REMARK    3  A    between atoms: C_4  and  C_5
REMARK    4  A    between atoms: C_8  and  C_9
REMARK    5  A    between atoms: C_9  and  N_10
REMARK    6  A    between atoms: C_11  and  C_13
REMARK    7  A    between atoms: C_15  and  O_16
REMARK                            x       y       z     vdW  Elec       q    Type
REMARK                         _______ _______ _______ _____ _____    ______ ____
ROOT
ATOM      1  C   UNL     1      48.393   8.202  13.270  0.00  0.00    +0.000 A 
ATOM      2  C   UNL     1      47.443   9.232  13.225  0.00  0.00    +0.000 A 
ATOM      3  C   UNL     1      46.211   9.042  12.586  0.00  0.00    +0.000 A 
ATOM      4  C   UNL     1      45.891   7.810  12.000  0.00  0.00    +0.000 A 
ATOM      5  C   UNL     1      46.835   6.775  12.063  0.00  0.00    +0.000 A 
ATOM      6  C   UNL     1      48.066   6.965  12.701  0.00  0.00    +0.000 A 
ENDROOT
BRANCH   1   7
ATOM      7  C   UNL     1      49.742   8.430  13.904  0.00  0.00    +0.000 C 
BRANCH   7  10
ATOM      8  O   UNL     1      48.831   9.083  16.419  0.00  0.00    +0.000 OA
ATOM      9  C   UNL     1      49.402   8.003  16.279  0.00  0.00    +0.000 C 
ATOM     10  N   UNL     1      49.953   7.622  15.079  0.00  0.00    +0.000 N 
ATOM     11  H   UNL     1      50.225   6.655  14.939  0.00  0.00    +0.000 HD
BRANCH   9  12
ATOM     12  C   UNL     1      49.551   7.075  17.407  0.00  0.00    +0.000 A 
ATOM     13  C   UNL     1      50.199   7.493  18.562  0.00  0.00    +0.000 A 
ATOM     14  S   UNL     1      50.279   6.296  19.775  0.00  0.00    +0.000 S 
ATOM     15  C   UNL     1      49.405   5.193  18.818  0.00  0.00    +0.000 A 
ATOM     16  N   UNL     1      49.081   3.961  19.291  0.00  0.00    +0.000 NA
ATOM     17  C   UNL     1      48.385   3.241  18.474  0.00  0.00    +0.000 A 
ATOM     18  N   UNL     1      47.996   3.639  17.222  0.00  0.00    +0.000 N 
ATOM     19  C   UNL     1      48.336   4.859  16.690  0.00  0.00    +0.000 A 
ATOM     20  O   UNL     1      48.026   5.164  15.541  0.00  0.00    +0.000 OA
ATOM     21  C   UNL     1      49.091   5.718  17.577  0.00  0.00    +0.000 A 
ATOM     22  H   UNL     1      47.465   3.021  16.626  0.00  0.00    +0.000 HD
ENDBRANCH   9  12
ENDBRANCH   7  10
ENDBRANCH   1   7
BRANCH   4  23
ATOM     23  C   UNL     1      44.560   7.591  11.327  0.00  0.00    +0.000 C 
BRANCH  23  24
ATOM     24  N   UNL     1      44.493   6.345  10.606  0.00  0.00    +0.000 N 
ATOM     25  C   UNL     1      43.705   5.305  11.047  0.00  0.00    +0.000 C 
ATOM     26  O   UNL     1      42.973   5.387  12.031  0.00  0.00    +0.000 OA
ATOM     27  H   UNL     1      45.179   6.111   9.891  0.00  0.00    +0.000 HD
BRANCH  25  28
ATOM     28  C   UNL     1      43.781   4.031  10.188  0.00  0.00    +0.000 C 
ATOM     29  C   UNL     1      44.996   3.175  10.519  0.00  0.00    +0.000 C 
ATOM     30  C   UNL     1      45.247   2.427   9.226  0.00  0.00    +0.000 C 
ATOM     31  C   UNL     1      44.908   3.461   8.157  0.00  0.00    +0.000 C 
ATOM     32  N   UNL     1      43.879   4.347   8.731  0.00  0.00    +0.000 NA
ATOM     33  H   UNL     1      42.974   4.159   8.298  0.00  0.00    +0.000 HD
BRANCH  30  34
ATOM     34  O   UNL     1      44.382   1.294   9.134  0.00  0.00    +0.000 OA
ATOM     35  H   UNL     1      43.477   1.580   9.343  0.00  0.00    +0.000 HD
ENDBRANCH  30  34
ENDBRANCH  25  28
ENDBRANCH  23  24
ENDBRANCH   4  23
TORSDOF 7
ENDMDL
MODEL 3
REMARK VINA RESULT:    -7.025      4.841      9.979
REMARK INTER + INTRA:         -10.761
REMARK INTER:                  -9.882
REMARK INTRA:                  -0.879
REMARK UNBOUND:                -1.068
REMARK  Name = 
REMARK  7 active torsions:
REMARK  status: ('A' for Active; 'I' for Inactive)
REMARK    1  A    between atoms: C_2  and  C_21
REMARK    2  A    between atoms: N_3  and  C_4
REMARK    3  A    between atoms: C_4  and  C_5
REMARK    4  A    between atoms: C_8  and  C_9
REMARK    5  A    between atoms: C_9  and  N_10
REMARK    6  A    between atoms: C_11  and  C_13
REMARK    7  A    between atoms: C_15  and  O_16
REMARK                            x       y       z     vdW  Elec       q    Type
REMARK                         _______ _______ _______ _____ _____    ______ ____
ROOT
ATOM      1  C   UNL     1      48.672   3.325  17.143  0.00  0.00    +0.000 A 
ATOM      2  C   UNL     1      49.461   2.179  16.971  0.00  0.00    +0.000 A 
ATOM      3  C   UNL     1      50.828   2.199  17.278  0.00  0.00    +0.000 A 
ATOM      4  C   UNL     1      51.431   3.356  17.786  0.00  0.00    +0.000 A 
ATOM      5  C   UNL     1      50.636   4.496  17.976  0.00  0.00    +0.000 A 
ATOM      6  C   UNL     1      49.271   4.477  17.669  0.00  0.00    +0.000 A 
ENDROOT
BRANCH   1   7
ATOM      7  C   UNL     1      47.216   3.320  16.754  0.00  0.00    +0.000 C 
BRANCH   7  10
ATOM      8  O   UNL     1      47.233   3.084  14.010  0.00  0.00    +0.000 OA
ATOM      9  C   UNL     1      46.850   4.148  14.491  0.00  0.00    +0.000 C 
ATOM     10  N   UNL     1      46.874   4.385  15.845  0.00  0.00    +0.000 N 
ATOM     11  H   UNL     1      46.363   5.176  16.223  0.00  0.00    +0.000 HD
BRANCH   9  12
ATOM     12  C   UNL     1      46.376   5.240  13.630  0.00  0.00    +0.000 A 
ATOM     13  C   UNL     1      47.211   6.316  13.359  0.00  0.00    +0.000 A 
ATOM     14  S   UNL     1      46.507   7.489  12.339  0.00  0.00    +0.000 S 
ATOM     15  C   UNL     1      45.081   6.575  12.183  0.00  0.00    +0.000 A 
ATOM     16  N   UNL     1      44.062   6.998  11.389  0.00  0.00    +0.000 NA
ATOM     17  C   UNL     1      43.056   6.190  11.333  0.00  0.00    +0.000 A 
ATOM     18  N   UNL     1      42.974   5.001  12.010  0.00  0.00    +0.000 N 
ATOM     19  C   UNL     1      43.962   4.554  12.854  0.00  0.00    +0.000 A 
ATOM     20  O   UNL     1      43.833   3.515  13.495  0.00  0.00    +0.000 OA
ATOM     21  C   UNL     1      45.127   5.410  12.929  0.00  0.00    +0.000 A 
ATOM     22  H   UNL     1      42.150   4.421  11.936  0.00  0.00    +0.000 HD
ENDBRANCH   9  12
ENDBRANCH   7  10
ENDBRANCH   1   7
BRANCH   4  23
ATOM     23  C   UNL     1      52.897   3.380  18.137  0.00  0.00    +0.000 C 
BRANCH  23  24
ATOM     24  N   UNL     1      53.498   2.070  18.130  0.00  0.00    +0.000 N 
ATOM     25  C   UNL     1      54.524   1.750  18.992  0.00  0.00    +0.000 C 
ATOM     26  O   UNL     1      54.947   2.522  19.850  0.00  0.00    +0.000 OA
ATOM     27  H   UNL     1      53.348   1.424  17.358  0.00  0.00    +0.000 HD
BRANCH  25  28
ATOM     28  C   UNL     1      55.083   0.327  18.826  0.00  0.00    +0.000 C 
ATOM     29  C   UNL     1      54.273  -0.507  17.842  0.00  0.00    +0.000 C 
ATOM     30  C   UNL     1      54.527  -1.925  18.309  0.00  0.00    +0.000 C 
ATOM     31  C   UNL     1      54.576  -1.785  19.828  0.00  0.00    +0.000 C 
ATOM     32  N   UNL     1      55.076  -0.428  20.114  0.00  0.00    +0.000 NA
ATOM     33  H   UNL     1      56.033  -0.475  20.467  0.00  0.00    +0.000 HD
BRANCH  30  34
ATOM     34  O   UNL     1      55.774  -2.399  17.799  0.00  0.00    +0.000 OA
ATOM     35  H   UNL     1      56.225  -2.895  18.501  0.00  0.00    +0.000 HD
ENDBRANCH  30  34
ENDBRANCH  25  28
ENDBRANCH  23  24
ENDBRANCH   4  23
TORSDOF 7
ENDMDL
MODEL 4
REMARK VINA RESULT:    -6.974      2.203      3.255
REMARK INTER + INTRA:         -10.692
REMARK INTER:                  -9.627
REMARK INTRA:                  -1.065
REMARK UNBOUND:                -1.068
REMARK  Name = 
REMARK  7 active torsions:
REMARK  status: ('A' for Active; 'I' for Inactive)
REMARK    1  A    between atoms: C_2  and  C_21
REMARK    2  A    between atoms: N_3  and  C_4
REMARK    3  A    between atoms: C_4  and  C_5
REMARK    4  A    between atoms: C_8  and  C_9
REMARK    5  A    between atoms: C_9  and  N_10
REMARK    6  A    between atoms: C_11  and  C_13
REMARK    7  A    between atoms: C_15  and  O_16
REMARK                            x       y       z     vdW  Elec       q    Type
REMARK                         _______ _______ _______ _____ _____    ______ ____
ROOT
ATOM      1  C   UNL     1      48.068   8.022  13.924  0.00  0.00    +0.000 A 
ATOM      2  C   UNL     1      47.188   9.092  13.709  0.00  0.00    +0.000 A 
ATOM      3  C   UNL     1      46.040   8.927  12.922  0.00  0.00    +0.000 A 
ATOM      4  C   UNL     1      45.734   7.684  12.353  0.00  0.00    +0.000 A 
ATOM      5  C   UNL     1      46.606   6.610  12.585  0.00  0.00    +0.000 A 
ATOM      6  C   UNL     1      47.753   6.774  13.371  0.00  0.00    +0.000 A 
ENDROOT
BRANCH   1   7
ATOM      7  C   UNL     1      49.334   8.218  14.719  0.00  0.00    +0.000 C 
BRANCH   7  10
ATOM      8  O   UNL     1      48.686   7.323  17.241  0.00  0.00    +0.000 OA
ATOM      9  C   UNL     1      49.394   6.601  16.542  0.00  0.00    +0.000 C 
ATOM     10  N   UNL     1      49.828   6.993  15.298  0.00  0.00    +0.000 N 
ATOM     11  H   UNL     1      50.225   6.305  14.667  0.00  0.00    +0.000 HD
BRANCH   9  12
ATOM     12  C   UNL     1      49.839   5.286  17.020  0.00  0.00    +0.000 A 
ATOM     13  C   UNL     1      48.912   4.267  17.196  0.00  0.00    +0.000 A 
ATOM     14  S   UNL     1      49.597   2.805  17.748  0.00  0.00    +0.000 S 
ATOM     15  C   UNL     1      51.164   3.469  17.724  0.00  0.00    +0.000 A 
ATOM     16  N   UNL     1      52.247   2.716  18.049  0.00  0.00    +0.000 NA
ATOM     17  C   UNL     1      53.377   3.334  17.952  0.00  0.00    +0.000 A 
ATOM     18  N   UNL     1      53.519   4.642  17.570  0.00  0.00    +0.000 N 
ATOM     19  C   UNL     1      52.448   5.451  17.272  0.00  0.00    +0.000 A 
ATOM     20  O   UNL     1      52.602   6.638  16.994  0.00  0.00    +0.000 OA
ATOM     21  C   UNL     1      51.159   4.797  17.336  0.00  0.00    +0.000 A 
ATOM     22  H   UNL     1      54.431   5.073  17.530  0.00  0.00    +0.000 HD
ENDBRANCH   9  12
ENDBRANCH   7  10
ENDBRANCH   1   7
BRANCH   4  23
ATOM     23  C   UNL     1      44.492   7.494  11.522  0.00  0.00    +0.000 C 
BRANCH  23  24
ATOM     24  N   UNL     1      44.500   6.263  10.771  0.00  0.00    +0.000 N 
ATOM     25  C   UNL     1      43.568   5.277  11.005  0.00  0.00    +0.000 C 
ATOM     26  O   UNL     1      42.647   5.399  11.809  0.00  0.00    +0.000 OA
ATOM     27  H   UNL     1      45.308   5.990  10.215  0.00  0.00    +0.000 HD
BRANCH  25  28
ATOM     28  C   UNL     1      43.744   4.010  10.150  0.00  0.00    +0.000 C 
ATOM     29  C   UNL     1      44.970   3.200  10.552  0.00  0.00    +0.000 C 
ATOM     30  C   UNL     1      45.325   2.467   9.276  0.00  0.00    +0.000 C 
ATOM     31  C   UNL     1      45.012   3.492   8.189  0.00  0.00    +0.000 C 
ATOM     32  N   UNL     1      43.917   4.335   8.703  0.00  0.00    +0.000 NA
ATOM     33  H   UNL     1      43.047   4.114   8.216  0.00  0.00    +0.000 HD
BRANCH  30  34
ATOM     34  O   UNL     1      44.512   1.302   9.130  0.00  0.00    +0.000 OA
ATOM     35  H   UNL     1      44.940   0.706   8.494  0.00  0.00    +0.000 HD
ENDBRANCH  30  34
ENDBRANCH  25  28
ENDBRANCH  23  24
ENDBRANCH   4  23
TORSDOF 7
ENDMDL
MODEL 5
REMARK VINA RESULT:    -6.874      3.313      4.459
REMARK INTER + INTRA:         -10.554
REMARK INTER:                  -9.561
REMARK INTRA:                  -0.993
REMARK UNBOUND:                -1.068
REMARK  Name = 
REMARK  7 active torsions:
REMARK  status: ('A' for Active; 'I' for Inactive)
REMARK    1  A    between atoms: C_2  and  C_21
REMARK    2  A    between atoms: N_3  and  C_4
REMARK    3  A    between atoms: C_4  and  C_5
REMARK    4  A    between atoms: C_8  and  C_9
REMARK    5  A    between atoms: C_9  and  N_10
REMARK    6  A    between atoms: C_11  and  C_13
REMARK    7  A    between atoms: C_15  and  O_16
REMARK                            x       y       z     vdW  Elec       q    Type
REMARK                         _______ _______ _______ _____ _____    ______ ____
ROOT
ATOM      1  C   UNL     1      48.123   5.057  16.164  0.00  0.00    +0.000 A 
ATOM      2  C   UNL     1      48.582   6.258  15.605  0.00  0.00    +0.000 A 
ATOM      3  C   UNL     1      48.106   6.699  14.364  0.00  0.00    +0.000 A 
ATOM      4  C   UNL     1      47.143   5.960  13.664  0.00  0.00    +0.000 A 
ATOM      5  C   UNL     1      46.671   4.769  14.232  0.00  0.00    +0.000 A 
ATOM      6  C   UNL     1      47.147   4.328  15.473  0.00  0.00    +0.000 A 
ENDROOT
BRANCH   1   7
ATOM      7  C   UNL     1      48.683   4.554  17.470  0.00  0.00    +0.000 C 
BRANCH   7  10
ATOM      8  O   UNL     1      50.482   4.758  19.545  0.00  0.00    +0.000 OA
ATOM      9  C   UNL     1      50.877   4.263  18.492  0.00  0.00    +0.000 C 
ATOM     10  N   UNL     1      50.074   4.185  17.379  0.00  0.00    +0.000 N 
ATOM     11  H   UNL     1      50.350   3.590  16.605  0.00  0.00    +0.000 HD
BRANCH   9  12
ATOM     12  C   UNL     1      52.249   3.756  18.362  0.00  0.00    +0.000 A 
ATOM     13  C   UNL     1      53.318   4.562  18.732  0.00  0.00    +0.000 A 
ATOM     14  S   UNL     1      54.840   3.817  18.525  0.00  0.00    +0.000 S 
ATOM     15  C   UNL     1      54.120   2.374  17.983  0.00  0.00    +0.000 A 
ATOM     16  N   UNL     1      54.876   1.289  17.673  0.00  0.00    +0.000 NA
ATOM     17  C   UNL     1      54.199   0.250  17.311  0.00  0.00    +0.000 A 
ATOM     18  N   UNL     1      52.832   0.205  17.220  0.00  0.00    +0.000 N 
ATOM     19  C   UNL     1      52.032   1.290  17.484  0.00  0.00    +0.000 A 
ATOM     20  O   UNL     1      50.814   1.237  17.333  0.00  0.00    +0.000 OA
ATOM     21  C   UNL     1      52.741   2.472  17.924  0.00  0.00    +0.000 A 
ATOM     22  H   UNL     1      52.363  -0.635  16.914  0.00  0.00    +0.000 HD
ENDBRANCH   9  12
ENDBRANCH   7  10
ENDBRANCH   1   7
BRANCH   4  23
ATOM     23  C   UNL     1      46.611   6.437  12.336  0.00  0.00    +0.000 C 
BRANCH  23  24
ATOM     24  N   UNL     1      46.058   5.373  11.537  0.00  0.00    +0.000 N 
ATOM     25  C   UNL     1      44.742   5.392  11.132  0.00  0.00    +0.000 C 
ATOM     26  O   UNL     1      43.981   6.327  11.367  0.00  0.00    +0.000 OA
ATOM     27  H   UNL     1      46.542   4.483  11.436  0.00  0.00    +0.000 HD
BRANCH  25  28
ATOM     28  C   UNL     1      44.300   4.160  10.323  0.00  0.00    +0.000 C 
ATOM     29  C   UNL     1      45.301   3.016  10.409  0.00  0.00    +0.000 C 
ATOM     30  C   UNL     1      45.059   2.257   9.121  0.00  0.00    +0.000 C 
ATOM     31  C   UNL     1      44.765   3.367   8.115  0.00  0.00    +0.000 C 
ATOM     32  N   UNL     1      44.148   4.473   8.871  0.00  0.00    +0.000 NA
ATOM     33  H   UNL     1      43.152   4.532   8.655  0.00  0.00    +0.000 HD
BRANCH  30  34
ATOM     34  O   UNL     1      43.938   1.385   9.262  0.00  0.00    +0.000 OA
ATOM     35  H   UNL     1      43.606   1.456  10.172  0.00  0.00    +0.000 HD
ENDBRANCH  30  34
ENDBRANCH  25  28
ENDBRANCH  23  24
ENDBRANCH   4  23
TORSDOF 7
ENDMDL
MODEL 6
REMARK VINA RESULT:    -6.873      3.206      4.901
REMARK INTER + INTRA:         -10.552
REMARK INTER:                  -9.611
REMARK INTRA:                  -0.941
REMARK UNBOUND:                -1.068
REMARK  Name = 
REMARK  7 active torsions:
REMARK  status: ('A' for Active; 'I' for Inactive)
REMARK    1  A    between atoms: C_2  and  C_21
REMARK    2  A    between atoms: N_3  and  C_4
REMARK    3  A    between atoms: C_4  and  C_5
REMARK    4  A    between atoms: C_8  and  C_9
REMARK    5  A    between atoms: C_9  and  N_10
REMARK    6  A    between atoms: C_11  and  C_13
REMARK    7  A    between atoms: C_15  and  O_16
REMARK                            x       y       z     vdW  Elec       q    Type
REMARK                         _______ _______ _______ _____ _____    ______ ____
ROOT
ATOM      1  C   UNL     1      47.847   4.191  16.564  0.00  0.00    +0.000 A 
ATOM      2  C   UNL     1      48.410   5.472  16.472  0.00  0.00    +0.000 A 
ATOM      3  C   UNL     1      48.270   6.233  15.305  0.00  0.00    +0.000 A 
ATOM      4  C   UNL     1      47.543   5.742  14.213  0.00  0.00    +0.000 A 
ATOM      5  C   UNL     1      46.964   4.469  14.314  0.00  0.00    +0.000 A 
ATOM      6  C   UNL     1      47.104   3.708  15.480  0.00  0.00    +0.000 A 
ENDROOT
BRANCH   1   7
ATOM      7  C   UNL     1      48.053   3.350  17.798  0.00  0.00    +0.000 C 
BRANCH   7  10
ATOM      8  O   UNL     1      49.657   1.707  16.277  0.00  0.00    +0.000 OA
ATOM      9  C   UNL     1      50.177   2.305  17.217  0.00  0.00    +0.000 C 
ATOM     10  N   UNL     1      49.443   3.090  18.074  0.00  0.00    +0.000 N 
ATOM     11  H   UNL     1      49.923   3.729  18.700  0.00  0.00    +0.000 HD
BRANCH   9  12
ATOM     12  C   UNL     1      51.615   2.182  17.489  0.00  0.00    +0.000 A 
ATOM     13  C   UNL     1      52.198   0.922  17.554  0.00  0.00    +0.000 A 
ATOM     14  S   UNL     1      53.874   0.959  17.870  0.00  0.00    +0.000 S 
ATOM     15  C   UNL     1      53.889   2.661  17.881  0.00  0.00    +0.000 A 
ATOM     16  N   UNL     1      55.047   3.349  18.057  0.00  0.00    +0.000 NA
ATOM     17  C   UNL     1      54.919   4.633  18.006  0.00  0.00    +0.000 A 
ATOM     18  N   UNL     1      53.733   5.291  17.807  0.00  0.00    +0.000 N 
ATOM     19  C   UNL     1      52.533   4.636  17.666  0.00  0.00    +0.000 A 
ATOM     20  O   UNL     1      51.478   5.254  17.551  0.00  0.00    +0.000 OA
ATOM     21  C   UNL     1      52.626   3.192  17.684  0.00  0.00    +0.000 A 
ATOM     22  H   UNL     1      53.698   6.300  17.794  0.00  0.00    +0.000 HD
ENDBRANCH   9  12
ENDBRANCH   7  10
ENDBRANCH   1   7
BRANCH   4  23
ATOM     23  C   UNL     1      47.370   6.562  12.960  0.00  0.00    +0.000 C 
BRANCH  23  24
ATOM     24  N   UNL     1      46.736   5.832  11.892  0.00  0.00    +0.000 N 
ATOM     25  C   UNL     1      45.468   6.153  11.461  0.00  0.00    +0.000 C 
ATOM     26  O   UNL     1      44.827   7.104  11.905  0.00  0.00    +0.000 OA
ATOM     27  H   UNL     1      47.097   4.933  11.579  0.00  0.00    +0.000 HD
BRANCH  25  28
ATOM     28  C   UNL     1      44.919   5.249  10.344  0.00  0.00    +0.000 C 
ATOM     29  C   UNL     1      45.121   3.768  10.640  0.00  0.00    +0.000 C 
ATOM     30  C   UNL     1      45.159   3.148   9.259  0.00  0.00    +0.000 C 
ATOM     31  C   UNL     1      45.893   4.197   8.429  0.00  0.00    +0.000 C 
ATOM     32  N   UNL     1      45.594   5.507   9.037  0.00  0.00    +0.000 NA
ATOM     33  H   UNL     1      44.953   6.032   8.440  0.00  0.00    +0.000 HD
BRANCH  30  34
ATOM     34  O   UNL     1      43.833   2.945   8.771  0.00  0.00    +0.000 OA
ATOM     35  H   UNL     1      43.259   3.635   9.142  0.00  0.00    +0.000 HD
ENDBRANCH  30  34
ENDBRANCH  25  28
ENDBRANCH  23  24
ENDBRANCH   4  23
TORSDOF 7
ENDMDL
MODEL 7
REMARK VINA RESULT:    -6.769      5.028      7.845
REMARK INTER + INTRA:         -10.408
REMARK INTER:                  -9.387
REMARK INTRA:                  -1.021
REMARK UNBOUND:                -1.068
REMARK  Name = 
REMARK  7 active torsions:
REMARK  status: ('A' for Active; 'I' for Inactive)
REMARK    1  A    between atoms: C_2  and  C_21
REMARK    2  A    between atoms: N_3  and  C_4
REMARK    3  A    between atoms: C_4  and  C_5
REMARK    4  A    between atoms: C_8  and  C_9
REMARK    5  A    between atoms: C_9  and  N_10
REMARK    6  A    between atoms: C_11  and  C_13
REMARK    7  A    between atoms: C_15  and  O_16
REMARK                            x       y       z     vdW  Elec       q    Type
REMARK                         _______ _______ _______ _____ _____    ______ ____
ROOT
ATOM      1  C   UNL     1      47.896   8.533  11.896  0.00  0.00    +0.000 A 
ATOM      2  C   UNL     1      48.773   7.444  11.792  0.00  0.00    +0.000 A 
ATOM      3  C   UNL     1      50.131   7.642  11.511  0.00  0.00    +0.000 A 
ATOM      4  C   UNL     1      50.647   8.935  11.350  0.00  0.00    +0.000 A 
ATOM      5  C   UNL     1      49.773  10.024  11.473  0.00  0.00    +0.000 A 
ATOM      6  C   UNL     1      48.416   9.826  11.754  0.00  0.00    +0.000 A 
ENDROOT
BRANCH   1   7
ATOM      7  C   UNL     1      46.425   8.313  12.137  0.00  0.00    +0.000 C 
BRANCH   7  10
ATOM      8  O   UNL     1      43.900   7.483  11.416  0.00  0.00    +0.000 OA
ATOM      9  C   UNL     1      44.764   6.622  11.567  0.00  0.00    +0.000 C 
ATOM     10  N   UNL     1      46.033   6.933  11.995  0.00  0.00    +0.000 N 
ATOM     11  H   UNL     1      46.773   6.244  11.908  0.00  0.00    +0.000 HD
BRANCH   9  12
ATOM     12  C   UNL     1      44.470   5.204  11.326  0.00  0.00    +0.000 A 
ATOM     13  C   UNL     1      43.672   4.504  12.223  0.00  0.00    +0.000 A 
ATOM     14  S   UNL     1      43.423   2.872  11.790  0.00  0.00    +0.000 S 
ATOM     15  C   UNL     1      44.332   3.057  10.362  0.00  0.00    +0.000 A 
ATOM     16  N   UNL     1      44.478   2.027   9.489  0.00  0.00    +0.000 NA
ATOM     17  C   UNL     1      45.159   2.317   8.430  0.00  0.00    +0.000 A 
ATOM     18  N   UNL     1      45.718   3.542   8.174  0.00  0.00    +0.000 N 
ATOM     19  C   UNL     1      45.629   4.598   9.048  0.00  0.00    +0.000 A 
ATOM     20  O   UNL     1      46.192   5.666   8.820  0.00  0.00    +0.000 OA
ATOM     21  C   UNL     1      44.848   4.335  10.238  0.00  0.00    +0.000 A 
ATOM     22  H   UNL     1      46.254   3.699   7.333  0.00  0.00    +0.000 HD
ENDBRANCH   9  12
ENDBRANCH   7  10
ENDBRANCH   1   7
BRANCH   4  23
ATOM     23  C   UNL     1      52.111   9.158  11.066  0.00  0.00    +0.000 C 
BRANCH  23  24
ATOM     24  N   UNL     1      52.632   8.264  10.063  0.00  0.00    +0.000 N 
ATOM     25  C   UNL     1      52.945   8.712   8.799  0.00  0.00    +0.000 C 
ATOM     26  O   UNL     1      52.861   9.891   8.464  0.00  0.00    +0.000 OA
ATOM     27  H   UNL     1      52.576   7.254  10.176  0.00  0.00    +0.000 HD
BRANCH  25  28
ATOM     28  C   UNL     1      53.448   7.622   7.836  0.00  0.00    +0.000 C 
ATOM     29  C   UNL     1      52.361   6.619   7.473  0.00  0.00    +0.000 C 
ATOM     30  C   UNL     1      53.151   5.372   7.133  0.00  0.00    +0.000 C 
ATOM     31  C   UNL     1      54.303   5.408   8.134  0.00  0.00    +0.000 C 
ATOM     32  N   UNL     1      54.566   6.829   8.429  0.00  0.00    +0.000 NA
ATOM     33  H   UNL     1      55.439   7.122   7.989  0.00  0.00    +0.000 HD
BRANCH  30  34
ATOM     34  O   UNL     1      53.637   5.444   5.792  0.00  0.00    +0.000 OA
ATOM     35  H   UNL     1      53.318   4.665   5.307  0.00  0.00    +0.000 HD
ENDBRANCH  30  34
ENDBRANCH  25  28
ENDBRANCH  23  24
ENDBRANCH   4  23
TORSDOF 7
ENDMDL
MODEL 8
REMARK VINA RESULT:    -6.722      4.019      8.843
REMARK INTER + INTRA:         -10.344
REMARK INTER:                  -9.356
REMARK INTRA:                  -0.988
REMARK UNBOUND:                -1.068
REMARK  Name = 
REMARK  7 active torsions:
REMARK  status: ('A' for Active; 'I' for Inactive)
REMARK    1  A    between atoms: C_2  and  C_21
REMARK    2  A    between atoms: N_3  and  C_4
REMARK    3  A    between atoms: C_4  and  C_5
REMARK    4  A    between atoms: C_8  and  C_9
REMARK    5  A    between atoms: C_9  and  N_10
REMARK    6  A    between atoms: C_11  and  C_13
REMARK    7  A    between atoms: C_15  and  O_16
REMARK                            x       y       z     vdW  Elec       q    Type
REMARK                         _______ _______ _______ _____ _____    ______ ____
ROOT
ATOM      1  C   UNL     1      48.747   6.520  15.521  0.00  0.00    +0.000 A 
ATOM      2  C   UNL     1      49.949   6.736  16.210  0.00  0.00    +0.000 A 
ATOM      3  C   UNL     1      50.360   5.861  17.223  0.00  0.00    +0.000 A 
ATOM      4  C   UNL     1      49.591   4.738  17.555  0.00  0.00    +0.000 A 
ATOM      5  C   UNL     1      48.399   4.512  16.851  0.00  0.00    +0.000 A 
ATOM      6  C   UNL     1      47.988   5.387  15.839  0.00  0.00    +0.000 A 
ENDROOT
BRANCH   1   7
ATOM      7  C   UNL     1      48.277   7.497  14.474  0.00  0.00    +0.000 C 
BRANCH   7  10
ATOM      8  O   UNL     1      47.879   6.657  11.881  0.00  0.00    +0.000 OA
ATOM      9  C   UNL     1      46.906   6.679  12.632  0.00  0.00    +0.000 C 
ATOM     10  N   UNL     1      46.992   7.151  13.920  0.00  0.00    +0.000 N 
ATOM     11  H   UNL     1      46.237   6.962  14.572  0.00  0.00    +0.000 HD
BRANCH   9  12
ATOM     12  C   UNL     1      45.586   6.229  12.172  0.00  0.00    +0.000 A 
ATOM     13  C   UNL     1      44.720   7.134  11.571  0.00  0.00    +0.000 A 
ATOM     14  S   UNL     1      43.235   6.446  11.089  0.00  0.00    +0.000 S 
ATOM     15  C   UNL     1      43.717   4.903  11.622  0.00  0.00    +0.000 A 
ATOM     16  N   UNL     1      42.908   3.823  11.460  0.00  0.00    +0.000 NA
ATOM     17  C   UNL     1      43.414   2.709  11.874  0.00  0.00    +0.000 A 
ATOM     18  N   UNL     1      44.652   2.581  12.448  0.00  0.00    +0.000 N 
ATOM     19  C   UNL     1      45.485   3.652  12.667  0.00  0.00    +0.000 A 
ATOM     20  O   UNL     1      46.563   3.515  13.240  0.00  0.00    +0.000 OA
ATOM     21  C   UNL     1      44.978   4.921  12.192  0.00  0.00    +0.000 A 
ATOM     22  H   UNL     1      44.982   1.682  12.766  0.00  0.00    +0.000 HD
ENDBRANCH   9  12
ENDBRANCH   7  10
ENDBRANCH   1   7
BRANCH   4  23
ATOM     23  C   UNL     1      50.036   3.781  18.631  0.00  0.00    +0.000 C 
BRANCH  23  24
ATOM     24  N   UNL     1      51.390   3.320  18.450  0.00  0.00    +0.000 N 
ATOM     25  C   UNL     1      51.670   2.204  17.692  0.00  0.00    +0.000 C 
ATOM     26  O   UNL     1      50.810   1.574  17.080  0.00  0.00    +0.000 OA
ATOM     27  H   UNL     1      52.145   3.656  19.043  0.00  0.00    +0.000 HD
BRANCH  25  28
ATOM     28  C   UNL     1      53.159   1.822  17.636  0.00  0.00    +0.000 C 
ATOM     29  C   UNL     1      53.372   0.363  17.254  0.00  0.00    +0.000 C 
ATOM     30  C   UNL     1      54.711   0.040  17.883  0.00  0.00    +0.000 C 
ATOM     31  C   UNL     1      54.677   0.824  19.192  0.00  0.00    +0.000 C 
ATOM     32  N   UNL     1      53.831   2.008  18.957  0.00  0.00    +0.000 NA
ATOM     33  H   UNL     1      54.410   2.848  18.909  0.00  0.00    +0.000 HD
BRANCH  30  34
ATOM     34  O   UNL     1      55.775   0.492  17.044  0.00  0.00    +0.000 OA
ATOM     35  H   UNL     1      55.454   1.243  16.518  0.00  0.00    +0.000 HD
ENDBRANCH  30  34
ENDBRANCH  25  28
ENDBRANCH  23  24
ENDBRANCH   4  23
TORSDOF 7
ENDMDL
MODEL 9
REMARK VINA RESULT:    -6.682      2.802      4.197
REMARK INTER + INTRA:         -10.288
REMARK INTER:                  -9.268
REMARK INTRA:                  -1.020
REMARK UNBOUND:                -1.068
REMARK  Name = 
REMARK  7 active torsions:
REMARK  status: ('A' for Active; 'I' for Inactive)
REMARK    1  A    between atoms: C_2  and  C_21
REMARK    2  A    between atoms: N_3  and  C_4
REMARK    3  A    between atoms: C_4  and  C_5
REMARK    4  A    between atoms: C_8  and  C_9
REMARK    5  A    between atoms: C_9  and  N_10
REMARK    6  A    between atoms: C_11  and  C_13
REMARK    7  A    between atoms: C_15  and  O_16
REMARK                            x       y       z     vdW  Elec       q    Type
REMARK                         _______ _______ _______ _____ _____    ______ ____
ROOT
ATOM      1  C   UNL     1      48.697   7.756  15.952  0.00  0.00    +0.000 A 
ATOM      2  C   UNL     1      48.293   8.907  15.262  0.00  0.00    +0.000 A 
ATOM      3  C   UNL     1      47.883   8.833  13.925  0.00  0.00    +0.000 A 
ATOM      4  C   UNL     1      47.845   7.603  13.255  0.00  0.00    +0.000 A 
ATOM      5  C   UNL     1      48.231   6.450  13.952  0.00  0.00    +0.000 A 
ATOM      6  C   UNL     1      48.641   6.524  15.289  0.00  0.00    +0.000 A 
ENDROOT
BRANCH   1   7
ATOM      7  C   UNL     1      49.197   7.848  17.371  0.00  0.00    +0.000 C 
BRANCH   7  10
ATOM      8  O   UNL     1      49.000   5.678  19.056  0.00  0.00    +0.000 OA
ATOM      9  C   UNL     1      50.059   5.841  18.453  0.00  0.00    +0.000 C 
ATOM     10  N   UNL     1      50.276   6.933  17.647  0.00  0.00    +0.000 N 
ATOM     11  H   UNL     1      51.063   6.932  17.006  0.00  0.00    +0.000 HD
BRANCH   9  12
ATOM     12  C   UNL     1      51.164   4.884  18.593  0.00  0.00    +0.000 A 
ATOM     13  C   UNL     1      52.282   5.227  19.341  0.00  0.00    +0.000 A 
ATOM     14  S   UNL     1      53.466   4.000  19.408  0.00  0.00    +0.000 S 
ATOM     15  C   UNL     1      52.503   2.947  18.480  0.00  0.00    +0.000 A 
ATOM     16  N   UNL     1      52.917   1.683  18.202  0.00  0.00    +0.000 NA
ATOM     17  C   UNL     1      52.072   0.982  17.522  0.00  0.00    +0.000 A 
ATOM     18  N   UNL     1      50.855   1.436  17.085  0.00  0.00    +0.000 N 
ATOM     19  C   UNL     1      50.415   2.718  17.309  0.00  0.00    +0.000 A 
ATOM     20  O   UNL     1      49.346   3.116  16.851  0.00  0.00    +0.000 OA
ATOM     21  C   UNL     1      51.312   3.538  18.094  0.00  0.00    +0.000 A 
ATOM     22  H   UNL     1      50.247   0.840  16.542  0.00  0.00    +0.000 HD
ENDBRANCH   9  12
ENDBRANCH   7  10
ENDBRANCH   1   7
BRANCH   4  23
ATOM     23  C   UNL     1      47.387   7.511  11.822  0.00  0.00    +0.000 C 
BRANCH  23  24
ATOM     24  N   UNL     1      46.439   6.448  11.601  0.00  0.00    +0.000 N 
ATOM     25  C   UNL     1      45.089   6.702  11.502  0.00  0.00    +0.000 C 
ATOM     26  O   UNL     1      44.615   7.836  11.532  0.00  0.00    +0.000 OA
ATOM     27  H   UNL     1      46.699   5.473  11.734  0.00  0.00    +0.000 HD
BRANCH  25  28
ATOM     28  C   UNL     1      44.211   5.454  11.311  0.00  0.00    +0.000 C 
ATOM     29  C   UNL     1      44.858   4.195  11.874  0.00  0.00    +0.000 C 
ATOM     30  C   UNL     1      44.233   3.093  11.044  0.00  0.00    +0.000 C 
ATOM     31  C   UNL     1      44.117   3.726   9.660  0.00  0.00    +0.000 C 
ATOM     32  N   UNL     1      43.946   5.175   9.868  0.00  0.00    +0.000 NA
ATOM     33  H   UNL     1      42.985   5.448   9.657  0.00  0.00    +0.000 HD
BRANCH  30  34
ATOM     34  O   UNL     1      42.946   2.752  11.560  0.00  0.00    +0.000 OA
ATOM     35  H   UNL     1      42.968   2.844  12.527  0.00  0.00    +0.000 HD
ENDBRANCH  30  34
ENDBRANCH  25  28
ENDBRANCH  23  24
ENDBRANCH   4  23
TORSDOF 7
ENDMDL
