MODEL 1
REMARK VINA RESULT:    -8.480      0.000      0.000
REMARK INTER + INTRA:         -11.708
REMARK INTER:                 -11.207
REMARK INTRA:                  -0.502
REMARK UNBOUND:                -0.502
REMARK  Name = 
REMARK  6 active torsions:
REMARK  status: ('A' for Active; 'I' for Inactive)
REMARK    1  A    between atoms: C_2  and  C_19
REMARK    2  A    between atoms: N_3  and  C_4
REMARK    3  A    between atoms: C_4  and  C_5
REMARK    4  A    between atoms: C_8  and  C_9
REMARK    5  A    between atoms: C_9  and  O_10
REMARK    6  A    between atoms: C_9  and  C_11
REMARK                            x       y       z     vdW  Elec       q    Type
REMARK                         _______ _______ _______ _____ _____    ______ ____
ROOT
ATOM      1  C   UNL     1      45.890   7.204  12.531  0.00  0.00    +0.000 C 
ENDROOT
BRANCH   1   2
ATOM      2  C   UNL     1      45.529   6.061  11.605  0.00  0.00    +0.000 A 
ATOM      3  N   UNL     1      45.916   6.140  10.318  0.00  0.00    +0.000 NA
ATOM      4  C   UNL     1      45.546   5.127   9.511  0.00  0.00    +0.000 A 
ATOM      5  C   UNL     1      44.820   4.035   9.934  0.00  0.00    +0.000 A 
ATOM      6  C   UNL     1      44.411   4.088  11.253  0.00  0.00    +0.000 A 
ATOM      7  N   UNL     1      44.741   5.082  12.102  0.00  0.00    +0.000 NA
BRANCH   5   8
ATOM      8  C   UNL     1      44.558   2.858   9.042  0.00  0.00    +0.000 C 
BRANCH   8   9
ATOM      9  C   UNL     1      45.659   2.547   8.026  0.00  0.00    +0.000 A 
ATOM     10  C   UNL     1      46.404   1.356   8.131  0.00  0.00    +0.000 A 
ATOM     11  C   UNL     1      47.387   1.036   7.191  0.00  0.00    +0.000 A 
ATOM     12  C   UNL     1      47.630   1.886   6.117  0.00  0.00    +0.000 A 
ATOM     13  C   UNL     1      46.884   3.054   5.977  0.00  0.00    +0.000 A 
ATOM     14  C   UNL     1      45.898   3.371   6.913  0.00  0.00    +0.000 A 
ENDBRANCH   8   9
BRANCH   8  15
ATOM     15  O   UNL     1      44.276   1.758   9.908  0.00  0.00    +0.000 OA
ATOM     16  H   UNL     1      43.313   1.695  10.014  0.00  0.00    +0.000 HD
ENDBRANCH   8  15
ENDBRANCH   5   8
ENDBRANCH   1   2
BRANCH   1  19
ATOM     17  O   UNL     1      48.571   6.253  12.927  0.00  0.00    +0.000 OA
ATOM     18  C   UNL     1      47.745   6.190  13.820  0.00  0.00    +0.000 C 
ATOM     19  N   UNL     1      46.472   6.696  13.750  0.00  0.00    +0.000 N 
ATOM     20  H   UNL     1      45.796   6.401  14.441  0.00  0.00    +0.000 HD
BRANCH  18  21
ATOM     21  C   UNL     1      47.912   5.392  15.029  0.00  0.00    +0.000 A 
ATOM     22  C   UNL     1      47.179   4.247  15.280  0.00  0.00    +0.000 A 
ATOM     23  S   UNL     1      47.165   3.862  16.953  0.00  0.00    +0.000 S 
ATOM     24  C   UNL     1      48.236   5.139  17.318  0.00  0.00    +0.000 A 
ATOM     25  N   UNL     1      48.543   5.498  18.593  0.00  0.00    +0.000 NA
ATOM     26  C   UNL     1      49.395   6.468  18.679  0.00  0.00    +0.000 A 
ATOM     27  N   UNL     1      50.013   7.075  17.611  0.00  0.00    +0.000 N 
ATOM     28  C   UNL     1      49.759   6.724  16.306  0.00  0.00    +0.000 A 
ATOM     29  O   UNL     1      50.389   7.200  15.370  0.00  0.00    +0.000 OA
ATOM     30  C   UNL     1      48.706   5.741  16.171  0.00  0.00    +0.000 A 
ATOM     31  H   UNL     1      50.735   7.765  17.749  0.00  0.00    +0.000 HD
ENDBRANCH  18  21
ENDBRANCH   1  19
TORSDOF 6
ENDMDL
MODEL 2
REMARK VINA RESULT:    -8.391      1.717      2.746
REMARK INTER + INTRA:         -11.591
REMARK INTER:                 -10.701
REMARK INTRA:                  -0.890
REMARK UNBOUND:                -0.502
REMARK  Name = 
REMARK  6 active torsions:
REMARK  status: ('A' for Active; 'I' for Inactive)
REMARK    1  A    between atoms: C_2  and  C_19
REMARK    2  A    between atoms: N_3  and  C_4
REMARK    3  A    between atoms: C_4  and  C_5
REMARK    4  A    between atoms: C_8  and  C_9
REMARK    5  A    between atoms: C_9  and  O_10
REMARK    6  A    between atoms: C_9  and  C_11
REMARK                            x       y       z     vdW  Elec       q    Type
REMARK                         _______ _______ _______ _____ _____    ______ ____
ROOT
ATOM      1  C   UNL     1      46.683   8.436  13.061  0.00  0.00    +0.000 C 
ENDROOT
BRANCH   1   2
ATOM      2  C   UNL     1      45.980   7.338  12.289  0.00  0.00    +0.000 A 
ATOM      3  N   UNL     1      44.713   7.037  12.628  0.00  0.00    +0.000 NA
ATOM      4  C   UNL     1      44.128   6.030  11.950  0.00  0.00    +0.000 A 
ATOM      5  C   UNL     1      44.746   5.322  10.943  0.00  0.00    +0.000 A 
ATOM      6  C   UNL     1      46.068   5.662  10.725  0.00  0.00    +0.000 A 
ATOM      7  N   UNL     1      46.708   6.651  11.381  0.00  0.00    +0.000 NA
BRANCH   5   8
ATOM      8  C   UNL     1      44.012   4.312  10.111  0.00  0.00    +0.000 C 
BRANCH   8   9
ATOM      9  C   UNL     1      44.874   3.533   9.115  0.00  0.00    +0.000 A 
ATOM     10  C   UNL     1      45.507   4.204   8.049  0.00  0.00    +0.000 A 
ATOM     11  C   UNL     1      46.329   3.517   7.152  0.00  0.00    +0.000 A 
ATOM     12  C   UNL     1      46.552   2.153   7.314  0.00  0.00    +0.000 A 
ATOM     13  C   UNL     1      45.962   1.477   8.378  0.00  0.00    +0.000 A 
ATOM     14  C   UNL     1      45.145   2.164   9.278  0.00  0.00    +0.000 A 
ENDBRANCH   8   9
BRANCH   8  15
ATOM     15  O   UNL     1      43.325   3.464  11.032  0.00  0.00    +0.000 OA
ATOM     16  H   UNL     1      43.585   2.547  10.850  0.00  0.00    +0.000 HD
ENDBRANCH   8  15
ENDBRANCH   5   8
ENDBRANCH   1   2
BRANCH   1  19
ATOM     17  O   UNL     1      49.254   7.264  13.582  0.00  0.00    +0.000 OA
ATOM     18  C   UNL     1      48.398   7.310  14.448  0.00  0.00    +0.000 C 
ATOM     19  N   UNL     1      47.180   7.925  14.316  0.00  0.00    +0.000 N 
ATOM     20  H   UNL     1      46.459   7.719  14.995  0.00  0.00    +0.000 HD
BRANCH  18  21
ATOM     21  C   UNL     1      48.456   6.549  15.690  0.00  0.00    +0.000 A 
ATOM     22  C   UNL     1      49.014   7.050  16.852  0.00  0.00    +0.000 A 
ATOM     23  S   UNL     1      49.452   5.791  17.934  0.00  0.00    +0.000 S 
ATOM     24  C   UNL     1      48.781   4.599  16.914  0.00  0.00    +0.000 A 
ATOM     25  N   UNL     1      48.932   3.267  17.143  0.00  0.00    +0.000 NA
ATOM     26  C   UNL     1      48.330   2.511  16.283  0.00  0.00    +0.000 A 
ATOM     27  N   UNL     1      47.543   2.960  15.250  0.00  0.00    +0.000 N 
ATOM     28  C   UNL     1      47.335   4.295  14.998  0.00  0.00    +0.000 A 
ATOM     29  O   UNL     1      46.552   4.682  14.139  0.00  0.00    +0.000 OA
ATOM     30  C   UNL     1      48.109   5.168  15.855  0.00  0.00    +0.000 A 
ATOM     31  H   UNL     1      47.028   2.317  14.667  0.00  0.00    +0.000 HD
ENDBRANCH  18  21
ENDBRANCH   1  19
TORSDOF 6
ENDMDL
MODEL 3
REMARK VINA RESULT:    -8.214      2.171      3.059
REMARK INTER + INTRA:         -11.357
REMARK INTER:                 -10.898
REMARK INTRA:                  -0.459
REMARK UNBOUND:                -0.502
REMARK  Name = 
REMARK  6 active torsions:
REMARK  status: ('A' for Active; 'I' for Inactive)
REMARK    1  A    between atoms: C_2  and  C_19
REMARK    2  A    between atoms: N_3  and  C_4
REMARK    3  A    between atoms: C_4  and  C_5
REMARK    4  A    between atoms: C_8  and  C_9
REMARK    5  A    between atoms: C_9  and  O_10
REMARK    6  A    between atoms: C_9  and  C_11
REMARK                            x       y       z     vdW  Elec       q    Type
REMARK                         _______ _______ _______ _____ _____    ______ ____
ROOT
ATOM      1  C   UNL     1      46.361   4.400  14.669  0.00  0.00    +0.000 C 
ENDROOT
BRANCH   1   2
ATOM      2  C   UNL     1      45.993   4.437  13.200  0.00  0.00    +0.000 A 
ATOM      3  N   UNL     1      46.311   5.538  12.494  0.00  0.00    +0.000 NA
ATOM      4  C   UNL     1      45.936   5.556  11.200  0.00  0.00    +0.000 A 
ATOM      5  C   UNL     1      45.270   4.522  10.579  0.00  0.00    +0.000 A 
ATOM      6  C   UNL     1      44.928   3.473  11.411  0.00  0.00    +0.000 A 
ATOM      7  N   UNL     1      45.266   3.407  12.714  0.00  0.00    +0.000 NA
BRANCH   5   8
ATOM      8  C   UNL     1      45.003   4.518   9.103  0.00  0.00    +0.000 C 
BRANCH   8   9
ATOM      9  C   UNL     1      45.734   3.432   8.308  0.00  0.00    +0.000 A 
ATOM     10  C   UNL     1      46.603   3.788   7.258  0.00  0.00    +0.000 A 
ATOM     11  C   UNL     1      47.309   2.814   6.546  0.00  0.00    +0.000 A 
ATOM     12  C   UNL     1      47.178   1.470   6.884  0.00  0.00    +0.000 A 
ATOM     13  C   UNL     1      46.348   1.100   7.939  0.00  0.00    +0.000 A 
ATOM     14  C   UNL     1      45.647   2.073   8.653  0.00  0.00    +0.000 A 
ENDBRANCH   8   9
BRANCH   8  15
ATOM     15  O   UNL     1      43.585   4.453   8.956  0.00  0.00    +0.000 OA
ATOM     16  H   UNL     1      43.185   4.532   9.837  0.00  0.00    +0.000 HD
ENDBRANCH   8  15
ENDBRANCH   5   8
ENDBRANCH   1   2
BRANCH   1  19
ATOM     17  O   UNL     1      48.582   4.260  16.485  0.00  0.00    +0.000 OA
ATOM     18  C   UNL     1      48.302   5.301  15.916  0.00  0.00    +0.000 C 
ATOM     19  N   UNL     1      47.318   5.438  14.971  0.00  0.00    +0.000 N 
ATOM     20  H   UNL     1      47.012   6.369  14.724  0.00  0.00    +0.000 HD
BRANCH  18  21
ATOM     21  C   UNL     1      48.835   6.604  16.293  0.00  0.00    +0.000 A 
ATOM     22  C   UNL     1      49.028   6.984  17.608  0.00  0.00    +0.000 A 
ATOM     23  S   UNL     1      49.106   8.692  17.765  0.00  0.00    +0.000 S 
ATOM     24  C   UNL     1      49.015   8.912  16.075  0.00  0.00    +0.000 A 
ATOM     25  N   UNL     1      48.878  10.137  15.501  0.00  0.00    +0.000 NA
ATOM     26  C   UNL     1      48.856  10.115  14.207  0.00  0.00    +0.000 A 
ATOM     27  N   UNL     1      49.018   8.991  13.433  0.00  0.00    +0.000 N 
ATOM     28  C   UNL     1      49.192   7.737  13.967  0.00  0.00    +0.000 A 
ATOM     29  O   UNL     1      49.436   6.760  13.271  0.00  0.00    +0.000 OA
ATOM     30  C   UNL     1      49.078   7.708  15.410  0.00  0.00    +0.000 A 
ATOM     31  H   UNL     1      49.080   9.054  12.428  0.00  0.00    +0.000 HD
ENDBRANCH  18  21
ENDBRANCH   1  19
TORSDOF 6
ENDMDL
MODEL 4
REMARK VINA RESULT:    -8.156      2.332      3.265
REMARK INTER + INTRA:         -11.281
REMARK INTER:                 -10.694
REMARK INTRA:                  -0.586
REMARK UNBOUND:                -0.502
REMARK  Name = 
REMARK  6 active torsions:
REMARK  status: ('A' for Active; 'I' for Inactive)
REMARK    1  A    between atoms: C_2  and  C_19
REMARK    2  A    between atoms: N_3  and  C_4
REMARK    3  A    between atoms: C_4  and  C_5
REMARK    4  A    between atoms: C_8  and  C_9
REMARK    5  A    between atoms: C_9  and  O_10
REMARK    6  A    between atoms: C_9  and  C_11
REMARK                            x       y       z     vdW  Elec       q    Type
REMARK                         _______ _______ _______ _____ _____    ______ ____
ROOT
ATOM      1  C   UNL     1      47.113   4.243  15.181  0.00  0.00    +0.000 C 
ENDROOT
BRANCH   1   2
ATOM      2  C   UNL     1      46.523   4.416  13.797  0.00  0.00    +0.000 A 
ATOM      3  N   UNL     1      46.760   5.570  13.146  0.00  0.00    +0.000 NA
ATOM      4  C   UNL     1      46.190   5.710  11.934  0.00  0.00    +0.000 A 
ATOM      5  C   UNL     1      45.407   4.745  11.338  0.00  0.00    +0.000 A 
ATOM      6  C   UNL     1      45.167   3.632  12.121  0.00  0.00    +0.000 A 
ATOM      7  N   UNL     1      45.700   3.444  13.345  0.00  0.00    +0.000 NA
BRANCH   5   8
ATOM      8  C   UNL     1      44.915   4.875   9.927  0.00  0.00    +0.000 C 
BRANCH   8   9
ATOM      9  C   UNL     1      45.488   3.859   8.937  0.00  0.00    +0.000 A 
ATOM     10  C   UNL     1      46.231   4.296   7.822  0.00  0.00    +0.000 A 
ATOM     11  C   UNL     1      46.795   3.382   6.928  0.00  0.00    +0.000 A 
ATOM     12  C   UNL     1      46.647   2.015   7.142  0.00  0.00    +0.000 A 
ATOM     13  C   UNL     1      45.944   1.561   8.255  0.00  0.00    +0.000 A 
ATOM     14  C   UNL     1      45.385   2.474   9.151  0.00  0.00    +0.000 A 
ENDBRANCH   8   9
BRANCH   8  15
ATOM     15  O   UNL     1      43.490   4.838   9.998  0.00  0.00    +0.000 OA
ATOM     16  H   UNL     1      43.189   5.639  10.456  0.00  0.00    +0.000 HD
ENDBRANCH   8  15
ENDBRANCH   5   8
ENDBRANCH   1   2
BRANCH   1  19
ATOM     17  O   UNL     1      49.536   4.782  16.627  0.00  0.00    +0.000 OA
ATOM     18  C   UNL     1      48.708   5.656  16.443  0.00  0.00    +0.000 C 
ATOM     19  N   UNL     1      47.568   5.513  15.693  0.00  0.00    +0.000 N 
ATOM     20  H   UNL     1      46.842   6.210  15.782  0.00  0.00    +0.000 HD
BRANCH  18  21
ATOM     21  C   UNL     1      48.698   6.931  17.151  0.00  0.00    +0.000 A 
ATOM     22  C   UNL     1      49.346   8.057  16.678  0.00  0.00    +0.000 A 
ATOM     23  S   UNL     1      49.645   9.187  17.935  0.00  0.00    +0.000 S 
ATOM     24  C   UNL     1      48.800   8.236  19.073  0.00  0.00    +0.000 A 
ATOM     25  N   UNL     1      48.783   8.523  20.402  0.00  0.00    +0.000 NA
ATOM     26  C   UNL     1      48.066   7.710  21.109  0.00  0.00    +0.000 A 
ATOM     27  N   UNL     1      47.318   6.673  20.606  0.00  0.00    +0.000 N 
ATOM     28  C   UNL     1      47.278   6.364  19.267  0.00  0.00    +0.000 A 
ATOM     29  O   UNL     1      46.530   5.504  18.818  0.00  0.00    +0.000 OA
ATOM     30  C   UNL     1      48.179   7.165  18.467  0.00  0.00    +0.000 A 
ATOM     31  H   UNL     1      46.710   6.131  21.201  0.00  0.00    +0.000 HD
ENDBRANCH  18  21
ENDBRANCH   1  19
TORSDOF 6
ENDMDL
MODEL 5
REMARK VINA RESULT:    -8.064      2.189      3.087
REMARK INTER + INTRA:         -11.159
REMARK INTER:                 -10.249
REMARK INTRA:                  -0.910
REMARK UNBOUND:                -0.502
REMARK  Name = 
REMARK  6 active torsions:
REMARK  status: ('A' for Active; 'I' for Inactive)
REMARK    1  A    between atoms: C_2  and  C_19
REMARK    2  A    between atoms: N_3  and  C_4
REMARK    3  A    between atoms: C_4  and  C_5
REMARK    4  A    between atoms: C_8  and  C_9
REMARK    5  A    between atoms: C_9  and  O_10
REMARK    6  A    between atoms: C_9  and  C_11
REMARK                            x       y       z     vdW  Elec       q    Type
REMARK                         _______ _______ _______ _____ _____    ______ ____
ROOT
ATOM      1  C   UNL     1      47.842   7.524  14.103  0.00  0.00    +0.000 C 
ENDROOT
BRANCH   1   2
ATOM      2  C   UNL     1      46.901   6.763  13.193  0.00  0.00    +0.000 A 
ATOM      3  N   UNL     1      46.143   7.467  12.332  0.00  0.00    +0.000 NA
ATOM      4  C   UNL     1      45.288   6.765  11.564  0.00  0.00    +0.000 A 
ATOM      5  C   UNL     1      45.166   5.393  11.608  0.00  0.00    +0.000 A 
ATOM      6  C   UNL     1      45.935   4.775  12.575  0.00  0.00    +0.000 A 
ATOM      7  N   UNL     1      46.798   5.428  13.379  0.00  0.00    +0.000 NA
BRANCH   5   8
ATOM      8  C   UNL     1      44.313   4.637  10.632  0.00  0.00    +0.000 C 
BRANCH   8   9
ATOM      9  C   UNL     1      45.078   3.860   9.558  0.00  0.00    +0.000 A 
ATOM     10  C   UNL     1      45.056   2.451   9.552  0.00  0.00    +0.000 A 
ATOM     11  C   UNL     1      45.716   1.724   8.557  0.00  0.00    +0.000 A 
ATOM     12  C   UNL     1      46.390   2.389   7.538  0.00  0.00    +0.000 A 
ATOM     13  C   UNL     1      46.398   3.781   7.507  0.00  0.00    +0.000 A 
ATOM     14  C   UNL     1      45.735   4.508   8.498  0.00  0.00    +0.000 A 
ENDBRANCH   8   9
BRANCH   8  15
ATOM     15  O   UNL     1      43.458   3.804  11.415  0.00  0.00    +0.000 OA
ATOM     16  H   UNL     1      43.770   2.889  11.335  0.00  0.00    +0.000 HD
ENDBRANCH   8  15
ENDBRANCH   5   8
ENDBRANCH   1   2
BRANCH   1  19
ATOM     17  O   UNL     1      48.451   8.208  16.826  0.00  0.00    +0.000 OA
ATOM     18  C   UNL     1      48.687   7.094  16.391  0.00  0.00    +0.000 C 
ATOM     19  N   UNL     1      48.351   6.654  15.136  0.00  0.00    +0.000 N 
ATOM     20  H   UNL     1      48.781   5.807  14.791  0.00  0.00    +0.000 HD
BRANCH  18  21
ATOM     21  C   UNL     1      49.536   6.120  17.065  0.00  0.00    +0.000 A 
ATOM     22  C   UNL     1      50.779   6.438  17.580  0.00  0.00    +0.000 A 
ATOM     23  S   UNL     1      51.754   5.039  17.783  0.00  0.00    +0.000 S 
ATOM     24  C   UNL     1      50.478   4.008  17.310  0.00  0.00    +0.000 A 
ATOM     25  N   UNL     1      50.649   2.674  17.106  0.00  0.00    +0.000 NA
ATOM     26  C   UNL     1      49.565   2.046  16.781  0.00  0.00    +0.000 A 
ATOM     27  N   UNL     1      48.317   2.615  16.698  0.00  0.00    +0.000 N 
ATOM     28  C   UNL     1      48.090   3.951  16.926  0.00  0.00    +0.000 A 
ATOM     29  O   UNL     1      46.961   4.426  16.949  0.00  0.00    +0.000 OA
ATOM     30  C   UNL     1      49.302   4.708  17.152  0.00  0.00    +0.000 A 
ATOM     31  H   UNL     1      47.497   2.052  16.526  0.00  0.00    +0.000 HD
ENDBRANCH  18  21
ENDBRANCH   1  19
TORSDOF 6
ENDMDL
MODEL 6
REMARK VINA RESULT:    -7.988      3.043      8.557
REMARK INTER + INTRA:         -11.058
REMARK INTER:                 -10.208
REMARK INTRA:                  -0.850
REMARK UNBOUND:                -0.502
REMARK  Name = 
REMARK  6 active torsions:
REMARK  status: ('A' for Active; 'I' for Inactive)
REMARK    1  A    between atoms: C_2  and  C_19
REMARK    2  A    between atoms: N_3  and  C_4
REMARK    3  A    between atoms: C_4  and  C_5
REMARK    4  A    between atoms: C_8  and  C_9
REMARK    5  A    between atoms: C_9  and  O_10
REMARK    6  A    between atoms: C_9  and  C_11
REMARK                            x       y       z     vdW  Elec       q    Type
REMARK                         _______ _______ _______ _____ _____    ______ ____
ROOT
ATOM      1  C   UNL     1      47.498   6.590  12.901  0.00  0.00    +0.000 C 
ENDROOT
BRANCH   1   2
ATOM      2  C   UNL     1      47.828   5.932  14.224  0.00  0.00    +0.000 A 
ATOM      3  N   UNL     1      47.177   4.799  14.549  0.00  0.00    +0.000 NA
ATOM      4  C   UNL     1      47.464   4.260  15.749  0.00  0.00    +0.000 A 
ATOM      5  C   UNL     1      48.379   4.792  16.631  0.00  0.00    +0.000 A 
ATOM      6  C   UNL     1      48.935   5.992  16.233  0.00  0.00    +0.000 A 
ATOM      7  N   UNL     1      48.676   6.585  15.050  0.00  0.00    +0.000 NA
BRANCH   5   8
ATOM      8  C   UNL     1      48.781   4.081  17.890  0.00  0.00    +0.000 C 
BRANCH   8   9
ATOM      9  C   UNL     1      50.138   3.375  17.839  0.00  0.00    +0.000 A 
ATOM     10  C   UNL     1      51.281   4.000  18.375  0.00  0.00    +0.000 A 
ATOM     11  C   UNL     1      52.522   3.356  18.374  0.00  0.00    +0.000 A 
ATOM     12  C   UNL     1      52.640   2.069  17.859  0.00  0.00    +0.000 A 
ATOM     13  C   UNL     1      51.516   1.421  17.353  0.00  0.00    +0.000 A 
ATOM     14  C   UNL     1      50.276   2.062  17.359  0.00  0.00    +0.000 A 
ENDBRANCH   8   9
BRANCH   8  15
ATOM     15  O   UNL     1      48.697   5.048  18.937  0.00  0.00    +0.000 OA
ATOM     16  H   UNL     1      49.195   4.713  19.699  0.00  0.00    +0.000 HD
ENDBRANCH   8  15
ENDBRANCH   5   8
ENDBRANCH   1   2
BRANCH   1  19
ATOM     17  O   UNL     1      45.163   7.314  11.391  0.00  0.00    +0.000 OA
ATOM     18  C   UNL     1      45.516   6.151  11.482  0.00  0.00    +0.000 C 
ATOM     19  N   UNL     1      46.660   5.724  12.107  0.00  0.00    +0.000 N 
ATOM     20  H   UNL     1      46.752   4.742  12.326  0.00  0.00    +0.000 HD
BRANCH  18  21
ATOM     21  C   UNL     1      44.679   5.015  11.116  0.00  0.00    +0.000 A 
ATOM     22  C   UNL     1      43.655   4.548  11.919  0.00  0.00    +0.000 A 
ATOM     23  S   UNL     1      43.244   2.926  11.536  0.00  0.00    +0.000 S 
ATOM     24  C   UNL     1      44.333   2.897  10.222  0.00  0.00    +0.000 A 
ATOM     25  N   UNL     1      44.615   1.762   9.527  0.00  0.00    +0.000 NA
ATOM     26  C   UNL     1      45.441   1.935   8.545  0.00  0.00    +0.000 A 
ATOM     27  N   UNL     1      45.965   3.145   8.157  0.00  0.00    +0.000 N 
ATOM     28  C   UNL     1      45.684   4.322   8.808  0.00  0.00    +0.000 A 
ATOM     29  O   UNL     1      46.075   5.406   8.393  0.00  0.00    +0.000 OA
ATOM     30  C   UNL     1      44.878   4.142   9.996  0.00  0.00    +0.000 A 
ATOM     31  H   UNL     1      46.534   3.225   7.328  0.00  0.00    +0.000 HD
ENDBRANCH  18  21
ENDBRANCH   1  19
TORSDOF 6
ENDMDL
MODEL 7
REMARK VINA RESULT:    -7.945      1.982      2.698
REMARK INTER + INTRA:         -11.001
REMARK INTER:                 -10.650
REMARK INTRA:                  -0.351
REMARK UNBOUND:                -0.502
REMARK  Name = 
REMARK  6 active torsions:
REMARK  status: ('A' for Active; 'I' for Inactive)
REMARK    1  A    between atoms: C_2  and  C_19
REMARK    2  A    between atoms: N_3  and  C_4
REMARK    3  A    between atoms: C_4  and  C_5
REMARK    4  A    between atoms: C_8  and  C_9
REMARK    5  A    between atoms: C_9  and  O_10
REMARK    6  A    between atoms: C_9  and  C_11
REMARK                            x       y       z     vdW  Elec       q    Type
REMARK                         _______ _______ _______ _____ _____    ______ ____
ROOT
ATOM      1  C   UNL     1      45.361   6.799  12.990  0.00  0.00    +0.000 C 
ENDROOT
BRANCH   1   2
ATOM      2  C   UNL     1      45.167   5.730  11.933  0.00  0.00    +0.000 A 
ATOM      3  N   UNL     1      44.713   4.525  12.326  0.00  0.00    +0.000 NA
ATOM      4  C   UNL     1      44.589   3.585  11.370  0.00  0.00    +0.000 A 
ATOM      5  C   UNL     1      44.884   3.797  10.041  0.00  0.00    +0.000 A 
ATOM      6  C   UNL     1      45.411   5.043   9.758  0.00  0.00    +0.000 A 
ATOM      7  N   UNL     1      45.569   6.018  10.676  0.00  0.00    +0.000 NA
BRANCH   5   8
ATOM      8  C   UNL     1      44.589   2.773   8.984  0.00  0.00    +0.000 C 
BRANCH   8   9
ATOM      9  C   UNL     1      45.710   2.536   7.970  0.00  0.00    +0.000 A 
ATOM     10  C   UNL     1      46.487   1.363   8.035  0.00  0.00    +0.000 A 
ATOM     11  C   UNL     1      47.490   1.110   7.095  0.00  0.00    +0.000 A 
ATOM     12  C   UNL     1      47.720   2.012   6.060  0.00  0.00    +0.000 A 
ATOM     13  C   UNL     1      46.943   3.162   5.959  0.00  0.00    +0.000 A 
ATOM     14  C   UNL     1      45.938   3.413   6.895  0.00  0.00    +0.000 A 
ENDBRANCH   8   9
BRANCH   8  15
ATOM     15  O   UNL     1      44.209   1.585   9.679  0.00  0.00    +0.000 OA
ATOM     16  H   UNL     1      43.395   1.245   9.273  0.00  0.00    +0.000 HD
ENDBRANCH   8  15
ENDBRANCH   5   8
ENDBRANCH   1   2
BRANCH   1  19
ATOM     17  O   UNL     1      47.801   5.405  13.586  0.00  0.00    +0.000 OA
ATOM     18  C   UNL     1      47.807   6.593  13.316  0.00  0.00    +0.000 C 
ATOM     19  N   UNL     1      46.706   7.318  12.935  0.00  0.00    +0.000 N 
ATOM     20  H   UNL     1      46.763   8.327  12.951  0.00  0.00    +0.000 HD
BRANCH  18  21
ATOM     21  C   UNL     1      48.945   7.475  13.545  0.00  0.00    +0.000 A 
ATOM     22  C   UNL     1      49.388   8.388  12.606  0.00  0.00    +0.000 A 
ATOM     23  S   UNL     1      51.015   8.851  12.896  0.00  0.00    +0.000 S 
ATOM     24  C   UNL     1      51.081   7.940  14.338  0.00  0.00    +0.000 A 
ATOM     25  N   UNL     1      52.232   7.754  15.037  0.00  0.00    +0.000 NA
ATOM     26  C   UNL     1      52.087   7.062  16.121  0.00  0.00    +0.000 A 
ATOM     27  N   UNL     1      50.890   6.587  16.601  0.00  0.00    +0.000 N 
ATOM     28  C   UNL     1      49.696   6.777  15.946  0.00  0.00    +0.000 A 
ATOM     29  O   UNL     1      48.625   6.439  16.433  0.00  0.00    +0.000 OA
ATOM     30  C   UNL     1      49.845   7.425  14.660  0.00  0.00    +0.000 A 
ATOM     31  H   UNL     1      50.832   6.130  17.498  0.00  0.00    +0.000 HD
ENDBRANCH  18  21
ENDBRANCH   1  19
TORSDOF 6
ENDMDL
MODEL 8
REMARK VINA RESULT:    -7.464      2.506      3.544
REMARK INTER + INTRA:         -10.365
REMARK INTER:                  -9.643
REMARK INTRA:                  -0.722
REMARK UNBOUND:                -0.502
REMARK  Name = 
REMARK  6 active torsions:
REMARK  status: ('A' for Active; 'I' for Inactive)
REMARK    1  A    between atoms: C_2  and  C_19
REMARK    2  A    between atoms: N_3  and  C_4
REMARK    3  A    between atoms: C_4  and  C_5
REMARK    4  A    between atoms: C_8  and  C_9
REMARK    5  A    between atoms: C_9  and  O_10
REMARK    6  A    between atoms: C_9  and  C_11
REMARK                            x       y       z     vdW  Elec       q    Type
REMARK                         _______ _______ _______ _____ _____    ______ ____
ROOT
ATOM      1  C   UNL     1      47.110   4.796  15.483  0.00  0.00    +0.000 C 
ENDROOT
BRANCH   1   2
ATOM      2  C   UNL     1      46.393   4.527  14.176  0.00  0.00    +0.000 A 
ATOM      3  N   UNL     1      46.483   3.293  13.646  0.00  0.00    +0.000 NA
ATOM      4  C   UNL     1      45.868   3.095  12.464  0.00  0.00    +0.000 A 
ATOM      5  C   UNL     1      45.156   4.069  11.797  0.00  0.00    +0.000 A 
ATOM      6  C   UNL     1      45.188   5.316  12.390  0.00  0.00    +0.000 A 
ATOM      7  N   UNL     1      45.798   5.575  13.565  0.00  0.00    +0.000 NA
BRANCH   5   8
ATOM      8  C   UNL     1      44.360   3.769  10.561  0.00  0.00    +0.000 C 
BRANCH   8   9
ATOM      9  C   UNL     1      45.179   3.335   9.343  0.00  0.00    +0.000 A 
ATOM     10  C   UNL     1      45.399   1.966   9.089  0.00  0.00    +0.000 A 
ATOM     11  C   UNL     1      46.110   1.548   7.961  0.00  0.00    +0.000 A 
ATOM     12  C   UNL     1      46.596   2.486   7.055  0.00  0.00    +0.000 A 
ATOM     13  C   UNL     1      46.363   3.841   7.271  0.00  0.00    +0.000 A 
ATOM     14  C   UNL     1      45.648   4.259   8.394  0.00  0.00    +0.000 A 
ENDBRANCH   8   9
BRANCH   8  15
ATOM     15  O   UNL     1      43.381   2.803  10.944  0.00  0.00    +0.000 OA
ATOM     16  H   UNL     1      43.384   2.737  11.913  0.00  0.00    +0.000 HD
ENDBRANCH   8  15
ENDBRANCH   5   8
ENDBRANCH   1   2
BRANCH   1  19
ATOM     17  O   UNL     1      48.831   5.934  17.482  0.00  0.00    +0.000 OA
ATOM     18  C   UNL     1      48.818   6.369  16.343  0.00  0.00    +0.000 C 
ATOM     19  N   UNL     1      48.096   5.835  15.307  0.00  0.00    +0.000 N 
ATOM     20  H   UNL     1      47.973   6.388  14.470  0.00  0.00    +0.000 HD
BRANCH  18  21
ATOM     21  C   UNL     1      49.412   7.642  15.951  0.00  0.00    +0.000 A 
ATOM     22  C   UNL     1      48.666   8.790  15.759  0.00  0.00    +0.000 A 
ATOM     23  S   UNL     1      49.502   9.928  14.783  0.00  0.00    +0.000 S 
ATOM     24  C   UNL     1      50.897   8.947  14.729  0.00  0.00    +0.000 A 
ATOM     25  N   UNL     1      51.965   9.232  13.935  0.00  0.00    +0.000 NA
ATOM     26  C   UNL     1      52.945   8.395  14.047  0.00  0.00    +0.000 A 
ATOM     27  N   UNL     1      52.982   7.333  14.919  0.00  0.00    +0.000 N 
ATOM     28  C   UNL     1      51.942   7.025  15.763  0.00  0.00    +0.000 A 
ATOM     29  O   UNL     1      52.026   6.140  16.605  0.00  0.00    +0.000 OA
ATOM     30  C   UNL     1      50.775   7.857  15.561  0.00  0.00    +0.000 A 
ATOM     31  H   UNL     1      53.813   6.770  15.021  0.00  0.00    +0.000 HD
ENDBRANCH  18  21
ENDBRANCH   1  19
TORSDOF 6
ENDMDL
MODEL 9
REMARK VINA RESULT:    -7.279      3.041      4.393
REMARK INTER + INTRA:         -10.121
REMARK INTER:                  -8.786
REMARK INTRA:                  -1.335
REMARK UNBOUND:                -0.502
REMARK  Name = 
REMARK  6 active torsions:
REMARK  status: ('A' for Active; 'I' for Inactive)
REMARK    1  A    between atoms: C_2  and  C_19
REMARK    2  A    between atoms: N_3  and  C_4
REMARK    3  A    between atoms: C_4  and  C_5
REMARK    4  A    between atoms: C_8  and  C_9
REMARK    5  A    between atoms: C_9  and  O_10
REMARK    6  A    between atoms: C_9  and  C_11
REMARK                            x       y       z     vdW  Elec       q    Type
REMARK                         _______ _______ _______ _____ _____    ______ ____
ROOT
ATOM      1  C   UNL     1      49.146   8.606  14.314  0.00  0.00    +0.000 C 
ENDROOT
BRANCH   1   2
ATOM      2  C   UNL     1      47.984   8.165  13.450  0.00  0.00    +0.000 A 
ATOM      3  N   UNL     1      48.213   7.230  12.508  0.00  0.00    +0.000 NA
ATOM      4  C   UNL     1      47.168   6.887  11.729  0.00  0.00    +0.000 A 
ATOM      5  C   UNL     1      45.906   7.425  11.858  0.00  0.00    +0.000 A 
ATOM      6  C   UNL     1      45.798   8.426  12.804  0.00  0.00    +0.000 A 
ATOM      7  N   UNL     1      46.811   8.819  13.602  0.00  0.00    +0.000 NA
BRANCH   5   8
ATOM      8  C   UNL     1      44.736   6.908  11.074  0.00  0.00    +0.000 C 
BRANCH   8   9
ATOM      9  C   UNL     1      44.328   5.465  11.378  0.00  0.00    +0.000 A 
ATOM     10  C   UNL     1      43.865   5.116  12.662  0.00  0.00    +0.000 A 
ATOM     11  C   UNL     1      43.452   3.812  12.949  0.00  0.00    +0.000 A 
ATOM     12  C   UNL     1      43.471   2.838  11.954  0.00  0.00    +0.000 A 
ATOM     13  C   UNL     1      43.895   3.170  10.670  0.00  0.00    +0.000 A 
ATOM     14  C   UNL     1      44.304   4.474  10.382  0.00  0.00    +0.000 A 
ENDBRANCH   8   9
BRANCH   8  15
ATOM     15  O   UNL     1      43.675   7.840  11.284  0.00  0.00    +0.000 OA
ATOM     16  H   UNL     1      42.863   7.339  11.460  0.00  0.00    +0.000 HD
ENDBRANCH   8  15
ENDBRANCH   5   8
ENDBRANCH   1   2
BRANCH   1  19
ATOM     17  O   UNL     1      50.928   6.720  15.547  0.00  0.00    +0.000 OA
ATOM     18  C   UNL     1      49.901   7.069  16.103  0.00  0.00    +0.000 C 
ATOM     19  N   UNL     1      49.039   8.026  15.631  0.00  0.00    +0.000 N 
ATOM     20  H   UNL     1      48.115   8.086  16.038  0.00  0.00    +0.000 HD
BRANCH  18  21
ATOM     21  C   UNL     1      49.326   6.387  17.256  0.00  0.00    +0.000 A 
ATOM     22  C   UNL     1      49.625   6.737  18.560  0.00  0.00    +0.000 A 
ATOM     23  S   UNL     1      49.284   5.455  19.650  0.00  0.00    +0.000 S 
ATOM     24  C   UNL     1      48.622   4.493  18.406  0.00  0.00    +0.000 A 
ATOM     25  N   UNL     1      48.266   3.193  18.593  0.00  0.00    +0.000 NA
ATOM     26  C   UNL     1      47.753   2.630  17.547  0.00  0.00    +0.000 A 
ATOM     27  N   UNL     1      47.511   3.258  16.349  0.00  0.00    +0.000 N 
ATOM     28  C   UNL     1      47.824   4.577  16.123  0.00  0.00    +0.000 A 
ATOM     29  O   UNL     1      47.511   5.154  15.089  0.00  0.00    +0.000 OA
ATOM     30  C   UNL     1      48.528   5.197  17.226  0.00  0.00    +0.000 A 
ATOM     31  H   UNL     1      47.027   2.786  15.600  0.00  0.00    +0.000 HD
ENDBRANCH  18  21
ENDBRANCH   1  19
TORSDOF 6
ENDMDL
