MODEL 1
REMARK VINA RESULT:    -7.893      0.000      0.000
REMARK INTER + INTRA:         -12.419
REMARK INTER:                 -11.123
REMARK INTRA:                  -1.296
REMARK UNBOUND:                -1.296
REMARK  Name = 
REMARK  8 active torsions:
REMARK  status: ('A' for Active; 'I' for Inactive)
REMARK    1  A    between atoms: C_1  and  O_2
REMARK    2  A    between atoms: O_2  and  C_3
REMARK    3  A    between atoms: C_10  and  C_11
REMARK    4  A    between atoms: N_13  and  C_14
REMARK    5  A    between atoms: C_14  and  C_15
REMARK    6  A    between atoms: C_18  and  C_19
REMARK    7  A    between atoms: C_20  and  C_21
REMARK    8  A    between atoms: C_21  and  C_22
REMARK                            x       y       z     vdW  Elec       q    Type
REMARK                         _______ _______ _______ _____ _____    ______ ____
ROOT
ATOM      1  C   UNL     1      48.544   7.612  15.362  0.00  0.00    +0.000 C 
ENDROOT
BRANCH   1   2
ATOM      2  C   UNL     1      47.892   7.126  14.092  0.00  0.00    +0.000 A 
ATOM      3  C   UNL     1      47.793   7.969  12.980  0.00  0.00    +0.000 A 
ATOM      4  C   UNL     1      47.163   7.532  11.809  0.00  0.00    +0.000 A 
ATOM      5  C   UNL     1      46.619   6.245  11.718  0.00  0.00    +0.000 A 
ATOM      6  C   UNL     1      46.686   5.416  12.845  0.00  0.00    +0.000 A 
ATOM      7  C   UNL     1      47.316   5.851  14.020  0.00  0.00    +0.000 A 
BRANCH   5   8
ATOM      8  C   UNL     1      45.904   5.787  10.513  0.00  0.00    +0.000 C 
ATOM      9  C   UNL     1      45.174   4.659  10.449  0.00  0.00    +0.000 C 
BRANCH   9  10
ATOM     10  C   UNL     1      44.543   4.131   9.191  0.00  0.00    +0.000 C 
BRANCH  10  11
ATOM     11  C   UNL     1      45.418   3.186   8.413  0.00  0.00    +0.000 A 
ATOM     12  C   UNL     1      46.207   3.623   7.346  0.00  0.00    +0.000 A 
ATOM     13  C   UNL     1      47.047   2.725   6.692  0.00  0.00    +0.000 A 
ATOM     14  C   UNL     1      47.070   1.411   7.127  0.00  0.00    +0.000 A 
ATOM     15  N   UNL     1      46.319   0.946   8.147  0.00  0.00    +0.000 NA
ATOM     16  C   UNL     1      45.513   1.841   8.764  0.00  0.00    +0.000 A 
ENDBRANCH  10  11
ENDBRANCH   9  10
ENDBRANCH   5   8
ENDBRANCH   1   2
BRANCH   1  19
ATOM     17  C   UNL     1      49.807   6.511  17.169  0.00  0.00    +0.000 C 
ATOM     18  O   UNL     1      49.276   7.217  18.023  0.00  0.00    +0.000 OA
ATOM     19  N   UNL     1      49.502   6.649  15.844  0.00  0.00    +0.000 N 
ATOM     20  H   UNL     1      49.987   6.093  15.154  0.00  0.00    +0.000 HD
BRANCH  17  28
ATOM     21  C   UNL     1      49.880   3.081  16.846  0.00  0.00    +0.000 A 
ATOM     22  N   UNL     1      50.165   1.764  16.850  0.00  0.00    +0.000 NA
ATOM     23  C   UNL     1      51.326   1.374  17.382  0.00  0.00    +0.000 A 
ATOM     24  N   UNL     1      52.261   2.153  17.921  0.00  0.00    +0.000 NA
ATOM     25  C   UNL     1      51.942   3.457  17.890  0.00  0.00    +0.000 A 
ATOM     26  S   UNL     1      53.020   4.598  18.536  0.00  0.00    +0.000 S 
ATOM     27  C   UNL     1      51.973   5.880  18.152  0.00  0.00    +0.000 A 
ATOM     28  C   UNL     1      50.796   5.479  17.530  0.00  0.00    +0.000 A 
ATOM     29  C   UNL     1      50.781   4.025  17.371  0.00  0.00    +0.000 A 
BRANCH  21  31
ATOM     30  C   UNL     1      47.563   3.295  17.102  0.00  0.00    +0.000 C 
ATOM     31  O   UNL     1      48.698   3.487  16.261  0.00  0.00    +0.000 OA
ENDBRANCH  21  31
ENDBRANCH  17  28
ENDBRANCH   1  19
TORSDOF 7
ENDMDL
MODEL 2
REMARK VINA RESULT:    -7.631      2.111      2.310
REMARK INTER + INTRA:         -12.050
REMARK INTER:                 -10.647
REMARK INTRA:                  -1.403
REMARK UNBOUND:                -1.296
REMARK  Name = 
REMARK  8 active torsions:
REMARK  status: ('A' for Active; 'I' for Inactive)
REMARK    1  A    between atoms: C_1  and  O_2
REMARK    2  A    between atoms: O_2  and  C_3
REMARK    3  A    between atoms: C_10  and  C_11
REMARK    4  A    between atoms: N_13  and  C_14
REMARK    5  A    between atoms: C_14  and  C_15
REMARK    6  A    between atoms: C_18  and  C_19
REMARK    7  A    between atoms: C_20  and  C_21
REMARK    8  A    between atoms: C_21  and  C_22
REMARK                            x       y       z     vdW  Elec       q    Type
REMARK                         _______ _______ _______ _____ _____    ______ ____
ROOT
ATOM      1  C   UNL     1      47.682   8.930  14.196  0.00  0.00    +0.000 C 
ENDROOT
BRANCH   1   2
ATOM      2  C   UNL     1      46.986   8.085  13.159  0.00  0.00    +0.000 A 
ATOM      3  C   UNL     1      45.622   8.265  12.899  0.00  0.00    +0.000 A 
ATOM      4  C   UNL     1      44.965   7.464  11.958  0.00  0.00    +0.000 A 
ATOM      5  C   UNL     1      45.651   6.468  11.252  0.00  0.00    +0.000 A 
ATOM      6  C   UNL     1      47.007   6.265  11.540  0.00  0.00    +0.000 A 
ATOM      7  C   UNL     1      47.668   7.065  12.484  0.00  0.00    +0.000 A 
BRANCH   5   8
ATOM      8  C   UNL     1      44.964   5.579  10.298  0.00  0.00    +0.000 C 
ATOM      9  C   UNL     1      45.009   4.236  10.347  0.00  0.00    +0.000 C 
BRANCH   9  10
ATOM     10  C   UNL     1      44.407   3.330   9.309  0.00  0.00    +0.000 C 
BRANCH  10  11
ATOM     11  C   UNL     1      45.413   2.705   8.380  0.00  0.00    +0.000 A 
ATOM     12  C   UNL     1      46.047   3.444   7.378  0.00  0.00    +0.000 A 
ATOM     13  C   UNL     1      47.015   2.839   6.580  0.00  0.00    +0.000 A 
ATOM     14  C   UNL     1      47.318   1.507   6.810  0.00  0.00    +0.000 A 
ATOM     15  N   UNL     1      46.724   0.757   7.760  0.00  0.00    +0.000 NA
ATOM     16  C   UNL     1      45.788   1.371   8.520  0.00  0.00    +0.000 A 
ENDBRANCH  10  11
ENDBRANCH   9  10
ENDBRANCH   5   8
ENDBRANCH   1   2
BRANCH   1  19
ATOM     17  C   UNL     1      49.061   8.257  16.125  0.00  0.00    +0.000 C 
ATOM     18  O   UNL     1      49.984   8.986  15.767  0.00  0.00    +0.000 OA
ATOM     19  N   UNL     1      47.903   8.173  15.404  0.00  0.00    +0.000 N 
ATOM     20  H   UNL     1      47.177   7.531  15.687  0.00  0.00    +0.000 HD
BRANCH  17  28
ATOM     21  C   UNL     1      48.432   4.941  16.815  0.00  0.00    +0.000 A 
ATOM     22  N   UNL     1      48.261   3.717  17.355  0.00  0.00    +0.000 NA
ATOM     23  C   UNL     1      48.512   3.564  18.657  0.00  0.00    +0.000 A 
ATOM     24  N   UNL     1      48.923   4.501  19.509  0.00  0.00    +0.000 NA
ATOM     25  C   UNL     1      49.088   5.702  18.931  0.00  0.00    +0.000 A 
ATOM     26  S   UNL     1      49.609   7.018  19.869  0.00  0.00    +0.000 S 
ATOM     27  C   UNL     1      49.560   8.058  18.526  0.00  0.00    +0.000 A 
ATOM     28  C   UNL     1      49.155   7.440  17.348  0.00  0.00    +0.000 A 
ATOM     29  C   UNL     1      48.875   6.026  17.593  0.00  0.00    +0.000 A 
BRANCH  21  31
ATOM     30  C   UNL     1      47.024   4.439  15.014  0.00  0.00    +0.000 C 
ATOM     31  O   UNL     1      48.211   5.089  15.462  0.00  0.00    +0.000 OA
ENDBRANCH  21  31
ENDBRANCH  17  28
ENDBRANCH   1  19
TORSDOF 7
ENDMDL
MODEL 3
REMARK VINA RESULT:    -7.626      2.813      3.607
REMARK INTER + INTRA:         -12.042
REMARK INTER:                 -10.916
REMARK INTRA:                  -1.127
REMARK UNBOUND:                -1.296
REMARK  Name = 
REMARK  8 active torsions:
REMARK  status: ('A' for Active; 'I' for Inactive)
REMARK    1  A    between atoms: C_1  and  O_2
REMARK    2  A    between atoms: O_2  and  C_3
REMARK    3  A    between atoms: C_10  and  C_11
REMARK    4  A    between atoms: N_13  and  C_14
REMARK    5  A    between atoms: C_14  and  C_15
REMARK    6  A    between atoms: C_18  and  C_19
REMARK    7  A    between atoms: C_20  and  C_21
REMARK    8  A    between atoms: C_21  and  C_22
REMARK                            x       y       z     vdW  Elec       q    Type
REMARK                         _______ _______ _______ _____ _____    ______ ____
ROOT
ATOM      1  C   UNL     1      47.893   9.310  14.294  0.00  0.00    +0.000 C 
ENDROOT
BRANCH   1   2
ATOM      2  C   UNL     1      47.163   8.360  13.379  0.00  0.00    +0.000 A 
ATOM      3  C   UNL     1      45.877   8.668  12.920  0.00  0.00    +0.000 A 
ATOM      4  C   UNL     1      45.183   7.777  12.093  0.00  0.00    +0.000 A 
ATOM      5  C   UNL     1      45.755   6.559  11.703  0.00  0.00    +0.000 A 
ATOM      6  C   UNL     1      47.026   6.236  12.194  0.00  0.00    +0.000 A 
ATOM      7  C   UNL     1      47.724   7.127  13.023  0.00  0.00    +0.000 A 
BRANCH   5   8
ATOM      8  C   UNL     1      45.019   5.584  10.878  0.00  0.00    +0.000 C 
ATOM      9  C   UNL     1      45.519   4.991   9.780  0.00  0.00    +0.000 C 
BRANCH   9  10
ATOM     10  C   UNL     1      44.731   4.088   8.873  0.00  0.00    +0.000 C 
BRANCH  10  11
ATOM     11  C   UNL     1      45.564   3.068   8.145  0.00  0.00    +0.000 A 
ATOM     12  C   UNL     1      46.310   3.401   7.011  0.00  0.00    +0.000 A 
ATOM     13  C   UNL     1      47.114   2.440   6.404  0.00  0.00    +0.000 A 
ATOM     14  C   UNL     1      47.144   1.168   6.951  0.00  0.00    +0.000 A 
ATOM     15  N   UNL     1      46.433   0.803   8.038  0.00  0.00    +0.000 NA
ATOM     16  C   UNL     1      45.662   1.758   8.607  0.00  0.00    +0.000 A 
ENDBRANCH  10  11
ENDBRANCH   9  10
ENDBRANCH   5   8
ENDBRANCH   1   2
BRANCH   1  19
ATOM     17  C   UNL     1      48.222   9.657  16.712  0.00  0.00    +0.000 C 
ATOM     18  O   UNL     1      48.903  10.660  16.514  0.00  0.00    +0.000 OA
ATOM     19  N   UNL     1      47.696   8.940  15.674  0.00  0.00    +0.000 N 
ATOM     20  H   UNL     1      47.181   8.090  15.857  0.00  0.00    +0.000 HD
BRANCH  17  28
ATOM     21  C   UNL     1      48.258   6.544  18.189  0.00  0.00    +0.000 A 
ATOM     22  N   UNL     1      48.187   5.472  19.002  0.00  0.00    +0.000 NA
ATOM     23  C   UNL     1      47.815   5.667  20.270  0.00  0.00    +0.000 A 
ATOM     24  N   UNL     1      47.499   6.827  20.841  0.00  0.00    +0.000 NA
ATOM     25  C   UNL     1      47.590   7.870  20.000  0.00  0.00    +0.000 A 
ATOM     26  S   UNL     1      47.223   9.431  20.559  0.00  0.00    +0.000 S 
ATOM     27  C   UNL     1      47.543  10.107  19.034  0.00  0.00    +0.000 A 
ATOM     28  C   UNL     1      47.935   9.178  18.077  0.00  0.00    +0.000 A 
ATOM     29  C   UNL     1      47.965   7.837  18.659  0.00  0.00    +0.000 A 
BRANCH  21  31
ATOM     30  C   UNL     1      48.194   5.133  16.323  0.00  0.00    +0.000 C 
ATOM     31  O   UNL     1      48.681   6.347  16.891  0.00  0.00    +0.000 OA
ENDBRANCH  21  31
ENDBRANCH  17  28
ENDBRANCH   1  19
TORSDOF 7
ENDMDL
MODEL 4
REMARK VINA RESULT:    -6.834      1.634      2.641
REMARK INTER + INTRA:         -10.926
REMARK INTER:                  -9.718
REMARK INTRA:                  -1.209
REMARK UNBOUND:                -1.296
REMARK  Name = 
REMARK  8 active torsions:
REMARK  status: ('A' for Active; 'I' for Inactive)
REMARK    1  A    between atoms: C_1  and  O_2
REMARK    2  A    between atoms: O_2  and  C_3
REMARK    3  A    between atoms: C_10  and  C_11
REMARK    4  A    between atoms: N_13  and  C_14
REMARK    5  A    between atoms: C_14  and  C_15
REMARK    6  A    between atoms: C_18  and  C_19
REMARK    7  A    between atoms: C_20  and  C_21
REMARK    8  A    between atoms: C_21  and  C_22
REMARK                            x       y       z     vdW  Elec       q    Type
REMARK                         _______ _______ _______ _____ _____    ______ ____
ROOT
ATOM      1  C   UNL     1      48.703   6.289  16.484  0.00  0.00    +0.000 C 
ENDROOT
BRANCH   1   2
ATOM      2  C   UNL     1      48.048   6.043  15.148  0.00  0.00    +0.000 A 
ATOM      3  C   UNL     1      48.242   6.938  14.090  0.00  0.00    +0.000 A 
ATOM      4  C   UNL     1      47.614   6.730  12.856  0.00  0.00    +0.000 A 
ATOM      5  C   UNL     1      46.779   5.624  12.648  0.00  0.00    +0.000 A 
ATOM      6  C   UNL     1      46.557   4.751  13.720  0.00  0.00    +0.000 A 
ATOM      7  C   UNL     1      47.185   4.957  14.957  0.00  0.00    +0.000 A 
BRANCH   5   8
ATOM      8  C   UNL     1      46.066   5.419  11.375  0.00  0.00    +0.000 C 
ATOM      9  C   UNL     1      44.995   4.618  11.228  0.00  0.00    +0.000 C 
BRANCH   9  10
ATOM     10  C   UNL     1      44.340   4.316   9.909  0.00  0.00    +0.000 C 
BRANCH  10  11
ATOM     11  C   UNL     1      45.173   3.466   8.989  0.00  0.00    +0.000 A 
ATOM     12  C   UNL     1      45.947   4.027   7.969  0.00  0.00    +0.000 A 
ATOM     13  C   UNL     1      46.750   3.208   7.179  0.00  0.00    +0.000 A 
ATOM     14  C   UNL     1      46.750   1.846   7.433  0.00  0.00    +0.000 A 
ATOM     15  N   UNL     1      46.011   1.264   8.400  0.00  0.00    +0.000 NA
ATOM     16  C   UNL     1      45.242   2.085   9.152  0.00  0.00    +0.000 A 
ENDBRANCH  10  11
ENDBRANCH   9  10
ENDBRANCH   5   8
ENDBRANCH   1   2
BRANCH   1  19
ATOM     17  C   UNL     1      49.631   4.270  17.549  0.00  0.00    +0.000 C 
ATOM     18  O   UNL     1      48.585   4.065  18.160  0.00  0.00    +0.000 OA
ATOM     19  N   UNL     1      49.766   5.342  16.712  0.00  0.00    +0.000 N 
ATOM     20  H   UNL     1      50.650   5.520  16.259  0.00  0.00    +0.000 HD
BRANCH  17  28
ATOM     21  C   UNL     1      52.878   4.729  18.606  0.00  0.00    +0.000 A 
ATOM     22  N   UNL     1      54.176   4.628  18.957  0.00  0.00    +0.000 NA
ATOM     23  C   UNL     1      54.767   3.436  18.839  0.00  0.00    +0.000 A 
ATOM     24  N   UNL     1      54.213   2.307  18.406  0.00  0.00    +0.000 NA
ATOM     25  C   UNL     1      52.919   2.449  18.073  0.00  0.00    +0.000 A 
ATOM     26  S   UNL     1      52.051   1.108  17.499  0.00  0.00    +0.000 S 
ATOM     27  C   UNL     1      50.640   2.037  17.316  0.00  0.00    +0.000 A 
ATOM     28  C   UNL     1      50.791   3.369  17.684  0.00  0.00    +0.000 A 
ATOM     29  C   UNL     1      52.158   3.613  18.141  0.00  0.00    +0.000 A 
BRANCH  21  31
ATOM     30  C   UNL     1      52.275   6.415  20.112  0.00  0.00    +0.000 C 
ATOM     31  O   UNL     1      52.257   5.950  18.765  0.00  0.00    +0.000 OA
ENDBRANCH  21  31
ENDBRANCH  17  28
ENDBRANCH   1  19
TORSDOF 7
ENDMDL
MODEL 5
REMARK VINA RESULT:    -6.614      3.792      9.814
REMARK INTER + INTRA:         -10.616
REMARK INTER:                  -9.674
REMARK INTRA:                  -0.942
REMARK UNBOUND:                -1.296
REMARK  Name = 
REMARK  8 active torsions:
REMARK  status: ('A' for Active; 'I' for Inactive)
REMARK    1  A    between atoms: C_1  and  O_2
REMARK    2  A    between atoms: O_2  and  C_3
REMARK    3  A    between atoms: C_10  and  C_11
REMARK    4  A    between atoms: N_13  and  C_14
REMARK    5  A    between atoms: C_14  and  C_15
REMARK    6  A    between atoms: C_18  and  C_19
REMARK    7  A    between atoms: C_20  and  C_21
REMARK    8  A    between atoms: C_21  and  C_22
REMARK                            x       y       z     vdW  Elec       q    Type
REMARK                         _______ _______ _______ _____ _____    ______ ____
ROOT
ATOM      1  C   UNL     1      47.337   3.515  17.174  0.00  0.00    +0.000 C 
ENDROOT
BRANCH   1   2
ATOM      2  C   UNL     1      48.804   3.236  17.384  0.00  0.00    +0.000 A 
ATOM      3  C   UNL     1      49.632   4.204  17.964  0.00  0.00    +0.000 A 
ATOM      4  C   UNL     1      51.000   3.961  18.135  0.00  0.00    +0.000 A 
ATOM      5  C   UNL     1      51.574   2.748  17.732  0.00  0.00    +0.000 A 
ATOM      6  C   UNL     1      50.751   1.797  17.118  0.00  0.00    +0.000 A 
ATOM      7  C   UNL     1      49.380   2.037  16.945  0.00  0.00    +0.000 A 
BRANCH   5   8
ATOM      8  C   UNL     1      53.021   2.497  17.854  0.00  0.00    +0.000 C 
ATOM      9  C   UNL     1      53.634   1.379  17.425  0.00  0.00    +0.000 C 
BRANCH   9  10
ATOM     10  C   UNL     1      55.087   1.071  17.652  0.00  0.00    +0.000 C 
BRANCH  10  11
ATOM     11  C   UNL     1      55.334  -0.202  18.417  0.00  0.00    +0.000 A 
ATOM     12  C   UNL     1      55.588  -0.197  19.791  0.00  0.00    +0.000 A 
ATOM     13  C   UNL     1      55.750  -1.402  20.470  0.00  0.00    +0.000 A 
ATOM     14  C   UNL     1      55.656  -2.580  19.749  0.00  0.00    +0.000 A 
ATOM     15  N   UNL     1      55.421  -2.629  18.421  0.00  0.00    +0.000 NA
ATOM     16  C   UNL     1      55.266  -1.443  17.789  0.00  0.00    +0.000 A 
ENDBRANCH  10  11
ENDBRANCH   9  10
ENDBRANCH   5   8
ENDBRANCH   1   2
BRANCH   1  19
ATOM     17  C   UNL     1      47.154   4.286  14.840  0.00  0.00    +0.000 C 
ATOM     18  O   UNL     1      47.327   3.148  14.411  0.00  0.00    +0.000 OA
ATOM     19  N   UNL     1      47.151   4.544  16.182  0.00  0.00    +0.000 N 
ATOM     20  H   UNL     1      47.057   5.495  16.513  0.00  0.00    +0.000 HD
BRANCH  17  28
ATOM     21  C   UNL     1      44.573   5.198  12.748  0.00  0.00    +0.000 A 
ATOM     22  N   UNL     1      43.736   5.778  11.865  0.00  0.00    +0.000 NA
ATOM     23  C   UNL     1      44.127   6.912  11.280  0.00  0.00    +0.000 A 
ATOM     24  N   UNL     1      45.276   7.556  11.470  0.00  0.00    +0.000 NA
ATOM     25  C   UNL     1      46.078   6.950  12.361  0.00  0.00    +0.000 A 
ATOM     26  S   UNL     1      47.588   7.633  12.728  0.00  0.00    +0.000 S 
ATOM     27  C   UNL     1      47.946   6.380  13.819  0.00  0.00    +0.000 A 
ATOM     28  C   UNL     1      46.940   5.427  13.932  0.00  0.00    +0.000 A 
ATOM     29  C   UNL     1      45.819   5.773  13.058  0.00  0.00    +0.000 A 
BRANCH  21  31
ATOM     30  C   UNL     1      43.643   3.067  12.481  0.00  0.00    +0.000 C 
ATOM     31  O   UNL     1      44.152   4.048  13.382  0.00  0.00    +0.000 OA
ENDBRANCH  21  31
ENDBRANCH  17  28
ENDBRANCH   1  19
TORSDOF 7
ENDMDL
MODEL 6
REMARK VINA RESULT:    -6.491      1.890      2.486
REMARK INTER + INTRA:         -10.443
REMARK INTER:                  -9.495
REMARK INTRA:                  -0.948
REMARK UNBOUND:                -1.296
REMARK  Name = 
REMARK  8 active torsions:
REMARK  status: ('A' for Active; 'I' for Inactive)
REMARK    1  A    between atoms: C_1  and  O_2
REMARK    2  A    between atoms: O_2  and  C_3
REMARK    3  A    between atoms: C_10  and  C_11
REMARK    4  A    between atoms: N_13  and  C_14
REMARK    5  A    between atoms: C_14  and  C_15
REMARK    6  A    between atoms: C_18  and  C_19
REMARK    7  A    between atoms: C_20  and  C_21
REMARK    8  A    between atoms: C_21  and  C_22
REMARK                            x       y       z     vdW  Elec       q    Type
REMARK                         _______ _______ _______ _____ _____    ______ ____
ROOT
ATOM      1  C   UNL     1      47.890   8.505  14.730  0.00  0.00    +0.000 C 
ENDROOT
BRANCH   1   2
ATOM      2  C   UNL     1      47.232   7.868  13.533  0.00  0.00    +0.000 A 
ATOM      3  C   UNL     1      45.993   8.332  13.077  0.00  0.00    +0.000 A 
ATOM      4  C   UNL     1      45.363   7.725  11.983  0.00  0.00    +0.000 A 
ATOM      5  C   UNL     1      45.955   6.644  11.318  0.00  0.00    +0.000 A 
ATOM      6  C   UNL     1      47.176   6.157  11.800  0.00  0.00    +0.000 A 
ATOM      7  C   UNL     1      47.809   6.763  12.895  0.00  0.00    +0.000 A 
BRANCH   5   8
ATOM      8  C   UNL     1      45.282   5.958  10.200  0.00  0.00    +0.000 C 
ATOM      9  C   UNL     1      44.933   4.659  10.209  0.00  0.00    +0.000 C 
BRANCH   9  10
ATOM     10  C   UNL     1      44.354   3.931   9.028  0.00  0.00    +0.000 C 
BRANCH  10  11
ATOM     11  C   UNL     1      45.337   3.047   8.309  0.00  0.00    +0.000 A 
ATOM     12  C   UNL     1      46.132   3.529   7.265  0.00  0.00    +0.000 A 
ATOM     13  C   UNL     1      47.071   2.692   6.667  0.00  0.00    +0.000 A 
ATOM     14  C   UNL     1      47.183   1.392   7.132  0.00  0.00    +0.000 A 
ATOM     15  N   UNL     1      46.430   0.885   8.130  0.00  0.00    +0.000 NA
ATOM     16  C   UNL     1      45.527   1.722   8.693  0.00  0.00    +0.000 A 
ENDBRANCH  10  11
ENDBRANCH   9  10
ENDBRANCH   5   8
ENDBRANCH   1   2
BRANCH   1  19
ATOM     17  C   UNL     1      49.154   7.799  16.725  0.00  0.00    +0.000 C 
ATOM     18  O   UNL     1      49.465   8.959  16.985  0.00  0.00    +0.000 OA
ATOM     19  N   UNL     1      48.388   7.497  15.634  0.00  0.00    +0.000 N 
ATOM     20  H   UNL     1      48.186   6.533  15.410  0.00  0.00    +0.000 HD
BRANCH  17  28
ATOM     21  C   UNL     1      52.036   5.917  16.880  0.00  0.00    +0.000 A 
ATOM     22  N   UNL     1      53.025   5.042  17.153  0.00  0.00    +0.000 NA
ATOM     23  C   UNL     1      52.822   4.148  18.124  0.00  0.00    +0.000 A 
ATOM     24  N   UNL     1      51.732   4.016  18.876  0.00  0.00    +0.000 NA
ATOM     25  C   UNL     1      50.776   4.911  18.578  0.00  0.00    +0.000 A 
ATOM     26  S   UNL     1      49.313   4.890  19.439  0.00  0.00    +0.000 S 
ATOM     27  C   UNL     1      48.706   6.196  18.538  0.00  0.00    +0.000 A 
ATOM     28  C   UNL     1      49.588   6.676  17.576  0.00  0.00    +0.000 A 
ATOM     29  C   UNL     1      50.830   5.905  17.604  0.00  0.00    +0.000 A 
BRANCH  21  31
ATOM     30  C   UNL     1      53.588   7.386  15.925  0.00  0.00    +0.000 C 
ATOM     31  O   UNL     1      52.261   6.866  15.905  0.00  0.00    +0.000 OA
ENDBRANCH  21  31
ENDBRANCH  17  28
ENDBRANCH   1  19
TORSDOF 7
ENDMDL
MODEL 7
REMARK VINA RESULT:    -6.425      3.959      9.180
REMARK INTER + INTRA:         -10.350
REMARK INTER:                  -9.154
REMARK INTRA:                  -1.197
REMARK UNBOUND:                -1.296
REMARK  Name = 
REMARK  8 active torsions:
REMARK  status: ('A' for Active; 'I' for Inactive)
REMARK    1  A    between atoms: C_1  and  O_2
REMARK    2  A    between atoms: O_2  and  C_3
REMARK    3  A    between atoms: C_10  and  C_11
REMARK    4  A    between atoms: N_13  and  C_14
REMARK    5  A    between atoms: C_14  and  C_15
REMARK    6  A    between atoms: C_18  and  C_19
REMARK    7  A    between atoms: C_20  and  C_21
REMARK    8  A    between atoms: C_21  and  C_22
REMARK                            x       y       z     vdW  Elec       q    Type
REMARK                         _______ _______ _______ _____ _____    ______ ____
ROOT
ATOM      1  C   UNL     1      47.243   3.835  16.930  0.00  0.00    +0.000 C 
ENDROOT
BRANCH   1   2
ATOM      2  C   UNL     1      48.659   3.390  17.194  0.00  0.00    +0.000 A 
ATOM      3  C   UNL     1      49.577   4.265  17.785  0.00  0.00    +0.000 A 
ATOM      4  C   UNL     1      50.901   3.866  18.007  0.00  0.00    +0.000 A 
ATOM      5  C   UNL     1      51.339   2.586  17.645  0.00  0.00    +0.000 A 
ATOM      6  C   UNL     1      50.429   1.725  17.020  0.00  0.00    +0.000 A 
ATOM      7  C   UNL     1      49.102   2.122  16.797  0.00  0.00    +0.000 A 
BRANCH   5   8
ATOM      8  C   UNL     1      52.742   2.168  17.820  0.00  0.00    +0.000 C 
ATOM      9  C   UNL     1      53.190   0.917  17.611  0.00  0.00    +0.000 C 
BRANCH   9  10
ATOM     10  C   UNL     1      54.594   0.462  17.901  0.00  0.00    +0.000 C 
BRANCH  10  11
ATOM     11  C   UNL     1      54.870  -0.965  17.514  0.00  0.00    +0.000 A 
ATOM     12  C   UNL     1      54.726  -2.015  18.425  0.00  0.00    +0.000 A 
ATOM     13  C   UNL     1      54.935  -3.327  18.007  0.00  0.00    +0.000 A 
ATOM     14  C   UNL     1      55.285  -3.549  16.686  0.00  0.00    +0.000 A 
ATOM     15  N   UNL     1      55.442  -2.564  15.777  0.00  0.00    +0.000 NA
ATOM     16  C   UNL     1      55.232  -1.300  16.211  0.00  0.00    +0.000 A 
ENDBRANCH  10  11
ENDBRANCH   9  10
ENDBRANCH   5   8
ENDBRANCH   1   2
BRANCH   1  19
ATOM     17  C   UNL     1      47.171   4.359  14.523  0.00  0.00    +0.000 C 
ATOM     18  O   UNL     1      47.192   3.167  14.224  0.00  0.00    +0.000 OA
ATOM     19  N   UNL     1      47.198   4.764  15.828  0.00  0.00    +0.000 N 
ATOM     20  H   UNL     1      47.231   5.749  16.050  0.00  0.00    +0.000 HD
BRANCH  17  28
ATOM     21  C   UNL     1      49.046   7.184  13.908  0.00  0.00    +0.000 A 
ATOM     22  N   UNL     1      49.596   8.325  13.447  0.00  0.00    +0.000 NA
ATOM     23  C   UNL     1      49.048   8.897  12.372  0.00  0.00    +0.000 A 
ATOM     24  N   UNL     1      47.997   8.461  11.681  0.00  0.00    +0.000 NA
ATOM     25  C   UNL     1      47.485   7.318  12.168  0.00  0.00    +0.000 A 
ATOM     26  S   UNL     1      46.138   6.616  11.410  0.00  0.00    +0.000 S 
ATOM     27  C   UNL     1      46.112   5.338  12.529  0.00  0.00    +0.000 A 
ATOM     28  C   UNL     1      47.113   5.411  13.491  0.00  0.00    +0.000 A 
ATOM     29  C   UNL     1      47.937   6.598  13.270  0.00  0.00    +0.000 A 
BRANCH  21  31
ATOM     30  C   UNL     1      50.787   7.267  15.470  0.00  0.00    +0.000 C 
ATOM     31  O   UNL     1      49.636   6.573  14.995  0.00  0.00    +0.000 OA
ENDBRANCH  21  31
ENDBRANCH  17  28
ENDBRANCH   1  19
TORSDOF 7
ENDMDL
MODEL 8
REMARK VINA RESULT:    -6.395      3.133      4.708
REMARK INTER + INTRA:         -10.308
REMARK INTER:                  -9.096
REMARK INTRA:                  -1.212
REMARK UNBOUND:                -1.296
REMARK  Name = 
REMARK  8 active torsions:
REMARK  status: ('A' for Active; 'I' for Inactive)
REMARK    1  A    between atoms: C_1  and  O_2
REMARK    2  A    between atoms: O_2  and  C_3
REMARK    3  A    between atoms: C_10  and  C_11
REMARK    4  A    between atoms: N_13  and  C_14
REMARK    5  A    between atoms: C_14  and  C_15
REMARK    6  A    between atoms: C_18  and  C_19
REMARK    7  A    between atoms: C_20  and  C_21
REMARK    8  A    between atoms: C_21  and  C_22
REMARK                            x       y       z     vdW  Elec       q    Type
REMARK                         _______ _______ _______ _____ _____    ______ ____
ROOT
ATOM      1  C   UNL     1      48.237   5.342  16.386  0.00  0.00    +0.000 C 
ENDROOT
BRANCH   1   2
ATOM      2  C   UNL     1      47.565   5.287  15.037  0.00  0.00    +0.000 A 
ATOM      3  C   UNL     1      46.822   4.162  14.663  0.00  0.00    +0.000 A 
ATOM      4  C   UNL     1      46.220   4.093  13.401  0.00  0.00    +0.000 A 
ATOM      5  C   UNL     1      46.345   5.144  12.483  0.00  0.00    +0.000 A 
ATOM      6  C   UNL     1      47.121   6.252  12.845  0.00  0.00    +0.000 A 
ATOM      7  C   UNL     1      47.725   6.324  14.109  0.00  0.00    +0.000 A 
BRANCH   5   8
ATOM      8  C   UNL     1      45.765   5.066  11.130  0.00  0.00    +0.000 C 
ATOM      9  C   UNL     1      44.956   4.077  10.709  0.00  0.00    +0.000 C 
BRANCH   9  10
ATOM     10  C   UNL     1      44.460   3.933   9.298  0.00  0.00    +0.000 C 
BRANCH  10  11
ATOM     11  C   UNL     1      45.327   3.066   8.426  0.00  0.00    +0.000 A 
ATOM     12  C   UNL     1      45.953   3.567   7.281  0.00  0.00    +0.000 A 
ATOM     13  C   UNL     1      46.796   2.745   6.537  0.00  0.00    +0.000 A 
ATOM     14  C   UNL     1      46.984   1.440   6.962  0.00  0.00    +0.000 A 
ATOM     15  N   UNL     1      46.392   0.915   8.055  0.00  0.00    +0.000 NA
ATOM     16  C   UNL     1      45.581   1.737   8.759  0.00  0.00    +0.000 A 
ENDBRANCH  10  11
ENDBRANCH   9  10
ENDBRANCH   5   8
ENDBRANCH   1   2
BRANCH   1  19
ATOM     17  C   UNL     1      49.269   7.384  17.304  0.00  0.00    +0.000 C 
ATOM     18  O   UNL     1      50.398   6.913  17.184  0.00  0.00    +0.000 OA
ATOM     19  N   UNL     1      48.161   6.672  16.939  0.00  0.00    +0.000 N 
ATOM     20  H   UNL     1      47.240   7.058  17.093  0.00  0.00    +0.000 HD
BRANCH  17  28
ATOM     21  C   UNL     1      47.535   8.605  20.019  0.00  0.00    +0.000 A 
ATOM     22  N   UNL     1      46.947   9.340  20.984  0.00  0.00    +0.000 NA
ATOM     23  C   UNL     1      47.103  10.665  20.948  0.00  0.00    +0.000 A 
ATOM     24  N   UNL     1      47.790  11.366  20.049  0.00  0.00    +0.000 NA
ATOM     25  C   UNL     1      48.366  10.597  19.110  0.00  0.00    +0.000 A 
ATOM     26  S   UNL     1      49.284  11.323  17.880  0.00  0.00    +0.000 S 
ATOM     27  C   UNL     1      49.620   9.816  17.172  0.00  0.00    +0.000 A 
ATOM     28  C   UNL     1      49.054   8.738  17.844  0.00  0.00    +0.000 A 
ATOM     29  C   UNL     1      48.304   9.209  19.008  0.00  0.00    +0.000 A 
BRANCH  21  31
ATOM     30  C   UNL     1      48.414   6.611  20.873  0.00  0.00    +0.000 C 
ATOM     31  O   UNL     1      47.406   7.233  20.079  0.00  0.00    +0.000 OA
ENDBRANCH  21  31
ENDBRANCH  17  28
ENDBRANCH   1  19
TORSDOF 7
ENDMDL
MODEL 9
REMARK VINA RESULT:    -6.245      3.237      4.642
REMARK INTER + INTRA:         -10.096
REMARK INTER:                  -8.768
REMARK INTRA:                  -1.328
REMARK UNBOUND:                -1.296
REMARK  Name = 
REMARK  8 active torsions:
REMARK  status: ('A' for Active; 'I' for Inactive)
REMARK    1  A    between atoms: C_1  and  O_2
REMARK    2  A    between atoms: O_2  and  C_3
REMARK    3  A    between atoms: C_10  and  C_11
REMARK    4  A    between atoms: N_13  and  C_14
REMARK    5  A    between atoms: C_14  and  C_15
REMARK    6  A    between atoms: C_18  and  C_19
REMARK    7  A    between atoms: C_20  and  C_21
REMARK    8  A    between atoms: C_21  and  C_22
REMARK                            x       y       z     vdW  Elec       q    Type
REMARK                         _______ _______ _______ _____ _____    ______ ____
ROOT
ATOM      1  C   UNL     1      48.336   6.956  15.138  0.00  0.00    +0.000 C 
ENDROOT
BRANCH   1   2
ATOM      2  C   UNL     1      47.510   6.345  14.034  0.00  0.00    +0.000 A 
ATOM      3  C   UNL     1      46.932   5.081  14.200  0.00  0.00    +0.000 A 
ATOM      4  C   UNL     1      46.189   4.497  13.168  0.00  0.00    +0.000 A 
ATOM      5  C   UNL     1      46.003   5.159  11.948  0.00  0.00    +0.000 A 
ATOM      6  C   UNL     1      46.614   6.406  11.770  0.00  0.00    +0.000 A 
ATOM      7  C   UNL     1      47.359   6.994  12.803  0.00  0.00    +0.000 A 
BRANCH   5   8
ATOM      8  C   UNL     1      45.270   4.536  10.831  0.00  0.00    +0.000 C 
ATOM      9  C   UNL     1      45.239   3.213  10.590  0.00  0.00    +0.000 C 
BRANCH   9  10
ATOM     10  C   UNL     1      44.591   2.587   9.387  0.00  0.00    +0.000 C 
BRANCH  10  11
ATOM     11  C   UNL     1      45.528   2.359   8.233  0.00  0.00    +0.000 A 
ATOM     12  C   UNL     1      45.785   3.353   7.285  0.00  0.00    +0.000 A 
ATOM     13  C   UNL     1      46.705   3.119   6.267  0.00  0.00    +0.000 A 
ATOM     14  C   UNL     1      47.342   1.889   6.226  0.00  0.00    +0.000 A 
ATOM     15  N   UNL     1      47.117   0.900   7.115  0.00  0.00    +0.000 NA
ATOM     16  C   UNL     1      46.218   1.156   8.094  0.00  0.00    +0.000 A 
ENDBRANCH  10  11
ENDBRANCH   9  10
ENDBRANCH   5   8
ENDBRANCH   1   2
BRANCH   1  19
ATOM     17  C   UNL     1      50.537   8.048  15.330  0.00  0.00    +0.000 C 
ATOM     18  O   UNL     1      50.177   8.685  16.318  0.00  0.00    +0.000 OA
ATOM     19  N   UNL     1      49.689   7.185  14.695  0.00  0.00    +0.000 N 
ATOM     20  H   UNL     1      49.988   6.710  13.856  0.00  0.00    +0.000 HD
BRANCH  17  28
ATOM     21  C   UNL     1      51.775   8.639  12.170  0.00  0.00    +0.000 A 
ATOM     22  N   UNL     1      52.517   8.848  11.064  0.00  0.00    +0.000 NA
ATOM     23  C   UNL     1      53.846   8.842  11.189  0.00  0.00    +0.000 A 
ATOM     24  N   UNL     1      54.545   8.650  12.305  0.00  0.00    +0.000 NA
ATOM     25  C   UNL     1      53.769   8.453  13.384  0.00  0.00    +0.000 A 
ATOM     26  S   UNL     1      54.492   8.192  14.898  0.00  0.00    +0.000 S 
ATOM     27  C   UNL     1      52.976   8.037  15.650  0.00  0.00    +0.000 A 
ATOM     28  C   UNL     1      51.899   8.181  14.783  0.00  0.00    +0.000 A 
ATOM     29  C   UNL     1      52.377   8.434  13.425  0.00  0.00    +0.000 A 
BRANCH  21  31
ATOM     30  C   UNL     1      49.875  10.006  12.142  0.00  0.00    +0.000 C 
ATOM     31  O   UNL     1      50.402   8.684  12.048  0.00  0.00    +0.000 OA
ENDBRANCH  21  31
ENDBRANCH  17  28
ENDBRANCH   1  19
TORSDOF 7
ENDMDL
