MODEL 1
REMARK VINA RESULT:    -7.144      0.000      0.000
REMARK INTER + INTRA:          -9.424
REMARK INTER:                  -9.024
REMARK INTRA:                  -0.400
REMARK UNBOUND:                -0.400
REMARK  Name = 
REMARK  5 active torsions:
REMARK  status: ('A' for Active; 'I' for Inactive)
REMARK    1  A    between atoms: N_1  and  C_2
REMARK    2  A    between atoms: C_2  and  C_3
REMARK    3  A    between atoms: C_6  and  O_7
REMARK    4  A    between atoms: O_7  and  C_8
REMARK    5  A    between atoms: C_8  and  C_9
REMARK                            x       y       z     vdW  Elec       q    Type
REMARK                         _______ _______ _______ _____ _____    ______ ____
ROOT
ATOM      1  C   UNL     1      46.529   2.309   7.582  0.00  0.00    +0.000 A 
ATOM      2  C   UNL     1      45.743   1.525   8.437  0.00  0.00    +0.000 A 
ATOM      3  C   UNL     1      44.796   2.114   9.282  0.00  0.00    +0.000 A 
ATOM      4  C   UNL     1      44.627   3.497   9.289  0.00  0.00    +0.000 A 
ATOM      5  C   UNL     1      45.398   4.283   8.431  0.00  0.00    +0.000 A 
ATOM      6  C   UNL     1      46.343   3.696   7.583  0.00  0.00    +0.000 A 
ENDROOT
BRANCH   1   7
ATOM      7  C   UNL     1      47.574   1.667   6.705  0.00  0.00    +0.000 C 
BRANCH   7   8
ATOM      8  N   UNL     1      48.637   2.603   6.356  0.00  0.00    +0.000 NA
ATOM      9  H   UNL     1      48.882   3.149   7.178  0.00  0.00    +0.000 HD
ATOM     10  H   UNL     1      48.278   3.261   5.666  0.00  0.00    +0.000 HD
ENDBRANCH   7   8
ENDBRANCH   1   7
BRANCH   4  11
ATOM     11  O   UNL     1      43.759   4.196  10.087  0.00  0.00    +0.000 OA
BRANCH  11  12
ATOM     12  C   UNL     1      43.519   3.650  11.391  0.00  0.00    +0.000 C 
BRANCH  12  13
ATOM     13  C   UNL     1      44.348   4.427  12.433  0.00  0.00    +0.000 C 
ATOM     14  C   UNL     1      44.731   5.805  11.875  0.00  0.00    +0.000 C 
ATOM     15  C   UNL     1      45.630   6.573  12.841  0.00  0.00    +0.000 C 
ATOM     16  C   UNL     1      46.820   5.718  13.264  0.00  0.00    +0.000 C 
ATOM     17  C   UNL     1      46.362   4.360  13.792  0.00  0.00    +0.000 C 
ATOM     18  N   UNL     1      45.558   3.663  12.793  0.00  0.00    +0.000 NA
ATOM     19  H   UNL     1      45.264   2.751  13.151  0.00  0.00    +0.000 HD
ENDBRANCH  12  13
ENDBRANCH  11  12
ENDBRANCH   4  11
TORSDOF 5
ENDMDL
MODEL 2
REMARK VINA RESULT:    -6.815      1.382      2.149
REMARK INTER + INTRA:          -9.008
REMARK INTER:                  -8.587
REMARK INTRA:                  -0.420
REMARK UNBOUND:                -0.400
REMARK  Name = 
REMARK  5 active torsions:
REMARK  status: ('A' for Active; 'I' for Inactive)
REMARK    1  A    between atoms: N_1  and  C_2
REMARK    2  A    between atoms: C_2  and  C_3
REMARK    3  A    between atoms: C_6  and  O_7
REMARK    4  A    between atoms: O_7  and  C_8
REMARK    5  A    between atoms: C_8  and  C_9
REMARK                            x       y       z     vdW  Elec       q    Type
REMARK                         _______ _______ _______ _____ _____    ______ ____
ROOT
ATOM      1  C   UNL     1      46.600   2.128   7.672  0.00  0.00    +0.000 A 
ATOM      2  C   UNL     1      46.621   3.506   7.418  0.00  0.00    +0.000 A 
ATOM      3  C   UNL     1      45.732   4.369   8.067  0.00  0.00    +0.000 A 
ATOM      4  C   UNL     1      44.802   3.865   8.974  0.00  0.00    +0.000 A 
ATOM      5  C   UNL     1      44.783   2.495   9.241  0.00  0.00    +0.000 A 
ATOM      6  C   UNL     1      45.674   1.631   8.596  0.00  0.00    +0.000 A 
ENDROOT
BRANCH   1   7
ATOM      7  C   UNL     1      47.537   1.202   6.938  0.00  0.00    +0.000 C 
BRANCH   7   8
ATOM      8  N   UNL     1      48.312   1.909   5.925  0.00  0.00    +0.000 NA
ATOM      9  H   UNL     1      47.728   2.064   5.107  0.00  0.00    +0.000 HD
ATOM     10  H   UNL     1      49.079   1.310   5.625  0.00  0.00    +0.000 HD
ENDBRANCH   7   8
ENDBRANCH   1   7
BRANCH   4  11
ATOM     11  O   UNL     1      43.861   4.596   9.650  0.00  0.00    +0.000 OA
BRANCH  11  12
ATOM     12  C   UNL     1      44.104   4.804  11.048  0.00  0.00    +0.000 C 
BRANCH  12  13
ATOM     13  C   UNL     1      44.971   6.066  11.236  0.00  0.00    +0.000 C 
ATOM     14  C   UNL     1      46.351   5.676  11.783  0.00  0.00    +0.000 C 
ATOM     15  C   UNL     1      47.211   6.905  12.068  0.00  0.00    +0.000 C 
ATOM     16  C   UNL     1      46.453   7.901  12.939  0.00  0.00    +0.000 C 
ATOM     17  C   UNL     1      45.087   8.228  12.340  0.00  0.00    +0.000 C 
ATOM     18  N   UNL     1      44.303   7.011  12.151  0.00  0.00    +0.000 NA
ATOM     19  H   UNL     1      43.386   7.239  11.758  0.00  0.00    +0.000 HD
ENDBRANCH  12  13
ENDBRANCH  11  12
ENDBRANCH   4  11
TORSDOF 5
ENDMDL
MODEL 3
REMARK VINA RESULT:    -6.466      1.609      5.739
REMARK INTER + INTRA:          -8.567
REMARK INTER:                  -8.222
REMARK INTRA:                  -0.345
REMARK UNBOUND:                -0.400
REMARK  Name = 
REMARK  5 active torsions:
REMARK  status: ('A' for Active; 'I' for Inactive)
REMARK    1  A    between atoms: N_1  and  C_2
REMARK    2  A    between atoms: C_2  and  C_3
REMARK    3  A    between atoms: C_6  and  O_7
REMARK    4  A    between atoms: O_7  and  C_8
REMARK    5  A    between atoms: C_8  and  C_9
REMARK                            x       y       z     vdW  Elec       q    Type
REMARK                         _______ _______ _______ _____ _____    ______ ____
ROOT
ATOM      1  C   UNL     1      46.655   5.058  13.318  0.00  0.00    +0.000 A 
ATOM      2  C   UNL     1      46.220   3.726  13.289  0.00  0.00    +0.000 A 
ATOM      3  C   UNL     1      45.385   3.266  12.264  0.00  0.00    +0.000 A 
ATOM      4  C   UNL     1      44.966   4.134  11.258  0.00  0.00    +0.000 A 
ATOM      5  C   UNL     1      45.405   5.459  11.274  0.00  0.00    +0.000 A 
ATOM      6  C   UNL     1      46.243   5.920  12.296  0.00  0.00    +0.000 A 
ENDROOT
BRANCH   1   7
ATOM      7  C   UNL     1      47.523   5.552  14.447  0.00  0.00    +0.000 C 
BRANCH   7   8
ATOM      8  N   UNL     1      47.178   4.916  15.713  0.00  0.00    +0.000 NA
ATOM      9  H   UNL     1      46.452   4.222  15.549  0.00  0.00    +0.000 HD
ATOM     10  H   UNL     1      46.774   5.618  16.331  0.00  0.00    +0.000 HD
ENDBRANCH   7   8
ENDBRANCH   1   7
BRANCH   4  11
ATOM     11  O   UNL     1      44.128   3.817  10.221  0.00  0.00    +0.000 OA
BRANCH  11  12
ATOM     12  C   UNL     1      44.306   2.519   9.638  0.00  0.00    +0.000 C 
BRANCH  12  13
ATOM     13  C   UNL     1      45.597   2.510   8.794  0.00  0.00    +0.000 C 
ATOM     14  C   UNL     1      45.450   3.465   7.601  0.00  0.00    +0.000 C 
ATOM     15  C   UNL     1      46.673   3.418   6.689  0.00  0.00    +0.000 C 
ATOM     16  C   UNL     1      47.000   1.980   6.300  0.00  0.00    +0.000 C 
ATOM     17  C   UNL     1      47.115   1.090   7.535  0.00  0.00    +0.000 C 
ATOM     18  N   UNL     1      45.888   1.141   8.324  0.00  0.00    +0.000 NA
ATOM     19  H   UNL     1      45.971   0.535   9.144  0.00  0.00    +0.000 HD
ENDBRANCH  12  13
ENDBRANCH  11  12
ENDBRANCH   4  11
TORSDOF 5
ENDMDL
MODEL 4
REMARK VINA RESULT:    -6.038      2.017      5.802
REMARK INTER + INTRA:          -8.026
REMARK INTER:                  -7.694
REMARK INTRA:                  -0.332
REMARK UNBOUND:                -0.400
REMARK  Name = 
REMARK  5 active torsions:
REMARK  status: ('A' for Active; 'I' for Inactive)
REMARK    1  A    between atoms: N_1  and  C_2
REMARK    2  A    between atoms: C_2  and  C_3
REMARK    3  A    between atoms: C_6  and  O_7
REMARK    4  A    between atoms: O_7  and  C_8
REMARK    5  A    between atoms: C_8  and  C_9
REMARK                            x       y       z     vdW  Elec       q    Type
REMARK                         _______ _______ _______ _____ _____    ______ ____
ROOT
ATOM      1  C   UNL     1      46.011   6.926  12.456  0.00  0.00    +0.000 A 
ATOM      2  C   UNL     1      46.597   5.809  13.067  0.00  0.00    +0.000 A 
ATOM      3  C   UNL     1      46.160   4.514  12.764  0.00  0.00    +0.000 A 
ATOM      4  C   UNL     1      45.126   4.319  11.852  0.00  0.00    +0.000 A 
ATOM      5  C   UNL     1      44.546   5.426  11.230  0.00  0.00    +0.000 A 
ATOM      6  C   UNL     1      44.984   6.721  11.529  0.00  0.00    +0.000 A 
ENDROOT
BRANCH   1   7
ATOM      7  C   UNL     1      46.463   8.318  12.818  0.00  0.00    +0.000 C 
BRANCH   7   8
ATOM      8  N   UNL     1      45.334   9.215  13.031  0.00  0.00    +0.000 NA
ATOM      9  H   UNL     1      44.481   8.666  13.098  0.00  0.00    +0.000 HD
ATOM     10  H   UNL     1      45.232   9.811  12.210  0.00  0.00    +0.000 HD
ENDBRANCH   7   8
ENDBRANCH   1   7
BRANCH   4  11
ATOM     11  O   UNL     1      44.588   3.110  11.494  0.00  0.00    +0.000 OA
BRANCH  11  12
ATOM     12  C   UNL     1      44.190   2.976  10.122  0.00  0.00    +0.000 C 
BRANCH  12  13
ATOM     13  C   UNL     1      45.437   2.732   9.248  0.00  0.00    +0.000 C 
ATOM     14  C   UNL     1      45.455   3.722   8.075  0.00  0.00    +0.000 C 
ATOM     15  C   UNL     1      46.627   3.456   7.133  0.00  0.00    +0.000 C 
ATOM     16  C   UNL     1      46.659   1.990   6.714  0.00  0.00    +0.000 C 
ATOM     17  C   UNL     1      46.623   1.069   7.931  0.00  0.00    +0.000 C 
ATOM     18  N   UNL     1      45.446   1.343   8.750  0.00  0.00    +0.000 NA
ATOM     19  H   UNL     1      45.424   0.716   9.558  0.00  0.00    +0.000 HD
ENDBRANCH  12  13
ENDBRANCH  11  12
ENDBRANCH   4  11
TORSDOF 5
ENDMDL
MODEL 5
REMARK VINA RESULT:    -5.621      2.376      6.221
REMARK INTER + INTRA:          -7.499
REMARK INTER:                  -7.114
REMARK INTRA:                  -0.385
REMARK UNBOUND:                -0.400
REMARK  Name = 
REMARK  5 active torsions:
REMARK  status: ('A' for Active; 'I' for Inactive)
REMARK    1  A    between atoms: N_1  and  C_2
REMARK    2  A    between atoms: C_2  and  C_3
REMARK    3  A    between atoms: C_6  and  O_7
REMARK    4  A    between atoms: O_7  and  C_8
REMARK    5  A    between atoms: C_8  and  C_9
REMARK                            x       y       z     vdW  Elec       q    Type
REMARK                         _______ _______ _______ _____ _____    ______ ____
ROOT
ATOM      1  C   UNL     1      46.954   7.952  13.188  0.00  0.00    +0.000 A 
ATOM      2  C   UNL     1      47.574   6.716  12.958  0.00  0.00    +0.000 A 
ATOM      3  C   UNL     1      46.846   5.630  12.461  0.00  0.00    +0.000 A 
ATOM      4  C   UNL     1      45.484   5.762  12.193  0.00  0.00    +0.000 A 
ATOM      5  C   UNL     1      44.863   6.994  12.409  0.00  0.00    +0.000 A 
ATOM      6  C   UNL     1      45.590   8.082  12.903  0.00  0.00    +0.000 A 
ENDROOT
BRANCH   1   7
ATOM      7  C   UNL     1      47.739   9.104  13.762  0.00  0.00    +0.000 C 
BRANCH   7   8
ATOM      8  N   UNL     1      47.527   9.243  15.197  0.00  0.00    +0.000 NA
ATOM      9  H   UNL     1      47.428   8.318  15.610  0.00  0.00    +0.000 HD
ATOM     10  H   UNL     1      46.642   9.725  15.351  0.00  0.00    +0.000 HD
ENDBRANCH   7   8
ENDBRANCH   1   7
BRANCH   4  11
ATOM     11  O   UNL     1      44.656   4.771  11.735  0.00  0.00    +0.000 OA
BRANCH  11  12
ATOM     12  C   UNL     1      43.875   5.086  10.574  0.00  0.00    +0.000 C 
BRANCH  12  13
ATOM     13  C   UNL     1      44.255   4.130   9.425  0.00  0.00    +0.000 C 
ATOM     14  C   UNL     1      44.672   2.767   9.995  0.00  0.00    +0.000 C 
ATOM     15  C   UNL     1      45.143   1.818   8.896  0.00  0.00    +0.000 C 
ATOM     16  C   UNL     1      46.207   2.484   8.029  0.00  0.00    +0.000 C 
ATOM     17  C   UNL     1      45.727   3.838   7.513  0.00  0.00    +0.000 C 
ATOM     18  N   UNL     1      45.350   4.709   8.623  0.00  0.00    +0.000 NA
ATOM     19  H   UNL     1      45.039   5.617   8.268  0.00  0.00    +0.000 HD
ENDBRANCH  12  13
ENDBRANCH  11  12
ENDBRANCH   4  11
TORSDOF 5
ENDMDL
MODEL 6
REMARK VINA RESULT:    -5.566      1.538      2.326
REMARK INTER + INTRA:          -7.429
REMARK INTER:                  -7.100
REMARK INTRA:                  -0.329
REMARK UNBOUND:                -0.400
REMARK  Name = 
REMARK  5 active torsions:
REMARK  status: ('A' for Active; 'I' for Inactive)
REMARK    1  A    between atoms: N_1  and  C_2
REMARK    2  A    between atoms: C_2  and  C_3
REMARK    3  A    between atoms: C_6  and  O_7
REMARK    4  A    between atoms: O_7  and  C_8
REMARK    5  A    between atoms: C_8  and  C_9
REMARK                            x       y       z     vdW  Elec       q    Type
REMARK                         _______ _______ _______ _____ _____    ______ ____
ROOT
ATOM      1  C   UNL     1      45.712   3.407   8.075  0.00  0.00    +0.000 A 
ATOM      2  C   UNL     1      45.936   4.741   8.441  0.00  0.00    +0.000 A 
ATOM      3  C   UNL     1      45.492   5.230   9.675  0.00  0.00    +0.000 A 
ATOM      4  C   UNL     1      44.810   4.394  10.556  0.00  0.00    +0.000 A 
ATOM      5  C   UNL     1      44.594   3.061  10.202  0.00  0.00    +0.000 A 
ATOM      6  C   UNL     1      45.040   2.569   8.971  0.00  0.00    +0.000 A 
ENDROOT
BRANCH   1   7
ATOM      7  C   UNL     1      46.160   2.901   6.727  0.00  0.00    +0.000 C 
BRANCH   7   8
ATOM      8  N   UNL     1      46.910   3.913   5.991  0.00  0.00    +0.000 NA
ATOM      9  H   UNL     1      47.406   4.505   6.653  0.00  0.00    +0.000 HD
ATOM     10  H   UNL     1      46.250   4.515   5.501  0.00  0.00    +0.000 HD
ENDBRANCH   7   8
ENDBRANCH   1   7
BRANCH   4  11
ATOM     11  O   UNL     1      44.299   4.757  11.775  0.00  0.00    +0.000 OA
BRANCH  11  12
ATOM     12  C   UNL     1      45.126   4.483  12.915  0.00  0.00    +0.000 C 
BRANCH  12  13
ATOM     13  C   UNL     1      45.883   5.765  13.318  0.00  0.00    +0.000 C 
ATOM     14  C   UNL     1      45.168   6.997  12.744  0.00  0.00    +0.000 C 
ATOM     15  C   UNL     1      45.934   8.282  13.045  0.00  0.00    +0.000 C 
ATOM     16  C   UNL     1      47.393   8.152  12.619  0.00  0.00    +0.000 C 
ATOM     17  C   UNL     1      48.030   6.899  13.215  0.00  0.00    +0.000 C 
ATOM     18  N   UNL     1      47.276   5.707  12.836  0.00  0.00    +0.000 NA
ATOM     19  H   UNL     1      47.715   4.872  13.231  0.00  0.00    +0.000 HD
ENDBRANCH  12  13
ENDBRANCH  11  12
ENDBRANCH   4  11
TORSDOF 5
ENDMDL
MODEL 7
REMARK VINA RESULT:    -5.437      4.029      7.990
REMARK INTER + INTRA:          -7.267
REMARK INTER:                  -7.030
REMARK INTRA:                  -0.237
REMARK UNBOUND:                -0.400
REMARK  Name = 
REMARK  5 active torsions:
REMARK  status: ('A' for Active; 'I' for Inactive)
REMARK    1  A    between atoms: N_1  and  C_2
REMARK    2  A    between atoms: C_2  and  C_3
REMARK    3  A    between atoms: C_6  and  O_7
REMARK    4  A    between atoms: O_7  and  C_8
REMARK    5  A    between atoms: C_8  and  C_9
REMARK                            x       y       z     vdW  Elec       q    Type
REMARK                         _______ _______ _______ _____ _____    ______ ____
ROOT
ATOM      1  C   UNL     1      48.532   4.557  18.502  0.00  0.00    +0.000 A 
ATOM      2  C   UNL     1      48.213   3.225  18.201  0.00  0.00    +0.000 A 
ATOM      3  C   UNL     1      47.773   2.865  16.923  0.00  0.00    +0.000 A 
ATOM      4  C   UNL     1      47.636   3.832  15.929  0.00  0.00    +0.000 A 
ATOM      5  C   UNL     1      47.963   5.158  16.218  0.00  0.00    +0.000 A 
ATOM      6  C   UNL     1      48.407   5.520  17.494  0.00  0.00    +0.000 A 
ENDROOT
BRANCH   1   7
ATOM      7  C   UNL     1      48.968   4.940  19.893  0.00  0.00    +0.000 C 
BRANCH   7   8
ATOM      8  N   UNL     1      48.516   3.975  20.887  0.00  0.00    +0.000 NA
ATOM      9  H   UNL     1      48.256   4.470  21.737  0.00  0.00    +0.000 HD
ATOM     10  H   UNL     1      49.298   3.369  21.132  0.00  0.00    +0.000 HD
ENDBRANCH   7   8
ENDBRANCH   1   7
BRANCH   4  11
ATOM     11  O   UNL     1      47.188   3.614  14.652  0.00  0.00    +0.000 OA
BRANCH  11  12
ATOM     12  C   UNL     1      46.476   4.698  14.038  0.00  0.00    +0.000 C 
BRANCH  12  13
ATOM     13  C   UNL     1      45.685   4.170  12.825  0.00  0.00    +0.000 C 
ATOM     14  C   UNL     1      45.556   5.271  11.764  0.00  0.00    +0.000 C 
ATOM     15  C   UNL     1      44.701   4.818  10.584  0.00  0.00    +0.000 C 
ATOM     16  C   UNL     1      43.367   4.259  11.068  0.00  0.00    +0.000 C 
ATOM     17  C   UNL     1      43.575   3.183  12.130  0.00  0.00    +0.000 C 
ATOM     18  N   UNL     1      44.350   3.707  13.251  0.00  0.00    +0.000 NA
ATOM     19  H   UNL     1      44.476   2.982  13.962  0.00  0.00    +0.000 HD
ENDBRANCH  12  13
ENDBRANCH  11  12
ENDBRANCH   4  11
TORSDOF 5
ENDMDL
MODEL 8
REMARK VINA RESULT:    -4.961      3.392      5.318
REMARK INTER + INTRA:          -6.666
REMARK INTER:                  -6.290
REMARK INTRA:                  -0.376
REMARK UNBOUND:                -0.400
REMARK  Name = 
REMARK  5 active torsions:
REMARK  status: ('A' for Active; 'I' for Inactive)
REMARK    1  A    between atoms: N_1  and  C_2
REMARK    2  A    between atoms: C_2  and  C_3
REMARK    3  A    between atoms: C_6  and  O_7
REMARK    4  A    between atoms: O_7  and  C_8
REMARK    5  A    between atoms: C_8  and  C_9
REMARK                            x       y       z     vdW  Elec       q    Type
REMARK                         _______ _______ _______ _____ _____    ______ ____
ROOT
ATOM      1  C   UNL     1      44.533   4.123  11.293  0.00  0.00    +0.000 A 
ATOM      2  C   UNL     1      45.136   5.086  10.473  0.00  0.00    +0.000 A 
ATOM      3  C   UNL     1      45.660   6.264  11.016  0.00  0.00    +0.000 A 
ATOM      4  C   UNL     1      45.582   6.500  12.387  0.00  0.00    +0.000 A 
ATOM      5  C   UNL     1      44.993   5.539  13.212  0.00  0.00    +0.000 A 
ATOM      6  C   UNL     1      44.471   4.359  12.671  0.00  0.00    +0.000 A 
ENDROOT
BRANCH   1   7
ATOM      7  C   UNL     1      43.937   2.876  10.692  0.00  0.00    +0.000 C 
BRANCH   7   8
ATOM      8  N   UNL     1      43.070   2.181  11.637  0.00  0.00    +0.000 NA
ATOM      9  H   UNL     1      43.576   2.035  12.507  0.00  0.00    +0.000 HD
ATOM     10  H   UNL     1      42.857   1.256  11.265  0.00  0.00    +0.000 HD
ENDBRANCH   7   8
ENDBRANCH   1   7
BRANCH   4  11
ATOM     11  O   UNL     1      46.027   7.621  13.037  0.00  0.00    +0.000 OA
BRANCH  11  12
ATOM     12  C   UNL     1      47.293   8.141  12.607  0.00  0.00    +0.000 C 
BRANCH  12  13
ATOM     13  C   UNL     1      48.201   8.360  13.834  0.00  0.00    +0.000 C 
ATOM     14  C   UNL     1      48.852   7.033  14.247  0.00  0.00    +0.000 C 
ATOM     15  C   UNL     1      49.689   7.187  15.513  0.00  0.00    +0.000 C 
ATOM     16  C   UNL     1      48.877   7.854  16.619  0.00  0.00    +0.000 C 
ATOM     17  C   UNL     1      48.249   9.157  16.129  0.00  0.00    +0.000 C 
ATOM     18  N   UNL     1      47.418   8.919  14.953  0.00  0.00    +0.000 NA
ATOM     19  H   UNL     1      46.994   9.795  14.638  0.00  0.00    +0.000 HD
ENDBRANCH  12  13
ENDBRANCH  11  12
ENDBRANCH   4  11
TORSDOF 5
ENDMDL
MODEL 9
REMARK VINA RESULT:    -4.853      4.494      6.030
REMARK INTER + INTRA:          -6.529
REMARK INTER:                  -6.315
REMARK INTRA:                  -0.215
REMARK UNBOUND:                -0.400
REMARK  Name = 
REMARK  5 active torsions:
REMARK  status: ('A' for Active; 'I' for Inactive)
REMARK    1  A    between atoms: N_1  and  C_2
REMARK    2  A    between atoms: C_2  and  C_3
REMARK    3  A    between atoms: C_6  and  O_7
REMARK    4  A    between atoms: O_7  and  C_8
REMARK    5  A    between atoms: C_8  and  C_9
REMARK                            x       y       z     vdW  Elec       q    Type
REMARK                         _______ _______ _______ _____ _____    ______ ____
ROOT
ATOM      1  C   UNL     1      44.374   5.345  11.960  0.00  0.00    +0.000 A 
ATOM      2  C   UNL     1      44.842   4.388  12.870  0.00  0.00    +0.000 A 
ATOM      3  C   UNL     1      46.116   4.499  13.436  0.00  0.00    +0.000 A 
ATOM      4  C   UNL     1      46.945   5.565  13.094  0.00  0.00    +0.000 A 
ATOM      5  C   UNL     1      46.481   6.529  12.197  0.00  0.00    +0.000 A 
ATOM      6  C   UNL     1      45.206   6.422  11.632  0.00  0.00    +0.000 A 
ENDROOT
BRANCH   1   7
ATOM      7  C   UNL     1      43.014   5.195  11.326  0.00  0.00    +0.000 C 
BRANCH   7   8
ATOM      8  N   UNL     1      42.111   6.268  11.723  0.00  0.00    +0.000 NA
ATOM      9  H   UNL     1      41.531   5.947  12.495  0.00  0.00    +0.000 HD
ATOM     10  H   UNL     1      41.479   6.465  10.948  0.00  0.00    +0.000 HD
ENDBRANCH   7   8
ENDBRANCH   1   7
BRANCH   4  11
ATOM     11  O   UNL     1      48.220   5.771  13.552  0.00  0.00    +0.000 OA
BRANCH  11  12
ATOM     12  C   UNL     1      48.434   6.969  14.311  0.00  0.00    +0.000 C 
BRANCH  12  13
ATOM     13  C   UNL     1      48.926   6.598  15.725  0.00  0.00    +0.000 C 
ATOM     14  C   UNL     1      50.435   6.856  15.839  0.00  0.00    +0.000 C 
ATOM     15  C   UNL     1      50.980   6.417  17.195  0.00  0.00    +0.000 C 
ATOM     16  C   UNL     1      50.567   4.982  17.503  0.00  0.00    +0.000 C 
ATOM     17  C   UNL     1      49.059   4.799  17.354  0.00  0.00    +0.000 C 
ATOM     18  N   UNL     1      48.622   5.183  16.015  0.00  0.00    +0.000 NA
ATOM     19  H   UNL     1      47.612   5.049  15.921  0.00  0.00    +0.000 HD
ENDBRANCH  12  13
ENDBRANCH  11  12
ENDBRANCH   4  11
TORSDOF 5
ENDMDL
