MODEL 1
REMARK VINA RESULT:    -8.765      0.000      0.000
REMARK INTER + INTRA:         -12.201
REMARK INTER:                 -11.327
REMARK INTRA:                  -0.874
REMARK UNBOUND:                -0.874
REMARK  Name = 
REMARK  5 active torsions:
REMARK  status: ('A' for Active; 'I' for Inactive)
REMARK    1  A    between atoms: C_2  and  C_4
REMARK    2  A    between atoms: C_7  and  N_8
REMARK    3  A    between atoms: N_8  and  C_9
REMARK    4  A    between atoms: C_9  and  C_10
REMARK    5  A    between atoms: C_14  and  C_15
REMARK                            x       y       z     vdW  Elec       q    Type
REMARK                         _______ _______ _______ _____ _____    ______ ____
ROOT
ATOM      1  C   UNL     1      43.381   4.681  11.189  0.00  0.00    +0.000 C 
ENDROOT
BRANCH   1   2
ATOM      2  C   UNL     1      44.633   4.939  11.984  0.00  0.00    +0.000 A 
ATOM      3  C   UNL     1      45.076   4.031  12.936  0.00  0.00    +0.000 A 
ATOM      4  N   UNL     1      46.180   4.212  13.691  0.00  0.00    +0.000 NA
ATOM      5  C   UNL     1      46.889   5.348  13.475  0.00  0.00    +0.000 A 
ATOM      6  C   UNL     1      46.561   6.343  12.550  0.00  0.00    +0.000 A 
ATOM      7  C   UNL     1      45.396   6.103  11.802  0.00  0.00    +0.000 A 
BRANCH   6   8
ATOM      8  C   UNL     1      47.385   7.563  12.378  0.00  0.00    +0.000 A 
ATOM      9  C   UNL     1      48.672   7.503  11.802  0.00  0.00    +0.000 A 
ATOM     10  C   UNL     1      49.444   8.655  11.622  0.00  0.00    +0.000 A 
ATOM     11  C   UNL     1      48.950   9.887  12.026  0.00  0.00    +0.000 A 
ATOM     12  F   UNL     1      49.691  10.988  11.854  0.00  0.00    +0.000 F 
ATOM     13  C   UNL     1      47.697   9.989  12.606  0.00  0.00    +0.000 A 
ATOM     14  C   UNL     1      46.929   8.839  12.770  0.00  0.00    +0.000 A 
ATOM     15  F   UNL     1      45.709   8.992  13.311  0.00  0.00    +0.000 F 
ENDBRANCH   6   8
ENDBRANCH   1   2
BRANCH   1  16
ATOM     16  N   UNL     1      43.659   4.769   9.758  0.00  0.00    +0.000 N 
ATOM     17  H   UNL     1      42.807   4.839   9.202  0.00  0.00    +0.000 HD
BRANCH  16  21
ATOM     18  C   UNL     1      46.260   2.039   7.968  0.00  0.00    +0.000 A 
ATOM     19  C   UNL     1      46.417   3.380   7.657  0.00  0.00    +0.000 A 
ATOM     20  C   UNL     1      45.571   4.312   8.270  0.00  0.00    +0.000 A 
ATOM     21  C   UNL     1      44.603   3.902   9.191  0.00  0.00    +0.000 A 
ATOM     22  C   UNL     1      44.523   2.518   9.403  0.00  0.00    +0.000 A 
ATOM     23  N   UNL     1      45.323   1.575   8.834  0.00  0.00    +0.000 NA
BRANCH  18  25
ATOM     24  N   UNL     1      46.872  -0.286   7.599  0.00  0.00    +0.000 N 
ATOM     25  C   UNL     1      47.137   1.024   7.299  0.00  0.00    +0.000 C 
ATOM     26  O   UNL     1      48.030   1.332   6.519  0.00  0.00    +0.000 OA
ATOM     27  H   UNL     1      47.392  -1.015   7.133  0.00  0.00    +0.000 HD
ATOM     28  H   UNL     1      46.081  -0.514   8.190  0.00  0.00    +0.000 HD
ENDBRANCH  18  25
ENDBRANCH  16  21
ENDBRANCH   1  16
TORSDOF 5
ENDMDL
MODEL 2
REMARK VINA RESULT:    -8.236      1.708      1.906
REMARK INTER + INTRA:         -11.517
REMARK INTER:                 -10.897
REMARK INTRA:                  -0.620
REMARK UNBOUND:                -0.874
REMARK  Name = 
REMARK  5 active torsions:
REMARK  status: ('A' for Active; 'I' for Inactive)
REMARK    1  A    between atoms: C_2  and  C_4
REMARK    2  A    between atoms: C_7  and  N_8
REMARK    3  A    between atoms: N_8  and  C_9
REMARK    4  A    between atoms: C_9  and  C_10
REMARK    5  A    between atoms: C_14  and  C_15
REMARK                            x       y       z     vdW  Elec       q    Type
REMARK                         _______ _______ _______ _____ _____    ______ ____
ROOT
ATOM      1  C   UNL     1      43.945   5.244  10.958  0.00  0.00    +0.000 C 
ENDROOT
BRANCH   1   2
ATOM      2  C   UNL     1      45.090   5.144  11.930  0.00  0.00    +0.000 A 
ATOM      3  C   UNL     1      45.144   4.124  12.869  0.00  0.00    +0.000 A 
ATOM      4  N   UNL     1      46.134   3.989  13.777  0.00  0.00    +0.000 NA
ATOM      5  C   UNL     1      47.131   4.908  13.734  0.00  0.00    +0.000 A 
ATOM      6  C   UNL     1      47.205   5.981  12.843  0.00  0.00    +0.000 A 
ATOM      7  C   UNL     1      46.140   6.075  11.930  0.00  0.00    +0.000 A 
BRANCH   6   8
ATOM      8  C   UNL     1      48.327   6.950  12.866  0.00  0.00    +0.000 A 
ATOM      9  C   UNL     1      48.883   7.456  11.671  0.00  0.00    +0.000 A 
ATOM     10  C   UNL     1      49.929   8.383  11.691  0.00  0.00    +0.000 A 
ATOM     11  C   UNL     1      50.447   8.813  12.903  0.00  0.00    +0.000 A 
ATOM     12  F   UNL     1      51.450   9.701  12.918  0.00  0.00    +0.000 F 
ATOM     13  C   UNL     1      49.939   8.334  14.098  0.00  0.00    +0.000 A 
ATOM     14  C   UNL     1      48.888   7.420  14.071  0.00  0.00    +0.000 A 
ATOM     15  F   UNL     1      48.410   7.006  15.255  0.00  0.00    +0.000 F 
ENDBRANCH   6   8
ENDBRANCH   1   2
BRANCH   1  16
ATOM     16  N   UNL     1      43.684   3.947  10.341  0.00  0.00    +0.000 N 
ATOM     17  H   UNL     1      43.444   3.234  11.028  0.00  0.00    +0.000 HD
BRANCH  16  21
ATOM     18  C   UNL     1      46.472   2.722   7.486  0.00  0.00    +0.000 A 
ATOM     19  C   UNL     1      45.965   1.762   8.348  0.00  0.00    +0.000 A 
ATOM     20  C   UNL     1      45.008   2.151   9.293  0.00  0.00    +0.000 A 
ATOM     21  C   UNL     1      44.558   3.473   9.354  0.00  0.00    +0.000 A 
ATOM     22  C   UNL     1      45.164   4.356   8.448  0.00  0.00    +0.000 A 
ATOM     23  N   UNL     1      46.095   4.026   7.511  0.00  0.00    +0.000 NA
BRANCH  18  25
ATOM     24  N   UNL     1      47.539   3.057   5.326  0.00  0.00    +0.000 N 
ATOM     25  C   UNL     1      47.519   2.330   6.487  0.00  0.00    +0.000 C 
ATOM     26  O   UNL     1      48.321   1.427   6.689  0.00  0.00    +0.000 OA
ATOM     27  H   UNL     1      48.260   2.877   4.643  0.00  0.00    +0.000 HD
ATOM     28  H   UNL     1      46.911   3.845   5.218  0.00  0.00    +0.000 HD
ENDBRANCH  18  25
ENDBRANCH  16  21
ENDBRANCH   1  16
TORSDOF 5
ENDMDL
MODEL 3
REMARK VINA RESULT:    -8.189      2.608      3.886
REMARK INTER + INTRA:         -11.457
REMARK INTER:                 -11.074
REMARK INTRA:                  -0.383
REMARK UNBOUND:                -0.874
REMARK  Name = 
REMARK  5 active torsions:
REMARK  status: ('A' for Active; 'I' for Inactive)
REMARK    1  A    between atoms: C_2  and  C_4
REMARK    2  A    between atoms: C_7  and  N_8
REMARK    3  A    between atoms: N_8  and  C_9
REMARK    4  A    between atoms: C_9  and  C_10
REMARK    5  A    between atoms: C_14  and  C_15
REMARK                            x       y       z     vdW  Elec       q    Type
REMARK                         _______ _______ _______ _____ _____    ______ ____
ROOT
ATOM      1  C   UNL     1      43.836   4.967  11.402  0.00  0.00    +0.000 C 
ENDROOT
BRANCH   1   2
ATOM      2  C   UNL     1      45.160   5.432  11.949  0.00  0.00    +0.000 A 
ATOM      3  C   UNL     1      45.918   6.381  11.278  0.00  0.00    +0.000 A 
ATOM      4  N   UNL     1      47.118   6.826  11.707  0.00  0.00    +0.000 NA
ATOM      5  C   UNL     1      47.576   6.314  12.876  0.00  0.00    +0.000 A 
ATOM      6  C   UNL     1      46.918   5.359  13.656  0.00  0.00    +0.000 A 
ATOM      7  C   UNL     1      45.680   4.926  13.150  0.00  0.00    +0.000 A 
BRANCH   6   8
ATOM      8  C   UNL     1      47.491   4.841  14.921  0.00  0.00    +0.000 A 
ATOM      9  C   UNL     1      47.396   3.475  15.263  0.00  0.00    +0.000 A 
ATOM     10  C   UNL     1      47.951   2.982  16.448  0.00  0.00    +0.000 A 
ATOM     11  C   UNL     1      48.600   3.845  17.318  0.00  0.00    +0.000 A 
ATOM     12  F   UNL     1      49.130   3.369  18.452  0.00  0.00    +0.000 F 
ATOM     13  C   UNL     1      48.706   5.194  17.027  0.00  0.00    +0.000 A 
ATOM     14  C   UNL     1      48.162   5.676  15.838  0.00  0.00    +0.000 A 
ATOM     15  F   UNL     1      48.314   6.986  15.586  0.00  0.00    +0.000 F 
ENDBRANCH   6   8
ENDBRANCH   1   2
BRANCH   1  16
ATOM     16  N   UNL     1      43.881   4.901   9.945  0.00  0.00    +0.000 N 
ATOM     17  H   UNL     1      42.951   4.894   9.529  0.00  0.00    +0.000 HD
BRANCH  16  21
ATOM     18  C   UNL     1      46.259   2.049   8.038  0.00  0.00    +0.000 A 
ATOM     19  C   UNL     1      46.399   3.372   7.648  0.00  0.00    +0.000 A 
ATOM     20  C   UNL     1      45.629   4.344   8.297  0.00  0.00    +0.000 A 
ATOM     21  C   UNL     1      44.754   3.994   9.329  0.00  0.00    +0.000 A 
ATOM     22  C   UNL     1      44.681   2.622   9.614  0.00  0.00    +0.000 A 
ATOM     23  N   UNL     1      45.409   1.641   9.015  0.00  0.00    +0.000 NA
BRANCH  18  25
ATOM     24  N   UNL     1      46.770  -0.303   7.687  0.00  0.00    +0.000 N 
ATOM     25  C   UNL     1      47.053   0.990   7.334  0.00  0.00    +0.000 C 
ATOM     26  O   UNL     1      47.897   1.250   6.485  0.00  0.00    +0.000 OA
ATOM     27  H   UNL     1      47.231  -1.059   7.204  0.00  0.00    +0.000 HD
ATOM     28  H   UNL     1      46.017  -0.490   8.338  0.00  0.00    +0.000 HD
ENDBRANCH  18  25
ENDBRANCH  16  21
ENDBRANCH   1  16
TORSDOF 5
ENDMDL
MODEL 4
REMARK VINA RESULT:    -7.962      4.357      7.356
REMARK INTER + INTRA:         -11.162
REMARK INTER:                 -10.521
REMARK INTRA:                  -0.642
REMARK UNBOUND:                -0.874
REMARK  Name = 
REMARK  5 active torsions:
REMARK  status: ('A' for Active; 'I' for Inactive)
REMARK    1  A    between atoms: C_2  and  C_4
REMARK    2  A    between atoms: C_7  and  N_8
REMARK    3  A    between atoms: N_8  and  C_9
REMARK    4  A    between atoms: C_9  and  C_10
REMARK    5  A    between atoms: C_14  and  C_15
REMARK                            x       y       z     vdW  Elec       q    Type
REMARK                         _______ _______ _______ _____ _____    ______ ____
ROOT
ATOM      1  C   UNL     1      45.907   7.312  12.474  0.00  0.00    +0.000 C 
ENDROOT
BRANCH   1   2
ATOM      2  C   UNL     1      45.110   6.383  11.598  0.00  0.00    +0.000 A 
ATOM      3  C   UNL     1      43.727   6.324  11.690  0.00  0.00    +0.000 A 
ATOM      4  N   UNL     1      42.958   5.501  10.945  0.00  0.00    +0.000 NA
ATOM      5  C   UNL     1      43.599   4.711  10.049  0.00  0.00    +0.000 A 
ATOM      6  C   UNL     1      44.982   4.670   9.849  0.00  0.00    +0.000 A 
ATOM      7  C   UNL     1      45.729   5.540  10.662  0.00  0.00    +0.000 A 
BRANCH   6   8
ATOM      8  C   UNL     1      45.609   3.770   8.853  0.00  0.00    +0.000 A 
ATOM      9  C   UNL     1      46.377   4.280   7.784  0.00  0.00    +0.000 A 
ATOM     10  C   UNL     1      46.984   3.432   6.854  0.00  0.00    +0.000 A 
ATOM     11  C   UNL     1      46.826   2.059   6.966  0.00  0.00    +0.000 A 
ATOM     12  F   UNL     1      47.409   1.249   6.072  0.00  0.00    +0.000 F 
ATOM     13  C   UNL     1      46.072   1.516   7.992  0.00  0.00    +0.000 A 
ATOM     14  C   UNL     1      45.481   2.367   8.923  0.00  0.00    +0.000 A 
ATOM     15  F   UNL     1      44.783   1.793   9.916  0.00  0.00    +0.000 F 
ENDBRANCH   6   8
ENDBRANCH   1   2
BRANCH   1  16
ATOM     16  N   UNL     1      47.207   6.727  12.789  0.00  0.00    +0.000 N 
ATOM     17  H   UNL     1      47.624   6.256  11.988  0.00  0.00    +0.000 HD
BRANCH  16  21
ATOM     18  C   UNL     1      47.736   4.353  16.182  0.00  0.00    +0.000 A 
ATOM     19  C   UNL     1      48.425   5.554  16.119  0.00  0.00    +0.000 A 
ATOM     20  C   UNL     1      48.237   6.375  15.002  0.00  0.00    +0.000 A 
ATOM     21  C   UNL     1      47.359   6.003  13.980  0.00  0.00    +0.000 A 
ATOM     22  C   UNL     1      46.741   4.755  14.144  0.00  0.00    +0.000 A 
ATOM     23  N   UNL     1      46.889   3.924  15.211  0.00  0.00    +0.000 NA
BRANCH  18  25
ATOM     24  N   UNL     1      46.862   2.704  17.742  0.00  0.00    +0.000 N 
ATOM     25  C   UNL     1      47.947   3.447  17.357  0.00  0.00    +0.000 C 
ATOM     26  O   UNL     1      49.021   3.356  17.938  0.00  0.00    +0.000 OA
ATOM     27  H   UNL     1      46.963   2.033  18.489  0.00  0.00    +0.000 HD
ATOM     28  H   UNL     1      46.009   2.746  17.197  0.00  0.00    +0.000 HD
ENDBRANCH  18  25
ENDBRANCH  16  21
ENDBRANCH   1  16
TORSDOF 5
ENDMDL
MODEL 5
REMARK VINA RESULT:    -7.833      3.872      7.053
REMARK INTER + INTRA:         -10.996
REMARK INTER:                 -10.501
REMARK INTRA:                  -0.495
REMARK UNBOUND:                -0.874
REMARK  Name = 
REMARK  5 active torsions:
REMARK  status: ('A' for Active; 'I' for Inactive)
REMARK    1  A    between atoms: C_2  and  C_4
REMARK    2  A    between atoms: C_7  and  N_8
REMARK    3  A    between atoms: N_8  and  C_9
REMARK    4  A    between atoms: C_9  and  C_10
REMARK    5  A    between atoms: C_14  and  C_15
REMARK                            x       y       z     vdW  Elec       q    Type
REMARK                         _______ _______ _______ _____ _____    ______ ____
ROOT
ATOM      1  C   UNL     1      44.096   6.411  11.710  0.00  0.00    +0.000 C 
ENDROOT
BRANCH   1   2
ATOM      2  C   UNL     1      44.120   5.032  11.105  0.00  0.00    +0.000 A 
ATOM      3  C   UNL     1      43.342   4.008  11.627  0.00  0.00    +0.000 A 
ATOM      4  N   UNL     1      43.332   2.749  11.141  0.00  0.00    +0.000 NA
ATOM      5  C   UNL     1      44.122   2.503  10.067  0.00  0.00    +0.000 A 
ATOM      6  C   UNL     1      44.950   3.437   9.439  0.00  0.00    +0.000 A 
ATOM      7  C   UNL     1      44.926   4.727   9.998  0.00  0.00    +0.000 A 
BRANCH   6   8
ATOM      8  C   UNL     1      45.793   3.086   8.272  0.00  0.00    +0.000 A 
ATOM      9  C   UNL     1      46.306   4.082   7.413  0.00  0.00    +0.000 A 
ATOM     10  C   UNL     1      47.116   3.755   6.321  0.00  0.00    +0.000 A 
ATOM     11  C   UNL     1      47.418   2.427   6.059  0.00  0.00    +0.000 A 
ATOM     12  F   UNL     1      48.193   2.117   5.012  0.00  0.00    +0.000 F 
ATOM     13  C   UNL     1      46.926   1.418   6.869  0.00  0.00    +0.000 A 
ATOM     14  C   UNL     1      46.130   1.752   7.962  0.00  0.00    +0.000 A 
ATOM     15  F   UNL     1      45.700   0.742   8.735  0.00  0.00    +0.000 F 
ENDBRANCH   6   8
ENDBRANCH   1   2
BRANCH   1  16
ATOM     16  N   UNL     1      44.911   6.452  12.920  0.00  0.00    +0.000 N 
ATOM     17  H   UNL     1      44.414   6.865  13.708  0.00  0.00    +0.000 HD
BRANCH  16  21
ATOM     18  C   UNL     1      48.931   7.508  12.537  0.00  0.00    +0.000 A 
ATOM     19  C   UNL     1      47.983   8.372  12.011  0.00  0.00    +0.000 A 
ATOM     20  C   UNL     1      46.630   8.046  12.156  0.00  0.00    +0.000 A 
ATOM     21  C   UNL     1      46.240   6.887  12.833  0.00  0.00    +0.000 A 
ATOM     22  C   UNL     1      47.291   6.081  13.297  0.00  0.00    +0.000 A 
ATOM     23  N   UNL     1      48.619   6.355  13.183  0.00  0.00    +0.000 NA
BRANCH  18  25
ATOM     24  N   UNL     1      51.139   7.816  13.511  0.00  0.00    +0.000 N 
ATOM     25  C   UNL     1      50.387   7.825  12.367  0.00  0.00    +0.000 C 
ATOM     26  O   UNL     1      50.887   8.065  11.275  0.00  0.00    +0.000 OA
ATOM     27  H   UNL     1      52.135   7.963  13.449  0.00  0.00    +0.000 HD
ATOM     28  H   UNL     1      50.712   7.542  14.388  0.00  0.00    +0.000 HD
ENDBRANCH  18  25
ENDBRANCH  16  21
ENDBRANCH   1  16
TORSDOF 5
ENDMDL
MODEL 6
REMARK VINA RESULT:    -7.445      4.018      7.178
REMARK INTER + INTRA:         -10.494
REMARK INTER:                  -9.837
REMARK INTRA:                  -0.658
REMARK UNBOUND:                -0.874
REMARK  Name = 
REMARK  5 active torsions:
REMARK  status: ('A' for Active; 'I' for Inactive)
REMARK    1  A    between atoms: C_2  and  C_4
REMARK    2  A    between atoms: C_7  and  N_8
REMARK    3  A    between atoms: N_8  and  C_9
REMARK    4  A    between atoms: C_9  and  C_10
REMARK    5  A    between atoms: C_14  and  C_15
REMARK                            x       y       z     vdW  Elec       q    Type
REMARK                         _______ _______ _______ _____ _____    ______ ____
ROOT
ATOM      1  C   UNL     1      44.821   5.353  13.200  0.00  0.00    +0.000 C 
ENDROOT
BRANCH   1   2
ATOM      2  C   UNL     1      44.484   4.270  12.210  0.00  0.00    +0.000 A 
ATOM      3  C   UNL     1      43.422   3.403  12.430  0.00  0.00    +0.000 A 
ATOM      4  N   UNL     1      43.080   2.404  11.590  0.00  0.00    +0.000 NA
ATOM      5  C   UNL     1      43.821   2.274  10.462  0.00  0.00    +0.000 A 
ATOM      6  C   UNL     1      44.911   3.075  10.112  0.00  0.00    +0.000 A 
ATOM      7  C   UNL     1      45.226   4.090  11.032  0.00  0.00    +0.000 A 
BRANCH   6   8
ATOM      8  C   UNL     1      45.679   2.862   8.862  0.00  0.00    +0.000 A 
ATOM      9  C   UNL     1      46.057   1.568   8.445  0.00  0.00    +0.000 A 
ATOM     10  C   UNL     1      46.765   1.364   7.257  0.00  0.00    +0.000 A 
ATOM     11  C   UNL     1      47.120   2.449   6.470  0.00  0.00    +0.000 A 
ATOM     12  F   UNL     1      47.799   2.250   5.333  0.00  0.00    +0.000 F 
ATOM     13  C   UNL     1      46.779   3.736   6.847  0.00  0.00    +0.000 A 
ATOM     14  C   UNL     1      46.062   3.931   8.026  0.00  0.00    +0.000 A 
ATOM     15  F   UNL     1      45.730   5.194   8.336  0.00  0.00    +0.000 F 
ENDBRANCH   6   8
ENDBRANCH   1   2
BRANCH   1  16
ATOM     16  N   UNL     1      44.601   6.670  12.610  0.00  0.00    +0.000 N 
ATOM     17  H   UNL     1      43.914   6.647  11.857  0.00  0.00    +0.000 HD
BRANCH  16  21
ATOM     18  C   UNL     1      47.854   9.200  11.944  0.00  0.00    +0.000 A 
ATOM     19  C   UNL     1      48.080   7.833  11.909  0.00  0.00    +0.000 A 
ATOM     20  C   UNL     1      46.995   6.971  12.102  0.00  0.00    +0.000 A 
ATOM     21  C   UNL     1      45.707   7.475  12.306  0.00  0.00    +0.000 A 
ATOM     22  C   UNL     1      45.610   8.873  12.347  0.00  0.00    +0.000 A 
ATOM     23  N   UNL     1      46.633   9.752  12.163  0.00  0.00    +0.000 NA
BRANCH  18  25
ATOM     24  N   UNL     1      48.785  11.218  10.954  0.00  0.00    +0.000 N 
ATOM     25  C   UNL     1      49.009  10.140  11.769  0.00  0.00    +0.000 C 
ATOM     26  O   UNL     1      50.087   9.973  12.326  0.00  0.00    +0.000 OA
ATOM     27  H   UNL     1      49.506  11.914  10.846  0.00  0.00    +0.000 HD
ATOM     28  H   UNL     1      47.860  11.367  10.566  0.00  0.00    +0.000 HD
ENDBRANCH  18  25
ENDBRANCH  16  21
ENDBRANCH   1  16
TORSDOF 5
ENDMDL
MODEL 7
REMARK VINA RESULT:    -7.175      3.920      7.292
REMARK INTER + INTRA:         -10.146
REMARK INTER:                  -9.651
REMARK INTRA:                  -0.495
REMARK UNBOUND:                -0.874
REMARK  Name = 
REMARK  5 active torsions:
REMARK  status: ('A' for Active; 'I' for Inactive)
REMARK    1  A    between atoms: C_2  and  C_4
REMARK    2  A    between atoms: C_7  and  N_8
REMARK    3  A    between atoms: N_8  and  C_9
REMARK    4  A    between atoms: C_9  and  C_10
REMARK    5  A    between atoms: C_14  and  C_15
REMARK                            x       y       z     vdW  Elec       q    Type
REMARK                         _______ _______ _______ _____ _____    ______ ____
ROOT
ATOM      1  C   UNL     1      45.661   4.357  13.526  0.00  0.00    +0.000 C 
ENDROOT
BRANCH   1   2
ATOM      2  C   UNL     1      45.017   3.668  12.352  0.00  0.00    +0.000 A 
ATOM      3  C   UNL     1      43.729   3.158  12.440  0.00  0.00    +0.000 A 
ATOM      4  N   UNL     1      43.104   2.517  11.430  0.00  0.00    +0.000 NA
ATOM      5  C   UNL     1      43.789   2.396  10.267  0.00  0.00    +0.000 A 
ATOM      6  C   UNL     1      45.085   2.864  10.038  0.00  0.00    +0.000 A 
ATOM      7  C   UNL     1      45.688   3.512  11.130  0.00  0.00    +0.000 A 
BRANCH   6   8
ATOM      8  C   UNL     1      45.771   2.684   8.736  0.00  0.00    +0.000 A 
ATOM      9  C   UNL     1      46.176   1.407   8.291  0.00  0.00    +0.000 A 
ATOM     10  C   UNL     1      46.807   1.233   7.056  0.00  0.00    +0.000 A 
ATOM     11  C   UNL     1      47.058   2.332   6.248  0.00  0.00    +0.000 A 
ATOM     12  F   UNL     1      47.664   2.162   5.066  0.00  0.00    +0.000 F 
ATOM     13  C   UNL     1      46.689   3.603   6.651  0.00  0.00    +0.000 A 
ATOM     14  C   UNL     1      46.048   3.768   7.877  0.00  0.00    +0.000 A 
ATOM     15  F   UNL     1      45.684   5.015   8.212  0.00  0.00    +0.000 F 
ENDBRANCH   6   8
ENDBRANCH   1   2
BRANCH   1  16
ATOM     16  N   UNL     1      46.704   5.272  13.071  0.00  0.00    +0.000 N 
ATOM     17  H   UNL     1      47.514   5.272  13.689  0.00  0.00    +0.000 HD
BRANCH  16  21
ATOM     18  C   UNL     1      45.451   9.112  12.019  0.00  0.00    +0.000 A 
ATOM     19  C   UNL     1      46.797   8.923  12.289  0.00  0.00    +0.000 A 
ATOM     20  C   UNL     1      47.238   7.635  12.616  0.00  0.00    +0.000 A 
ATOM     21  C   UNL     1      46.346   6.560  12.650  0.00  0.00    +0.000 A 
ATOM     22  C   UNL     1      45.007   6.882  12.385  0.00  0.00    +0.000 A 
ATOM     23  N   UNL     1      44.531   8.114  12.061  0.00  0.00    +0.000 NA
BRANCH  18  25
ATOM     24  N   UNL     1      43.690  10.786  12.131  0.00  0.00    +0.000 N 
ATOM     25  C   UNL     1      44.954  10.489  11.696  0.00  0.00    +0.000 C 
ATOM     26  O   UNL     1      45.632  11.312  11.094  0.00  0.00    +0.000 OA
ATOM     27  H   UNL     1      43.326  11.717  11.994  0.00  0.00    +0.000 HD
ATOM     28  H   UNL     1      43.181  10.111  12.690  0.00  0.00    +0.000 HD
ENDBRANCH  18  25
ENDBRANCH  16  21
ENDBRANCH   1  16
TORSDOF 5
ENDMDL
MODEL 8
REMARK VINA RESULT:    -6.778      4.669      7.938
REMARK INTER + INTRA:          -9.633
REMARK INTER:                  -8.950
REMARK INTRA:                  -0.683
REMARK UNBOUND:                -0.874
REMARK  Name = 
REMARK  5 active torsions:
REMARK  status: ('A' for Active; 'I' for Inactive)
REMARK    1  A    between atoms: C_2  and  C_4
REMARK    2  A    between atoms: C_7  and  N_8
REMARK    3  A    between atoms: N_8  and  C_9
REMARK    4  A    between atoms: C_9  and  C_10
REMARK    5  A    between atoms: C_14  and  C_15
REMARK                            x       y       z     vdW  Elec       q    Type
REMARK                         _______ _______ _______ _____ _____    ______ ____
ROOT
ATOM      1  C   UNL     1      48.567   7.522  13.928  0.00  0.00    +0.000 C 
ENDROOT
BRANCH   1   2
ATOM      2  C   UNL     1      47.288   7.496  13.134  0.00  0.00    +0.000 A 
ATOM      3  C   UNL     1      46.420   8.579  13.140  0.00  0.00    +0.000 A 
ATOM      4  N   UNL     1      45.253   8.611  12.463  0.00  0.00    +0.000 NA
ATOM      5  C   UNL     1      44.945   7.515  11.726  0.00  0.00    +0.000 A 
ATOM      6  C   UNL     1      45.724   6.361  11.626  0.00  0.00    +0.000 A 
ATOM      7  C   UNL     1      46.922   6.383  12.363  0.00  0.00    +0.000 A 
BRANCH   6   8
ATOM      8  C   UNL     1      45.313   5.198  10.804  0.00  0.00    +0.000 A 
ATOM      9  C   UNL     1      45.598   5.139   9.423  0.00  0.00    +0.000 A 
ATOM     10  C   UNL     1      45.227   4.035   8.649  0.00  0.00    +0.000 A 
ATOM     11  C   UNL     1      44.551   2.976   9.237  0.00  0.00    +0.000 A 
ATOM     12  F   UNL     1      44.196   1.921   8.494  0.00  0.00    +0.000 F 
ATOM     13  C   UNL     1      44.241   2.998  10.586  0.00  0.00    +0.000 A 
ATOM     14  C   UNL     1      44.626   4.095  11.353  0.00  0.00    +0.000 A 
ATOM     15  F   UNL     1      44.328   4.059  12.662  0.00  0.00    +0.000 F 
ENDBRANCH   6   8
ENDBRANCH   1   2
BRANCH   1  16
ATOM     16  N   UNL     1      48.287   7.357  15.351  0.00  0.00    +0.000 N 
ATOM     17  H   UNL     1      48.164   8.250  15.828  0.00  0.00    +0.000 HD
BRANCH  16  21
ATOM     18  C   UNL     1      50.511   4.462  17.375  0.00  0.00    +0.000 A 
ATOM     19  C   UNL     1      51.134   5.664  17.078  0.00  0.00    +0.000 A 
ATOM     20  C   UNL     1      50.393   6.656  16.425  0.00  0.00    +0.000 A 
ATOM     21  C   UNL     1      49.050   6.448  16.097  0.00  0.00    +0.000 A 
ATOM     22  C   UNL     1      48.541   5.183  16.425  0.00  0.00    +0.000 A 
ATOM     23  N   UNL     1      49.219   4.189  17.060  0.00  0.00    +0.000 NA
BRANCH  18  25
ATOM     24  N   UNL     1      50.906   2.094  17.768  0.00  0.00    +0.000 N 
ATOM     25  C   UNL     1      51.297   3.376  18.047  0.00  0.00    +0.000 C 
ATOM     26  O   UNL     1      52.241   3.608  18.792  0.00  0.00    +0.000 OA
ATOM     27  H   UNL     1      51.435   1.322  18.145  0.00  0.00    +0.000 HD
ATOM     28  H   UNL     1      50.169   1.932  17.091  0.00  0.00    +0.000 HD
ENDBRANCH  18  25
ENDBRANCH  16  21
ENDBRANCH   1  16
TORSDOF 5
ENDMDL
MODEL 9
REMARK VINA RESULT:    -6.428      5.841      7.855
REMARK INTER + INTRA:          -9.181
REMARK INTER:                  -8.352
REMARK INTRA:                  -0.829
REMARK UNBOUND:                -0.874
REMARK  Name = 
REMARK  5 active torsions:
REMARK  status: ('A' for Active; 'I' for Inactive)
REMARK    1  A    between atoms: C_2  and  C_4
REMARK    2  A    between atoms: C_7  and  N_8
REMARK    3  A    between atoms: N_8  and  C_9
REMARK    4  A    between atoms: C_9  and  C_10
REMARK    5  A    between atoms: C_14  and  C_15
REMARK                            x       y       z     vdW  Elec       q    Type
REMARK                         _______ _______ _______ _____ _____    ______ ____
ROOT
ATOM      1  C   UNL     1      48.736   7.481  15.594  0.00  0.00    +0.000 C 
ENDROOT
BRANCH   1   2
ATOM      2  C   UNL     1      49.020   6.638  16.808  0.00  0.00    +0.000 A 
ATOM      3  C   UNL     1      48.452   6.940  18.038  0.00  0.00    +0.000 A 
ATOM      4  N   UNL     1      48.679   6.234  19.165  0.00  0.00    +0.000 NA
ATOM      5  C   UNL     1      49.500   5.159  19.058  0.00  0.00    +0.000 A 
ATOM      6  C   UNL     1      50.134   4.739  17.887  0.00  0.00    +0.000 A 
ATOM      7  C   UNL     1      49.868   5.521  16.749  0.00  0.00    +0.000 A 
BRANCH   6   8
ATOM      8  C   UNL     1      51.026   3.555  17.852  0.00  0.00    +0.000 A 
ATOM      9  C   UNL     1      52.348   3.619  18.342  0.00  0.00    +0.000 A 
ATOM     10  C   UNL     1      53.185   2.499  18.327  0.00  0.00    +0.000 A 
ATOM     11  C   UNL     1      52.722   1.298  17.811  0.00  0.00    +0.000 A 
ATOM     12  F   UNL     1      53.526   0.228  17.798  0.00  0.00    +0.000 F 
ATOM     13  C   UNL     1      51.436   1.195  17.310  0.00  0.00    +0.000 A 
ATOM     14  C   UNL     1      50.603   2.311  17.340  0.00  0.00    +0.000 A 
ATOM     15  F   UNL     1      49.356   2.155  16.869  0.00  0.00    +0.000 F 
ENDBRANCH   6   8
ENDBRANCH   1   2
BRANCH   1  16
ATOM     16  N   UNL     1      48.733   6.656  14.389  0.00  0.00    +0.000 N 
ATOM     17  H   UNL     1      49.299   7.058  13.643  0.00  0.00    +0.000 HD
BRANCH  16  21
ATOM     18  C   UNL     1      45.051   5.044  13.264  0.00  0.00    +0.000 A 
ATOM     19  C   UNL     1      45.345   6.334  12.850  0.00  0.00    +0.000 A 
ATOM     20  C   UNL     1      46.588   6.879  13.195  0.00  0.00    +0.000 A 
ATOM     21  C   UNL     1      47.519   6.133  13.923  0.00  0.00    +0.000 A 
ATOM     22  C   UNL     1      47.095   4.853  14.307  0.00  0.00    +0.000 A 
ATOM     23  N   UNL     1      45.902   4.279  13.994  0.00  0.00    +0.000 NA
BRANCH  18  25
ATOM     24  N   UNL     1      43.688   3.097  12.746  0.00  0.00    +0.000 N 
ATOM     25  C   UNL     1      43.714   4.454  12.930  0.00  0.00    +0.000 C 
ATOM     26  O   UNL     1      42.697   5.131  12.837  0.00  0.00    +0.000 OA
ATOM     27  H   UNL     1      42.805   2.638  12.577  0.00  0.00    +0.000 HD
ATOM     28  H   UNL     1      44.530   2.555  12.902  0.00  0.00    +0.000 HD
ENDBRANCH  18  25
ENDBRANCH  16  21
ENDBRANCH   1  16
TORSDOF 5
ENDMDL
