MODEL 1
REMARK VINA RESULT:    -6.097      0.000      0.000
REMARK INTER + INTRA:          -7.596
REMARK INTER:                  -7.522
REMARK INTRA:                  -0.074
REMARK UNBOUND:                -0.074
REMARK  Name = 
REMARK  5 active torsions:
REMARK  status: ('A' for Active; 'I' for Inactive)
REMARK    1  A    between atoms: N_1  and  C_2
REMARK    2  A    between atoms: C_2  and  C_3
REMARK    3  A    between atoms: C_3  and  N_4
REMARK    4  A    between atoms: C_9  and  C_10
REMARK    5  A    between atoms: C_10  and  O_11
REMARK                            x       y       z     vdW  Elec       q    Type
REMARK                         _______ _______ _______ _____ _____    ______ ____
ROOT
ATOM      1  N   UNL     1      44.151   4.078  10.494  0.00  0.00    +0.000 N 
ATOM      2  C   UNL     1      44.779   5.398  10.605  0.00  0.00    +0.000 C 
ATOM      3  C   UNL     1      45.594   5.613   9.314  0.00  0.00    +0.000 C 
ATOM      4  C   UNL     1      45.759   4.203   8.847  0.00  0.00    +0.000 A 
ATOM      5  C   UNL     1      46.568   3.732   7.819  0.00  0.00    +0.000 A 
ATOM      6  C   UNL     1      46.534   2.365   7.513  0.00  0.00    +0.000 A 
ATOM      7  C   UNL     1      45.690   1.517   8.253  0.00  0.00    +0.000 A 
ATOM      8  C   UNL     1      44.868   2.017   9.275  0.00  0.00    +0.000 A 
ATOM      9  C   UNL     1      44.902   3.368   9.569  0.00  0.00    +0.000 A 
ENDROOT
BRANCH   1  10
ATOM     10  C   UNL     1      43.374   3.517  11.588  0.00  0.00    +0.000 C 
BRANCH  10  11
ATOM     11  C   UNL     1      43.674   4.174  12.953  0.00  0.00    +0.000 C 
BRANCH  11  12
ATOM     12  N   UNL     1      42.672   5.183  13.320  0.00  0.00    +0.000 NA
ATOM     13  H   UNL     1      42.960   6.085  12.941  0.00  0.00    +0.000 HD
ATOM     14  H   UNL     1      42.659   5.293  14.331  0.00  0.00    +0.000 HD
ENDBRANCH  11  12
ENDBRANCH  10  11
ENDBRANCH   1  10
BRANCH   6  15
ATOM     15  C   UNL     1      47.397   1.818   6.403  0.00  0.00    +0.000 C 
BRANCH  15  16
ATOM     16  O   UNL     1      48.644   2.499   6.352  0.00  0.00    +0.000 OA
ATOM     17  H   UNL     1      49.334   1.833   6.516  0.00  0.00    +0.000 HD
ENDBRANCH  15  16
ENDBRANCH   6  15
TORSDOF 5
ENDMDL
MODEL 2
REMARK VINA RESULT:    -6.017      3.285      5.865
REMARK INTER + INTRA:          -7.499
REMARK INTER:                  -7.379
REMARK INTRA:                  -0.120
REMARK UNBOUND:                -0.074
REMARK  Name = 
REMARK  5 active torsions:
REMARK  status: ('A' for Active; 'I' for Inactive)
REMARK    1  A    between atoms: N_1  and  C_2
REMARK    2  A    between atoms: C_2  and  C_3
REMARK    3  A    between atoms: C_3  and  N_4
REMARK    4  A    between atoms: C_9  and  C_10
REMARK    5  A    between atoms: C_10  and  O_11
REMARK                            x       y       z     vdW  Elec       q    Type
REMARK                         _______ _______ _______ _____ _____    ______ ____
ROOT
ATOM      1  N   UNL     1      45.976   3.032   7.928  0.00  0.00    +0.000 N 
ATOM      2  C   UNL     1      45.721   1.616   8.209  0.00  0.00    +0.000 C 
ATOM      3  C   UNL     1      44.508   1.564   9.161  0.00  0.00    +0.000 C 
ATOM      4  C   UNL     1      44.529   2.949   9.721  0.00  0.00    +0.000 A 
ATOM      5  C   UNL     1      43.782   3.455  10.778  0.00  0.00    +0.000 A 
ATOM      6  C   UNL     1      43.923   4.809  11.111  0.00  0.00    +0.000 A 
ATOM      7  C   UNL     1      44.813   5.608  10.369  0.00  0.00    +0.000 A 
ATOM      8  C   UNL     1      45.544   5.081   9.293  0.00  0.00    +0.000 A 
ATOM      9  C   UNL     1      45.397   3.745   8.968  0.00  0.00    +0.000 A 
ENDROOT
BRANCH   1  10
ATOM     10  C   UNL     1      47.116   3.449   7.126  0.00  0.00    +0.000 C 
BRANCH  10  11
ATOM     11  C   UNL     1      47.257   2.661   5.806  0.00  0.00    +0.000 C 
BRANCH  11  12
ATOM     12  N   UNL     1      48.465   1.826   5.780  0.00  0.00    +0.000 NA
ATOM     13  H   UNL     1      48.219   0.883   6.080  0.00  0.00    +0.000 HD
ATOM     14  H   UNL     1      49.131   2.175   6.466  0.00  0.00    +0.000 HD
ENDBRANCH  11  12
ENDBRANCH  10  11
ENDBRANCH   1  10
BRANCH   6  15
ATOM     15  C   UNL     1      43.127   5.394  12.251  0.00  0.00    +0.000 C 
BRANCH  15  16
ATOM     16  O   UNL     1      42.034   6.160  11.760  0.00  0.00    +0.000 OA
ATOM     17  H   UNL     1      42.191   7.080  12.034  0.00  0.00    +0.000 HD
ENDBRANCH  15  16
ENDBRANCH   6  15
TORSDOF 5
ENDMDL
MODEL 3
REMARK VINA RESULT:    -6.001      0.858      2.055
REMARK INTER + INTRA:          -7.478
REMARK INTER:                  -7.424
REMARK INTRA:                  -0.054
REMARK UNBOUND:                -0.074
REMARK  Name = 
REMARK  5 active torsions:
REMARK  status: ('A' for Active; 'I' for Inactive)
REMARK    1  A    between atoms: N_1  and  C_2
REMARK    2  A    between atoms: C_2  and  C_3
REMARK    3  A    between atoms: C_3  and  N_4
REMARK    4  A    between atoms: C_9  and  C_10
REMARK    5  A    between atoms: C_10  and  O_11
REMARK                            x       y       z     vdW  Elec       q    Type
REMARK                         _______ _______ _______ _____ _____    ______ ____
ROOT
ATOM      1  N   UNL     1      44.225   4.267  10.660  0.00  0.00    +0.000 N 
ATOM      2  C   UNL     1      43.471   3.066  11.033  0.00  0.00    +0.000 C 
ATOM      3  C   UNL     1      44.220   1.864  10.424  0.00  0.00    +0.000 C 
ATOM      4  C   UNL     1      45.016   2.538   9.355  0.00  0.00    +0.000 A 
ATOM      5  C   UNL     1      45.758   1.946   8.339  0.00  0.00    +0.000 A 
ATOM      6  C   UNL     1      46.475   2.774   7.464  0.00  0.00    +0.000 A 
ATOM      7  C   UNL     1      46.419   4.169   7.639  0.00  0.00    +0.000 A 
ATOM      8  C   UNL     1      45.678   4.744   8.683  0.00  0.00    +0.000 A 
ATOM      9  C   UNL     1      44.976   3.923   9.546  0.00  0.00    +0.000 A 
ENDROOT
BRANCH   1  10
ATOM     10  C   UNL     1      43.744   5.597  10.999  0.00  0.00    +0.000 C 
BRANCH  10  11
ATOM     11  C   UNL     1      42.428   5.585  11.805  0.00  0.00    +0.000 C 
BRANCH  11  12
ATOM     12  N   UNL     1      42.660   5.542  13.255  0.00  0.00    +0.000 NA
ATOM     13  H   UNL     1      41.769   5.666  13.734  0.00  0.00    +0.000 HD
ATOM     14  H   UNL     1      43.240   6.333  13.527  0.00  0.00    +0.000 HD
ENDBRANCH  11  12
ENDBRANCH  10  11
ENDBRANCH   1  10
BRANCH   6  15
ATOM     15  C   UNL     1      47.293   2.168   6.351  0.00  0.00    +0.000 C 
BRANCH  15  16
ATOM     16  O   UNL     1      48.653   2.568   6.451  0.00  0.00    +0.000 OA
ATOM     17  H   UNL     1      49.168   1.768   6.654  0.00  0.00    +0.000 HD
ENDBRANCH  15  16
ENDBRANCH   6  15
TORSDOF 5
ENDMDL
MODEL 4
REMARK VINA RESULT:    -5.398      3.345      5.472
REMARK INTER + INTRA:          -6.735
REMARK INTER:                  -6.636
REMARK INTRA:                  -0.098
REMARK UNBOUND:                -0.074
REMARK  Name = 
REMARK  5 active torsions:
REMARK  status: ('A' for Active; 'I' for Inactive)
REMARK    1  A    between atoms: N_1  and  C_2
REMARK    2  A    between atoms: C_2  and  C_3
REMARK    3  A    between atoms: C_3  and  N_4
REMARK    4  A    between atoms: C_9  and  C_10
REMARK    5  A    between atoms: C_10  and  O_11
REMARK                            x       y       z     vdW  Elec       q    Type
REMARK                         _______ _______ _______ _____ _____    ______ ____
ROOT
ATOM      1  N   UNL     1      45.711   2.633   8.725  0.00  0.00    +0.000 N 
ATOM      2  C   UNL     1      46.094   3.658   7.749  0.00  0.00    +0.000 C 
ATOM      3  C   UNL     1      46.056   5.011   8.489  0.00  0.00    +0.000 C 
ATOM      4  C   UNL     1      45.171   4.676   9.645  0.00  0.00    +0.000 A 
ATOM      5  C   UNL     1      44.614   5.546  10.575  0.00  0.00    +0.000 A 
ATOM      6  C   UNL     1      43.845   5.010  11.617  0.00  0.00    +0.000 A 
ATOM      7  C   UNL     1      43.660   3.617  11.687  0.00  0.00    +0.000 A 
ATOM      8  C   UNL     1      44.247   2.755  10.747  0.00  0.00    +0.000 A 
ATOM      9  C   UNL     1      45.008   3.290   9.724  0.00  0.00    +0.000 A 
ENDROOT
BRANCH   1  10
ATOM     10  C   UNL     1      45.556   1.240   8.335  0.00  0.00    +0.000 C 
BRANCH  10  11
ATOM     11  C   UNL     1      46.808   0.655   7.645  0.00  0.00    +0.000 C 
BRANCH  11  12
ATOM     12  N   UNL     1      46.812  -0.814   7.648  0.00  0.00    +0.000 NA
ATOM     13  H   UNL     1      47.204  -1.139   8.532  0.00  0.00    +0.000 HD
ATOM     14  H   UNL     1      47.439  -1.151   6.921  0.00  0.00    +0.000 HD
ENDBRANCH  11  12
ENDBRANCH  10  11
ENDBRANCH   1  10
BRANCH   6  15
ATOM     15  C   UNL     1      43.227   5.923  12.647  0.00  0.00    +0.000 C 
BRANCH  15  16
ATOM     16  O   UNL     1      42.530   5.171  13.632  0.00  0.00    +0.000 OA
ATOM     17  H   UNL     1      42.244   5.801  14.316  0.00  0.00    +0.000 HD
ENDBRANCH  15  16
ENDBRANCH   6  15
TORSDOF 5
ENDMDL
MODEL 5
REMARK VINA RESULT:    -5.308      3.666      4.683
REMARK INTER + INTRA:          -6.623
REMARK INTER:                  -6.521
REMARK INTRA:                  -0.102
REMARK UNBOUND:                -0.074
REMARK  Name = 
REMARK  5 active torsions:
REMARK  status: ('A' for Active; 'I' for Inactive)
REMARK    1  A    between atoms: N_1  and  C_2
REMARK    2  A    between atoms: C_2  and  C_3
REMARK    3  A    between atoms: C_3  and  N_4
REMARK    4  A    between atoms: C_9  and  C_10
REMARK    5  A    between atoms: C_10  and  O_11
REMARK                            x       y       z     vdW  Elec       q    Type
REMARK                         _______ _______ _______ _____ _____    ______ ____
ROOT
ATOM      1  N   UNL     1      47.014   4.852  14.459  0.00  0.00    +0.000 N 
ATOM      2  C   UNL     1      47.730   6.113  14.239  0.00  0.00    +0.000 C 
ATOM      3  C   UNL     1      47.023   6.826  13.068  0.00  0.00    +0.000 C 
ATOM      4  C   UNL     1      46.319   5.678  12.422  0.00  0.00    +0.000 A 
ATOM      5  C   UNL     1      45.656   5.660  11.200  0.00  0.00    +0.000 A 
ATOM      6  C   UNL     1      45.016   4.478  10.803  0.00  0.00    +0.000 A 
ATOM      7  C   UNL     1      45.067   3.353  11.647  0.00  0.00    +0.000 A 
ATOM      8  C   UNL     1      45.727   3.399  12.885  0.00  0.00    +0.000 A 
ATOM      9  C   UNL     1      46.352   4.570  13.273  0.00  0.00    +0.000 A 
ENDROOT
BRANCH   1  10
ATOM     10  C   UNL     1      47.475   3.884  15.442  0.00  0.00    +0.000 C 
BRANCH  10  11
ATOM     11  C   UNL     1      46.998   4.193  16.877  0.00  0.00    +0.000 C 
BRANCH  11  12
ATOM     12  N   UNL     1      46.616   2.981  17.613  0.00  0.00    +0.000 NA
ATOM     13  H   UNL     1      46.983   2.168  17.119  0.00  0.00    +0.000 HD
ATOM     14  H   UNL     1      45.602   2.885  17.600  0.00  0.00    +0.000 HD
ENDBRANCH  11  12
ENDBRANCH  10  11
ENDBRANCH   1  10
BRANCH   6  15
ATOM     15  C   UNL     1      44.285   4.421   9.484  0.00  0.00    +0.000 C 
BRANCH  15  16
ATOM     16  O   UNL     1      45.121   4.868   8.425  0.00  0.00    +0.000 OA
ATOM     17  H   UNL     1      44.667   4.645   7.595  0.00  0.00    +0.000 HD
ENDBRANCH  15  16
ENDBRANCH   6  15
TORSDOF 5
ENDMDL
MODEL 6
REMARK VINA RESULT:    -5.110      3.348      5.514
REMARK INTER + INTRA:          -6.379
REMARK INTER:                  -6.178
REMARK INTRA:                  -0.200
REMARK UNBOUND:                -0.074
REMARK  Name = 
REMARK  5 active torsions:
REMARK  status: ('A' for Active; 'I' for Inactive)
REMARK    1  A    between atoms: N_1  and  C_2
REMARK    2  A    between atoms: C_2  and  C_3
REMARK    3  A    between atoms: C_3  and  N_4
REMARK    4  A    between atoms: C_9  and  C_10
REMARK    5  A    between atoms: C_10  and  O_11
REMARK                            x       y       z     vdW  Elec       q    Type
REMARK                         _______ _______ _______ _____ _____    ______ ____
ROOT
ATOM      1  N   UNL     1      44.256   4.267  10.308  0.00  0.00    +0.000 N 
ATOM      2  C   UNL     1      43.862   3.052  11.028  0.00  0.00    +0.000 C 
ATOM      3  C   UNL     1      44.215   3.281  12.512  0.00  0.00    +0.000 C 
ATOM      4  C   UNL     1      45.228   4.373  12.396  0.00  0.00    +0.000 A 
ATOM      5  C   UNL     1      46.051   4.884  13.393  0.00  0.00    +0.000 A 
ATOM      6  C   UNL     1      46.902   5.952  13.076  0.00  0.00    +0.000 A 
ATOM      7  C   UNL     1      46.897   6.468  11.767  0.00  0.00    +0.000 A 
ATOM      8  C   UNL     1      46.044   5.948  10.781  0.00  0.00    +0.000 A 
ATOM      9  C   UNL     1      45.204   4.898  11.101  0.00  0.00    +0.000 A 
ENDROOT
BRANCH   1  10
ATOM     10  C   UNL     1      44.144   4.357   8.861  0.00  0.00    +0.000 C 
BRANCH  10  11
ATOM     11  C   UNL     1      45.178   3.489   8.111  0.00  0.00    +0.000 C 
BRANCH  11  12
ATOM     12  N   UNL     1      46.273   4.287   7.547  0.00  0.00    +0.000 NA
ATOM     13  H   UNL     1      45.881   5.120   7.109  0.00  0.00    +0.000 HD
ATOM     14  H   UNL     1      46.724   3.762   6.800  0.00  0.00    +0.000 HD
ENDBRANCH  11  12
ENDBRANCH  10  11
ENDBRANCH   1  10
BRANCH   6  15
ATOM     15  C   UNL     1      47.809   6.535  14.131  0.00  0.00    +0.000 C 
BRANCH  15  16
ATOM     16  O   UNL     1      48.182   5.542  15.078  0.00  0.00    +0.000 OA
ATOM     17  H   UNL     1      47.577   5.633  15.834  0.00  0.00    +0.000 HD
ENDBRANCH  15  16
ENDBRANCH   6  15
TORSDOF 5
ENDMDL
MODEL 7
REMARK VINA RESULT:    -4.988      2.525      3.787
REMARK INTER + INTRA:          -6.229
REMARK INTER:                  -6.075
REMARK INTRA:                  -0.153
REMARK UNBOUND:                -0.074
REMARK  Name = 
REMARK  5 active torsions:
REMARK  status: ('A' for Active; 'I' for Inactive)
REMARK    1  A    between atoms: N_1  and  C_2
REMARK    2  A    between atoms: C_2  and  C_3
REMARK    3  A    between atoms: C_3  and  N_4
REMARK    4  A    between atoms: C_9  and  C_10
REMARK    5  A    between atoms: C_10  and  O_11
REMARK                            x       y       z     vdW  Elec       q    Type
REMARK                         _______ _______ _______ _____ _____    ______ ____
ROOT
ATOM      1  N   UNL     1      45.887   6.434  12.108  0.00  0.00    +0.000 N 
ATOM      2  C   UNL     1      45.299   5.955  13.363  0.00  0.00    +0.000 C 
ATOM      3  C   UNL     1      45.105   4.433  13.210  0.00  0.00    +0.000 C 
ATOM      4  C   UNL     1      45.121   4.293  11.723  0.00  0.00    +0.000 A 
ATOM      5  C   UNL     1      44.808   3.170  10.966  0.00  0.00    +0.000 A 
ATOM      6  C   UNL     1      44.937   3.245   9.573  0.00  0.00    +0.000 A 
ATOM      7  C   UNL     1      45.375   4.447   8.987  0.00  0.00    +0.000 A 
ATOM      8  C   UNL     1      45.703   5.563   9.773  0.00  0.00    +0.000 A 
ATOM      9  C   UNL     1      45.578   5.482  11.147  0.00  0.00    +0.000 A 
ENDROOT
BRANCH   1  10
ATOM     10  C   UNL     1      46.121   7.851  11.876  0.00  0.00    +0.000 C 
BRANCH  10  11
ATOM     11  C   UNL     1      44.821   8.666  11.704  0.00  0.00    +0.000 C 
BRANCH  11  12
ATOM     12  N   UNL     1      44.708   9.752  12.685  0.00  0.00    +0.000 NA
ATOM     13  H   UNL     1      44.045   9.474  13.408  0.00  0.00    +0.000 HD
ATOM     14  H   UNL     1      44.307  10.573  12.236  0.00  0.00    +0.000 HD
ENDBRANCH  11  12
ENDBRANCH  10  11
ENDBRANCH   1  10
BRANCH   6  15
ATOM     15  C   UNL     1      44.609   2.046   8.718  0.00  0.00    +0.000 C 
BRANCH  15  16
ATOM     16  O   UNL     1      45.653   1.083   8.779  0.00  0.00    +0.000 OA
ATOM     17  H   UNL     1      46.109   1.216   9.628  0.00  0.00    +0.000 HD
ENDBRANCH  15  16
ENDBRANCH   6  15
TORSDOF 5
ENDMDL
MODEL 8
REMARK VINA RESULT:    -4.857      4.141      5.428
REMARK INTER + INTRA:          -6.067
REMARK INTER:                  -5.948
REMARK INTRA:                  -0.119
REMARK UNBOUND:                -0.074
REMARK  Name = 
REMARK  5 active torsions:
REMARK  status: ('A' for Active; 'I' for Inactive)
REMARK    1  A    between atoms: N_1  and  C_2
REMARK    2  A    between atoms: C_2  and  C_3
REMARK    3  A    between atoms: C_3  and  N_4
REMARK    4  A    between atoms: C_9  and  C_10
REMARK    5  A    between atoms: C_10  and  O_11
REMARK                            x       y       z     vdW  Elec       q    Type
REMARK                         _______ _______ _______ _____ _____    ______ ____
ROOT
ATOM      1  N   UNL     1      47.391   6.340  13.396  0.00  0.00    +0.000 N 
ATOM      2  C   UNL     1      47.514   5.617  14.666  0.00  0.00    +0.000 C 
ATOM      3  C   UNL     1      47.054   4.169  14.399  0.00  0.00    +0.000 C 
ATOM      4  C   UNL     1      46.244   4.355  13.157  0.00  0.00    +0.000 A 
ATOM      5  C   UNL     1      45.415   3.430  12.531  0.00  0.00    +0.000 A 
ATOM      6  C   UNL     1      44.780   3.801  11.338  0.00  0.00    +0.000 A 
ATOM      7  C   UNL     1      44.998   5.089  10.816  0.00  0.00    +0.000 A 
ATOM      8  C   UNL     1      45.854   6.000  11.455  0.00  0.00    +0.000 A 
ATOM      9  C   UNL     1      46.481   5.627  12.630  0.00  0.00    +0.000 A 
ENDROOT
BRANCH   1  10
ATOM     10  C   UNL     1      47.662   7.766  13.310  0.00  0.00    +0.000 C 
BRANCH  10  11
ATOM     11  C   UNL     1      48.374   8.331  14.558  0.00  0.00    +0.000 C 
BRANCH  11  12
ATOM     12  N   UNL     1      47.482   9.148  15.389  0.00  0.00    +0.000 NA
ATOM     13  H   UNL     1      48.037   9.857  15.869  0.00  0.00    +0.000 HD
ATOM     14  H   UNL     1      47.075   8.567  16.120  0.00  0.00    +0.000 HD
ENDBRANCH  11  12
ENDBRANCH  10  11
ENDBRANCH   1  10
BRANCH   6  15
ATOM     15  C   UNL     1      43.875   2.824  10.629  0.00  0.00    +0.000 C 
BRANCH  15  16
ATOM     16  O   UNL     1      43.115   2.071  11.566  0.00  0.00    +0.000 OA
ATOM     17  H   UNL     1      42.186   2.335  11.450  0.00  0.00    +0.000 HD
ENDBRANCH  15  16
ENDBRANCH   6  15
TORSDOF 5
ENDMDL
MODEL 9
REMARK VINA RESULT:    -4.740      4.187      5.642
REMARK INTER + INTRA:          -5.923
REMARK INTER:                  -5.779
REMARK INTRA:                  -0.143
REMARK UNBOUND:                -0.074
REMARK  Name = 
REMARK  5 active torsions:
REMARK  status: ('A' for Active; 'I' for Inactive)
REMARK    1  A    between atoms: N_1  and  C_2
REMARK    2  A    between atoms: C_2  and  C_3
REMARK    3  A    between atoms: C_3  and  N_4
REMARK    4  A    between atoms: C_9  and  C_10
REMARK    5  A    between atoms: C_10  and  O_11
REMARK                            x       y       z     vdW  Elec       q    Type
REMARK                         _______ _______ _______ _____ _____    ______ ____
ROOT
ATOM      1  N   UNL     1      45.018   4.936  12.188  0.00  0.00    +0.000 N 
ATOM      2  C   UNL     1      45.555   3.664  12.680  0.00  0.00    +0.000 C 
ATOM      3  C   UNL     1      46.739   4.010  13.607  0.00  0.00    +0.000 C 
ATOM      4  C   UNL     1      47.067   5.391  13.141  0.00  0.00    +0.000 A 
ATOM      5  C   UNL     1      48.171   6.167  13.477  0.00  0.00    +0.000 A 
ATOM      6  C   UNL     1      48.260   7.466  12.959  0.00  0.00    +0.000 A 
ATOM      7  C   UNL     1      47.236   7.940  12.118  0.00  0.00    +0.000 A 
ATOM      8  C   UNL     1      46.121   7.146  11.807  0.00  0.00    +0.000 A 
ATOM      9  C   UNL     1      46.037   5.867  12.324  0.00  0.00    +0.000 A 
ENDROOT
BRANCH   1  10
ATOM     10  C   UNL     1      43.940   4.974  11.213  0.00  0.00    +0.000 C 
BRANCH  10  11
ATOM     11  C   UNL     1      42.553   5.230  11.842  0.00  0.00    +0.000 C 
BRANCH  11  12
ATOM     12  N   UNL     1      42.632   5.479  13.287  0.00  0.00    +0.000 NA
ATOM     13  H   UNL     1      42.789   4.592  13.765  0.00  0.00    +0.000 HD
ATOM     14  H   UNL     1      41.734   5.824  13.619  0.00  0.00    +0.000 HD
ENDBRANCH  11  12
ENDBRANCH  10  11
ENDBRANCH   1  10
BRANCH   6  15
ATOM     15  C   UNL     1      49.441   8.338  13.303  0.00  0.00    +0.000 C 
BRANCH  15  16
ATOM     16  O   UNL     1      50.584   7.544  13.597  0.00  0.00    +0.000 OA
ATOM     17  H   UNL     1      50.547   6.771  13.008  0.00  0.00    +0.000 HD
ENDBRANCH  15  16
ENDBRANCH   6  15
TORSDOF 5
ENDMDL
