MODEL 1
REMARK VINA RESULT:    -9.300      0.000      0.000
REMARK INTER + INTRA:         -13.441
REMARK INTER:                 -12.562
REMARK INTRA:                  -0.879
REMARK UNBOUND:                -0.879
REMARK  Name = 
REMARK  6 active torsions:
REMARK  status: ('A' for Active; 'I' for Inactive)
REMARK    1  A    between atoms: C_2  and  C_4
REMARK    2  A    between atoms: C_7  and  N_8
REMARK    3  A    between atoms: N_8  and  C_9
REMARK    4  A    between atoms: C_9  and  C_10
REMARK    5  A    between atoms: C_10  and  C_13
REMARK    6  A    between atoms: C_17  and  C_18
REMARK                            x       y       z     vdW  Elec       q    Type
REMARK                         _______ _______ _______ _____ _____    ______ ____
ROOT
ATOM      1  C   UNL     1      43.753   5.675  12.024  0.00  0.00    +0.000 C 
ATOM      2  F   UNL     1      43.210   6.778  11.416  0.00  0.00    +0.000 F 
ATOM      3  F   UNL     1      42.991   5.480  13.143  0.00  0.00    +0.000 F 
ENDROOT
BRANCH   1   4
ATOM      4  C   UNL     1      45.213   5.887  12.370  0.00  0.00    +0.000 A 
ATOM      5  C   UNL     1      46.050   6.614  11.516  0.00  0.00    +0.000 A 
ATOM      6  C   UNL     1      47.387   6.812  11.848  0.00  0.00    +0.000 A 
ATOM      7  C   UNL     1      47.897   6.295  13.042  0.00  0.00    +0.000 A 
ATOM      8  C   UNL     1      47.085   5.578  13.938  0.00  0.00    +0.000 A 
ATOM      9  C   UNL     1      45.742   5.373  13.568  0.00  0.00    +0.000 A 
BRANCH   8  10
ATOM     10  C   UNL     1      47.602   5.097  15.240  0.00  0.00    +0.000 A 
ATOM     11  C   UNL     1      48.576   5.818  15.947  0.00  0.00    +0.000 A 
ATOM     12  C   UNL     1      48.999   5.363  17.188  0.00  0.00    +0.000 A 
ATOM     13  N   UNL     1      48.525   4.250  17.780  0.00  0.00    +0.000 NA
ATOM     14  C   UNL     1      47.596   3.563  17.091  0.00  0.00    +0.000 A 
ATOM     15  F   UNL     1      47.095   2.459  17.664  0.00  0.00    +0.000 F 
ATOM     16  C   UNL     1      47.117   3.930  15.844  0.00  0.00    +0.000 A 
ENDBRANCH   8  10
ENDBRANCH   1   4
BRANCH   1  17
ATOM     17  C   UNL     1      43.560   4.468  11.067  0.00  0.00    +0.000 C 
BRANCH  17  18
ATOM     18  N   UNL     1      43.813   4.845   9.660  0.00  0.00    +0.000 N 
ATOM     19  H   UNL     1      44.074   5.824   9.565  0.00  0.00    +0.000 HD
BRANCH  18  23
ATOM     20  C   UNL     1      46.424   2.303   7.772  0.00  0.00    +0.000 A 
ATOM     21  C   UNL     1      46.408   3.653   7.466  0.00  0.00    +0.000 A 
ATOM     22  N   UNL     1      45.545   4.531   8.050  0.00  0.00    +0.000 NA
ATOM     23  C   UNL     1      44.684   4.013   8.953  0.00  0.00    +0.000 A 
ATOM     24  C   UNL     1      44.714   2.640   9.245  0.00  0.00    +0.000 A 
ATOM     25  N   UNL     1      45.564   1.751   8.668  0.00  0.00    +0.000 NA
BRANCH  20  27
ATOM     26  N   UNL     1      48.496   2.026   6.554  0.00  0.00    +0.000 N 
ATOM     27  C   UNL     1      47.421   1.405   7.129  0.00  0.00    +0.000 C 
ATOM     28  O   UNL     1      47.292   0.186   7.112  0.00  0.00    +0.000 OA
ATOM     29  H   UNL     1      49.204   1.474   6.090  0.00  0.00    +0.000 HD
ATOM     30  H   UNL     1      48.575   3.036   6.586  0.00  0.00    +0.000 HD
ENDBRANCH  20  27
ENDBRANCH  18  23
ENDBRANCH  17  18
ENDBRANCH   1  17
TORSDOF 6
ENDMDL
MODEL 2
REMARK VINA RESULT:    -9.101      2.546      3.930
REMARK INTER + INTRA:         -13.173
REMARK INTER:                 -12.160
REMARK INTRA:                  -1.013
REMARK UNBOUND:                -0.879
REMARK  Name = 
REMARK  6 active torsions:
REMARK  status: ('A' for Active; 'I' for Inactive)
REMARK    1  A    between atoms: C_2  and  C_4
REMARK    2  A    between atoms: C_7  and  N_8
REMARK    3  A    between atoms: N_8  and  C_9
REMARK    4  A    between atoms: C_9  and  C_10
REMARK    5  A    between atoms: C_10  and  C_13
REMARK    6  A    between atoms: C_17  and  C_18
REMARK                            x       y       z     vdW  Elec       q    Type
REMARK                         _______ _______ _______ _____ _____    ______ ____
ROOT
ATOM      1  C   UNL     1      43.448   5.472  12.171  0.00  0.00    +0.000 C 
ATOM      2  F   UNL     1      42.945   6.627  11.632  0.00  0.00    +0.000 F 
ATOM      3  F   UNL     1      42.613   5.178  13.214  0.00  0.00    +0.000 F 
ENDROOT
BRANCH   1   4
ATOM      4  C   UNL     1      44.882   5.643  12.631  0.00  0.00    +0.000 A 
ATOM      5  C   UNL     1      45.500   4.664  13.417  0.00  0.00    +0.000 A 
ATOM      6  C   UNL     1      46.821   4.826  13.826  0.00  0.00    +0.000 A 
ATOM      7  C   UNL     1      47.539   5.961  13.442  0.00  0.00    +0.000 A 
ATOM      8  C   UNL     1      46.962   6.958  12.635  0.00  0.00    +0.000 A 
ATOM      9  C   UNL     1      45.618   6.780  12.254  0.00  0.00    +0.000 A 
BRANCH   8  10
ATOM     10  C   UNL     1      47.744   8.123  12.162  0.00  0.00    +0.000 A 
ATOM     11  C   UNL     1      47.181   9.407  12.120  0.00  0.00    +0.000 A 
ATOM     12  C   UNL     1      47.960  10.485  11.720  0.00  0.00    +0.000 A 
ATOM     13  N   UNL     1      49.254  10.384  11.364  0.00  0.00    +0.000 NA
ATOM     14  C   UNL     1      49.783   9.147  11.403  0.00  0.00    +0.000 A 
ATOM     15  F   UNL     1      51.075   9.018  11.068  0.00  0.00    +0.000 F 
ATOM     16  C   UNL     1      49.086   8.009  11.778  0.00  0.00    +0.000 A 
ENDBRANCH   8  10
ENDBRANCH   1   4
BRANCH   1  17
ATOM     17  C   UNL     1      43.321   4.358  11.097  0.00  0.00    +0.000 C 
BRANCH  17  18
ATOM     18  N   UNL     1      43.737   4.840   9.763  0.00  0.00    +0.000 N 
ATOM     19  H   UNL     1      44.089   5.795   9.791  0.00  0.00    +0.000 HD
BRANCH  18  23
ATOM     20  C   UNL     1      46.315   2.275   7.862  0.00  0.00    +0.000 A 
ATOM     21  C   UNL     1      46.297   3.622   7.543  0.00  0.00    +0.000 A 
ATOM     22  N   UNL     1      45.444   4.507   8.131  0.00  0.00    +0.000 NA
ATOM     23  C   UNL     1      44.596   3.999   9.051  0.00  0.00    +0.000 A 
ATOM     24  C   UNL     1      44.628   2.629   9.356  0.00  0.00    +0.000 A 
ATOM     25  N   UNL     1      45.467   1.733   8.775  0.00  0.00    +0.000 NA
BRANCH  20  27
ATOM     26  N   UNL     1      48.367   1.982   6.613  0.00  0.00    +0.000 N 
ATOM     27  C   UNL     1      47.301   1.369   7.213  0.00  0.00    +0.000 C 
ATOM     28  O   UNL     1      47.172   0.150   7.212  0.00  0.00    +0.000 OA
ATOM     29  H   UNL     1      49.067   1.424   6.144  0.00  0.00    +0.000 HD
ATOM     30  H   UNL     1      48.447   2.993   6.632  0.00  0.00    +0.000 HD
ENDBRANCH  20  27
ENDBRANCH  18  23
ENDBRANCH  17  18
ENDBRANCH   1  17
TORSDOF 6
ENDMDL
MODEL 3
REMARK VINA RESULT:    -8.595      3.077      7.337
REMARK INTER + INTRA:         -12.489
REMARK INTER:                 -11.432
REMARK INTRA:                  -1.057
REMARK UNBOUND:                -0.879
REMARK  Name = 
REMARK  6 active torsions:
REMARK  status: ('A' for Active; 'I' for Inactive)
REMARK    1  A    between atoms: C_2  and  C_4
REMARK    2  A    between atoms: C_7  and  N_8
REMARK    3  A    between atoms: N_8  and  C_9
REMARK    4  A    between atoms: C_9  and  C_10
REMARK    5  A    between atoms: C_10  and  C_13
REMARK    6  A    between atoms: C_17  and  C_18
REMARK                            x       y       z     vdW  Elec       q    Type
REMARK                         _______ _______ _______ _____ _____    ______ ____
ROOT
ATOM      1  C   UNL     1      44.748   6.621  11.382  0.00  0.00    +0.000 C 
ATOM      2  F   UNL     1      43.612   7.376  11.243  0.00  0.00    +0.000 F 
ATOM      3  F   UNL     1      45.661   7.202  10.546  0.00  0.00    +0.000 F 
ENDROOT
BRANCH   1   4
ATOM      4  C   UNL     1      44.504   5.168  11.026  0.00  0.00    +0.000 A 
ATOM      5  C   UNL     1      43.517   4.428  11.687  0.00  0.00    +0.000 A 
ATOM      6  C   UNL     1      43.293   3.098  11.345  0.00  0.00    +0.000 A 
ATOM      7  C   UNL     1      44.045   2.499  10.331  0.00  0.00    +0.000 A 
ATOM      8  C   UNL     1      45.030   3.213   9.627  0.00  0.00    +0.000 A 
ATOM      9  C   UNL     1      45.252   4.550  10.008  0.00  0.00    +0.000 A 
BRANCH   8  10
ATOM     10  C   UNL     1      45.775   2.605   8.500  0.00  0.00    +0.000 A 
ATOM     11  C   UNL     1      46.356   3.398   7.501  0.00  0.00    +0.000 A 
ATOM     12  C   UNL     1      47.091   2.797   6.488  0.00  0.00    +0.000 A 
ATOM     13  N   UNL     1      47.293   1.469   6.396  0.00  0.00    +0.000 NA
ATOM     14  C   UNL     1      46.727   0.716   7.357  0.00  0.00    +0.000 A 
ATOM     15  F   UNL     1      46.925  -0.609   7.300  0.00  0.00    +0.000 F 
ATOM     16  C   UNL     1      45.969   1.221   8.401  0.00  0.00    +0.000 A 
ENDBRANCH   8  10
ENDBRANCH   1   4
BRANCH   1  17
ATOM     17  C   UNL     1      45.239   6.776  12.847  0.00  0.00    +0.000 C 
BRANCH  17  18
ATOM     18  N   UNL     1      46.709   6.656  12.942  0.00  0.00    +0.000 N 
ATOM     19  H   UNL     1      47.159   7.554  13.112  0.00  0.00    +0.000 HD
BRANCH  18  23
ATOM     20  C   UNL     1      47.912   3.674  15.492  0.00  0.00    +0.000 A 
ATOM     21  C   UNL     1      48.219   4.998  15.760  0.00  0.00    +0.000 A 
ATOM     22  N   UNL     1      47.861   6.019  14.932  0.00  0.00    +0.000 NA
ATOM     23  C   UNL     1      47.186   5.674  13.814  0.00  0.00    +0.000 A 
ATOM     24  C   UNL     1      46.890   4.326  13.560  0.00  0.00    +0.000 A 
ATOM     25  N   UNL     1      47.245   3.295  14.371  0.00  0.00    +0.000 NA
BRANCH  20  27
ATOM     26  N   UNL     1      47.688   2.672  17.683  0.00  0.00    +0.000 N 
ATOM     27  C   UNL     1      48.296   2.611  16.459  0.00  0.00    +0.000 C 
ATOM     28  O   UNL     1      49.107   1.734  16.183  0.00  0.00    +0.000 OA
ATOM     29  H   UNL     1      47.913   1.986  18.390  0.00  0.00    +0.000 HD
ATOM     30  H   UNL     1      47.020   3.409  17.881  0.00  0.00    +0.000 HD
ENDBRANCH  20  27
ENDBRANCH  18  23
ENDBRANCH  17  18
ENDBRANCH   1  17
TORSDOF 6
ENDMDL
MODEL 4
REMARK VINA RESULT:    -8.109      2.982      7.829
REMARK INTER + INTRA:         -11.833
REMARK INTER:                 -10.902
REMARK INTRA:                  -0.931
REMARK UNBOUND:                -0.879
REMARK  Name = 
REMARK  6 active torsions:
REMARK  status: ('A' for Active; 'I' for Inactive)
REMARK    1  A    between atoms: C_2  and  C_4
REMARK    2  A    between atoms: C_7  and  N_8
REMARK    3  A    between atoms: N_8  and  C_9
REMARK    4  A    between atoms: C_9  and  C_10
REMARK    5  A    between atoms: C_10  and  C_13
REMARK    6  A    between atoms: C_17  and  C_18
REMARK                            x       y       z     vdW  Elec       q    Type
REMARK                         _______ _______ _______ _____ _____    ______ ____
ROOT
ATOM      1  C   UNL     1      45.264   6.314  11.822  0.00  0.00    +0.000 C 
ATOM      2  F   UNL     1      44.505   6.653  12.913  0.00  0.00    +0.000 F 
ATOM      3  F   UNL     1      45.064   7.328  10.927  0.00  0.00    +0.000 F 
ENDROOT
BRANCH   1   4
ATOM      4  C   UNL     1      44.856   4.971  11.249  0.00  0.00    +0.000 A 
ATOM      5  C   UNL     1      43.769   4.269  11.783  0.00  0.00    +0.000 A 
ATOM      6  C   UNL     1      43.396   3.042  11.244  0.00  0.00    +0.000 A 
ATOM      7  C   UNL     1      44.097   2.511  10.158  0.00  0.00    +0.000 A 
ATOM      8  C   UNL     1      45.180   3.195   9.578  0.00  0.00    +0.000 A 
ATOM      9  C   UNL     1      45.551   4.423  10.157  0.00  0.00    +0.000 A 
BRANCH   8  10
ATOM     10  C   UNL     1      45.876   2.673   8.379  0.00  0.00    +0.000 A 
ATOM     11  C   UNL     1      46.297   1.337   8.307  0.00  0.00    +0.000 A 
ATOM     12  C   UNL     1      46.900   0.870   7.147  0.00  0.00    +0.000 A 
ATOM     13  N   UNL     1      47.111   1.627   6.054  0.00  0.00    +0.000 NA
ATOM     14  C   UNL     1      46.709   2.909   6.136  0.00  0.00    +0.000 A 
ATOM     15  F   UNL     1      46.893   3.683   5.057  0.00  0.00    +0.000 F 
ATOM     16  C   UNL     1      46.108   3.470   7.251  0.00  0.00    +0.000 A 
ENDBRANCH   8  10
ENDBRANCH   1   4
BRANCH   1  17
ATOM     17  C   UNL     1      46.752   6.320  12.265  0.00  0.00    +0.000 C 
BRANCH  17  18
ATOM     18  N   UNL     1      46.894   6.705  13.685  0.00  0.00    +0.000 N 
ATOM     19  H   UNL     1      46.029   7.076  14.073  0.00  0.00    +0.000 HD
BRANCH  18  23
ATOM     20  C   UNL     1      48.348   3.795  16.188  0.00  0.00    +0.000 A 
ATOM     21  C   UNL     1      48.804   5.100  16.282  0.00  0.00    +0.000 A 
ATOM     22  N   UNL     1      48.367   6.093  15.459  0.00  0.00    +0.000 NA
ATOM     23  C   UNL     1      47.458   5.741  14.525  0.00  0.00    +0.000 A 
ATOM     24  C   UNL     1      47.013   4.412  14.444  0.00  0.00    +0.000 A 
ATOM     25  N   UNL     1      47.442   3.408  15.252  0.00  0.00    +0.000 NA
BRANCH  20  27
ATOM     26  N   UNL     1      48.603   3.028  18.468  0.00  0.00    +0.000 N 
ATOM     27  C   UNL     1      48.833   2.766  17.146  0.00  0.00    +0.000 C 
ATOM     28  O   UNL     1      49.406   1.746  16.779  0.00  0.00    +0.000 OA
ATOM     29  H   UNL     1      48.918   2.374  19.171  0.00  0.00    +0.000 HD
ATOM     30  H   UNL     1      48.126   3.880  18.741  0.00  0.00    +0.000 HD
ENDBRANCH  20  27
ENDBRANCH  18  23
ENDBRANCH  17  18
ENDBRANCH   1  17
TORSDOF 6
ENDMDL
MODEL 5
REMARK VINA RESULT:    -7.698      3.637      7.801
REMARK INTER + INTRA:         -11.278
REMARK INTER:                 -10.172
REMARK INTRA:                  -1.105
REMARK UNBOUND:                -0.879
REMARK  Name = 
REMARK  6 active torsions:
REMARK  status: ('A' for Active; 'I' for Inactive)
REMARK    1  A    between atoms: C_2  and  C_4
REMARK    2  A    between atoms: C_7  and  N_8
REMARK    3  A    between atoms: N_8  and  C_9
REMARK    4  A    between atoms: C_9  and  C_10
REMARK    5  A    between atoms: C_10  and  C_13
REMARK    6  A    between atoms: C_17  and  C_18
REMARK                            x       y       z     vdW  Elec       q    Type
REMARK                         _______ _______ _______ _____ _____    ______ ____
ROOT
ATOM      1  C   UNL     1      48.705   8.276  12.213  0.00  0.00    +0.000 C 
ATOM      2  F   UNL     1      48.817   9.535  12.745  0.00  0.00    +0.000 F 
ATOM      3  F   UNL     1      49.376   8.336  11.023  0.00  0.00    +0.000 F 
ENDROOT
BRANCH   1   4
ATOM      4  C   UNL     1      47.256   7.874  12.021  0.00  0.00    +0.000 A 
ATOM      5  C   UNL     1      46.222   8.705  12.467  0.00  0.00    +0.000 A 
ATOM      6  C   UNL     1      44.894   8.333  12.276  0.00  0.00    +0.000 A 
ATOM      7  C   UNL     1      44.589   7.134  11.627  0.00  0.00    +0.000 A 
ATOM      8  C   UNL     1      45.598   6.282  11.143  0.00  0.00    +0.000 A 
ATOM      9  C   UNL     1      46.932   6.671  11.370  0.00  0.00    +0.000 A 
BRANCH   8  10
ATOM     10  C   UNL     1      45.278   5.050  10.387  0.00  0.00    +0.000 A 
ATOM     11  C   UNL     1      44.550   4.004  10.974  0.00  0.00    +0.000 A 
ATOM     12  C   UNL     1      44.224   2.887  10.218  0.00  0.00    +0.000 A 
ATOM     13  N   UNL     1      44.562   2.732   8.924  0.00  0.00    +0.000 NA
ATOM     14  C   UNL     1      45.265   3.738   8.372  0.00  0.00    +0.000 A 
ATOM     15  F   UNL     1      45.603   3.618   7.080  0.00  0.00    +0.000 F 
ATOM     16  C   UNL     1      45.646   4.887   9.045  0.00  0.00    +0.000 A 
ENDBRANCH   8  10
ENDBRANCH   1   4
BRANCH   1  17
ATOM     17  C   UNL     1      49.449   7.297  13.161  0.00  0.00    +0.000 C 
BRANCH  17  18
ATOM     18  N   UNL     1      49.203   7.625  14.582  0.00  0.00    +0.000 N 
ATOM     19  H   UNL     1      48.651   8.474  14.691  0.00  0.00    +0.000 HD
BRANCH  18  23
ATOM     20  C   UNL     1      47.935   4.556  16.993  0.00  0.00    +0.000 A 
ATOM     21  C   UNL     1      47.613   4.575  15.646  0.00  0.00    +0.000 A 
ATOM     22  N   UNL     1      47.993   5.583  14.813  0.00  0.00    +0.000 NA
ATOM     23  C   UNL     1      48.704   6.586  15.371  0.00  0.00    +0.000 A 
ATOM     24  C   UNL     1      49.015   6.550  16.739  0.00  0.00    +0.000 A 
ATOM     25  N   UNL     1      48.640   5.555  17.586  0.00  0.00    +0.000 NA
BRANCH  20  27
ATOM     26  N   UNL     1      48.347   3.123  18.899  0.00  0.00    +0.000 N 
ATOM     27  C   UNL     1      47.527   3.404  17.841  0.00  0.00    +0.000 C 
ATOM     28  O   UNL     1      46.521   2.743  17.610  0.00  0.00    +0.000 OA
ATOM     29  H   UNL     1      48.132   2.345  19.507  0.00  0.00    +0.000 HD
ATOM     30  H   UNL     1      49.172   3.689  19.065  0.00  0.00    +0.000 HD
ENDBRANCH  20  27
ENDBRANCH  18  23
ENDBRANCH  17  18
ENDBRANCH   1  17
TORSDOF 6
ENDMDL
MODEL 6
REMARK VINA RESULT:    -7.415      3.553      8.298
REMARK INTER + INTRA:         -10.894
REMARK INTER:                 -10.169
REMARK INTRA:                  -0.726
REMARK UNBOUND:                -0.879
REMARK  Name = 
REMARK  6 active torsions:
REMARK  status: ('A' for Active; 'I' for Inactive)
REMARK    1  A    between atoms: C_2  and  C_4
REMARK    2  A    between atoms: C_7  and  N_8
REMARK    3  A    between atoms: N_8  and  C_9
REMARK    4  A    between atoms: C_9  and  C_10
REMARK    5  A    between atoms: C_10  and  C_13
REMARK    6  A    between atoms: C_17  and  C_18
REMARK                            x       y       z     vdW  Elec       q    Type
REMARK                         _______ _______ _______ _____ _____    ______ ____
ROOT
ATOM      1  C   UNL     1      45.009   3.820  12.978  0.00  0.00    +0.000 C 
ATOM      2  F   UNL     1      45.845   2.761  13.222  0.00  0.00    +0.000 F 
ATOM      3  F   UNL     1      43.857   3.520  13.651  0.00  0.00    +0.000 F 
ENDROOT
BRANCH   1   4
ATOM      4  C   UNL     1      44.760   4.008  11.495  0.00  0.00    +0.000 A 
ATOM      5  C   UNL     1      43.866   4.985  11.041  0.00  0.00    +0.000 A 
ATOM      6  C   UNL     1      43.652   5.159   9.677  0.00  0.00    +0.000 A 
ATOM      7  C   UNL     1      44.338   4.365   8.754  0.00  0.00    +0.000 A 
ATOM      8  C   UNL     1      45.261   3.388   9.167  0.00  0.00    +0.000 A 
ATOM      9  C   UNL     1      45.442   3.218  10.553  0.00  0.00    +0.000 A 
BRANCH   8  10
ATOM     10  C   UNL     1      46.047   2.600   8.190  0.00  0.00    +0.000 A 
ATOM     11  C   UNL     1      46.849   3.228   7.226  0.00  0.00    +0.000 A 
ATOM     12  C   UNL     1      47.612   2.457   6.361  0.00  0.00    +0.000 A 
ATOM     13  N   UNL     1      47.642   1.112   6.383  0.00  0.00    +0.000 NA
ATOM     14  C   UNL     1      46.864   0.518   7.307  0.00  0.00    +0.000 A 
ATOM     15  F   UNL     1      46.885  -0.822   7.363  0.00  0.00    +0.000 F 
ATOM     16  C   UNL     1      46.061   1.199   8.208  0.00  0.00    +0.000 A 
ENDBRANCH   8  10
ENDBRANCH   1   4
BRANCH   1  17
ATOM     17  C   UNL     1      45.650   5.081  13.616  0.00  0.00    +0.000 C 
BRANCH  17  18
ATOM     18  N   UNL     1      47.110   4.921  13.788  0.00  0.00    +0.000 N 
ATOM     19  H   UNL     1      47.634   5.669  13.338  0.00  0.00    +0.000 HD
BRANCH  18  23
ATOM     20  C   UNL     1      48.588   4.386  17.579  0.00  0.00    +0.000 A 
ATOM     21  C   UNL     1      47.967   3.345  16.910  0.00  0.00    +0.000 A 
ATOM     22  N   UNL     1      47.441   3.482  15.660  0.00  0.00    +0.000 NA
ATOM     23  C   UNL     1      47.550   4.703  15.096  0.00  0.00    +0.000 A 
ATOM     24  C   UNL     1      48.179   5.746  15.793  0.00  0.00    +0.000 A 
ATOM     25  N   UNL     1      48.703   5.629  17.041  0.00  0.00    +0.000 NA
BRANCH  20  27
ATOM     26  N   UNL     1      48.435   3.393  19.779  0.00  0.00    +0.000 N 
ATOM     27  C   UNL     1      49.179   4.160  18.925  0.00  0.00    +0.000 C 
ATOM     28  O   UNL     1      50.262   4.629  19.254  0.00  0.00    +0.000 OA
ATOM     29  H   UNL     1      48.774   3.210  20.714  0.00  0.00    +0.000 HD
ATOM     30  H   UNL     1      47.542   3.018  19.477  0.00  0.00    +0.000 HD
ENDBRANCH  20  27
ENDBRANCH  18  23
ENDBRANCH  17  18
ENDBRANCH   1  17
TORSDOF 6
ENDMDL
MODEL 7
REMARK VINA RESULT:    -7.313      2.447      3.213
REMARK INTER + INTRA:         -10.757
REMARK INTER:                  -9.876
REMARK INTRA:                  -0.881
REMARK UNBOUND:                -0.879
REMARK  Name = 
REMARK  6 active torsions:
REMARK  status: ('A' for Active; 'I' for Inactive)
REMARK    1  A    between atoms: C_2  and  C_4
REMARK    2  A    between atoms: C_7  and  N_8
REMARK    3  A    between atoms: N_8  and  C_9
REMARK    4  A    between atoms: C_9  and  C_10
REMARK    5  A    between atoms: C_10  and  C_13
REMARK    6  A    between atoms: C_17  and  C_18
REMARK                            x       y       z     vdW  Elec       q    Type
REMARK                         _______ _______ _______ _____ _____    ______ ____
ROOT
ATOM      1  C   UNL     1      44.440   6.464  11.766  0.00  0.00    +0.000 C 
ATOM      2  F   UNL     1      44.210   7.811  11.877  0.00  0.00    +0.000 F 
ATOM      3  F   UNL     1      43.236   5.878  12.045  0.00  0.00    +0.000 F 
ENDROOT
BRANCH   1   4
ATOM      4  C   UNL     1      45.524   5.999  12.717  0.00  0.00    +0.000 A 
ATOM      5  C   UNL     1      45.367   4.820  13.455  0.00  0.00    +0.000 A 
ATOM      6  C   UNL     1      46.373   4.395  14.318  0.00  0.00    +0.000 A 
ATOM      7  C   UNL     1      47.550   5.138  14.442  0.00  0.00    +0.000 A 
ATOM      8  C   UNL     1      47.757   6.316  13.702  0.00  0.00    +0.000 A 
ATOM      9  C   UNL     1      46.715   6.735  12.854  0.00  0.00    +0.000 A 
BRANCH   8  10
ATOM     10  C   UNL     1      49.034   7.063  13.772  0.00  0.00    +0.000 A 
ATOM     11  C   UNL     1      49.572   7.691  12.639  0.00  0.00    +0.000 A 
ATOM     12  C   UNL     1      50.744   8.426  12.755  0.00  0.00    +0.000 A 
ATOM     13  N   UNL     1      51.418   8.587  13.908  0.00  0.00    +0.000 NA
ATOM     14  C   UNL     1      50.897   7.975  14.988  0.00  0.00    +0.000 A 
ATOM     15  F   UNL     1      51.539   8.130  16.155  0.00  0.00    +0.000 F 
ATOM     16  C   UNL     1      49.740   7.213  14.973  0.00  0.00    +0.000 A 
ENDBRANCH   8  10
ENDBRANCH   1   4
BRANCH   1  17
ATOM     17  C   UNL     1      44.811   6.171  10.287  0.00  0.00    +0.000 C 
BRANCH  17  18
ATOM     18  N   UNL     1      44.058   5.013   9.758  0.00  0.00    +0.000 N 
ATOM     19  H   UNL     1      43.313   5.296   9.124  0.00  0.00    +0.000 HD
BRANCH  18  23
ATOM     20  C   UNL     1      46.286   2.072   7.962  0.00  0.00    +0.000 A 
ATOM     21  C   UNL     1      45.355   1.756   8.938  0.00  0.00    +0.000 A 
ATOM     22  N   UNL     1      44.609   2.700   9.577  0.00  0.00    +0.000 NA
ATOM     23  C   UNL     1      44.828   3.982   9.214  0.00  0.00    +0.000 A 
ATOM     24  C   UNL     1      45.779   4.281   8.226  0.00  0.00    +0.000 A 
ATOM     25  N   UNL     1      46.536   3.353   7.583  0.00  0.00    +0.000 NA
BRANCH  20  27
ATOM     26  N   UNL     1      46.717  -0.287   7.643  0.00  0.00    +0.000 N 
ATOM     27  C   UNL     1      47.038   0.990   7.272  0.00  0.00    +0.000 C 
ATOM     28  O   UNL     1      47.892   1.221   6.424  0.00  0.00    +0.000 OA
ATOM     29  H   UNL     1      47.200  -1.068   7.220  0.00  0.00    +0.000 HD
ATOM     30  H   UNL     1      46.004  -0.447   8.347  0.00  0.00    +0.000 HD
ENDBRANCH  20  27
ENDBRANCH  18  23
ENDBRANCH  17  18
ENDBRANCH   1  17
TORSDOF 6
ENDMDL
MODEL 8
REMARK VINA RESULT:    -6.729      4.065      6.932
REMARK INTER + INTRA:          -9.969
REMARK INTER:                  -9.265
REMARK INTRA:                  -0.704
REMARK UNBOUND:                -0.879
REMARK  Name = 
REMARK  6 active torsions:
REMARK  status: ('A' for Active; 'I' for Inactive)
REMARK    1  A    between atoms: C_2  and  C_4
REMARK    2  A    between atoms: C_7  and  N_8
REMARK    3  A    between atoms: N_8  and  C_9
REMARK    4  A    between atoms: C_9  and  C_10
REMARK    5  A    between atoms: C_10  and  C_13
REMARK    6  A    between atoms: C_17  and  C_18
REMARK                            x       y       z     vdW  Elec       q    Type
REMARK                         _______ _______ _______ _____ _____    ______ ____
ROOT
ATOM      1  C   UNL     1      48.070   2.896  16.990  0.00  0.00    +0.000 C 
ATOM      2  F   UNL     1      47.053   2.318  17.706  0.00  0.00    +0.000 F 
ATOM      3  F   UNL     1      48.646   1.865  16.301  0.00  0.00    +0.000 F 
ENDROOT
BRANCH   1   4
ATOM      4  C   UNL     1      49.067   3.594  17.894  0.00  0.00    +0.000 A 
ATOM      5  C   UNL     1      48.628   4.386  18.961  0.00  0.00    +0.000 A 
ATOM      6  C   UNL     1      49.551   5.014  19.792  0.00  0.00    +0.000 A 
ATOM      7  C   UNL     1      50.921   4.845  19.572  0.00  0.00    +0.000 A 
ATOM      8  C   UNL     1      51.403   4.039  18.526  0.00  0.00    +0.000 A 
ATOM      9  C   UNL     1      50.448   3.434  17.686  0.00  0.00    +0.000 A 
BRANCH   8  10
ATOM     10  C   UNL     1      52.852   3.795  18.338  0.00  0.00    +0.000 A 
ATOM     11  C   UNL     1      53.490   2.703  18.944  0.00  0.00    +0.000 A 
ATOM     12  C   UNL     1      54.838   2.476  18.703  0.00  0.00    +0.000 A 
ATOM     13  N   UNL     1      55.597   3.248  17.904  0.00  0.00    +0.000 NA
ATOM     14  C   UNL     1      54.977   4.297  17.332  0.00  0.00    +0.000 A 
ATOM     15  F   UNL     1      55.705   5.075  16.518  0.00  0.00    +0.000 F 
ATOM     16  C   UNL     1      53.640   4.612  17.517  0.00  0.00    +0.000 A 
ENDBRANCH   8  10
ENDBRANCH   1   4
BRANCH   1  17
ATOM     17  C   UNL     1      47.429   3.882  15.976  0.00  0.00    +0.000 C 
BRANCH  17  18
ATOM     18  N   UNL     1      47.451   3.337  14.601  0.00  0.00    +0.000 N 
ATOM     19  H   UNL     1      47.386   2.321  14.589  0.00  0.00    +0.000 HD
BRANCH  18  23
ATOM     20  C   UNL     1      44.753   5.177  12.116  0.00  0.00    +0.000 A 
ATOM     21  C   UNL     1      44.877   3.797  12.127  0.00  0.00    +0.000 A 
ATOM     22  N   UNL     1      45.773   3.145  12.918  0.00  0.00    +0.000 NA
ATOM     23  C   UNL     1      46.556   3.918  13.701  0.00  0.00    +0.000 A 
ATOM     24  C   UNL     1      46.417   5.314  13.671  0.00  0.00    +0.000 A 
ATOM     25  N   UNL     1      45.533   5.982  12.884  0.00  0.00    +0.000 NA
BRANCH  20  27
ATOM     26  N   UNL     1      43.635   7.187  11.366  0.00  0.00    +0.000 N 
ATOM     27  C   UNL     1      43.724   5.826  11.260  0.00  0.00    +0.000 C 
ATOM     28  O   UNL     1      42.999   5.187  10.506  0.00  0.00    +0.000 OA
ATOM     29  H   UNL     1      42.948   7.688  10.820  0.00  0.00    +0.000 HD
ATOM     30  H   UNL     1      44.250   7.688  11.998  0.00  0.00    +0.000 HD
ENDBRANCH  20  27
ENDBRANCH  18  23
ENDBRANCH  17  18
ENDBRANCH   1  17
TORSDOF 6
ENDMDL
MODEL 9
REMARK VINA RESULT:    -6.455      4.004      8.040
REMARK INTER + INTRA:          -9.598
REMARK INTER:                  -8.797
REMARK INTRA:                  -0.802
REMARK UNBOUND:                -0.879
REMARK  Name = 
REMARK  6 active torsions:
REMARK  status: ('A' for Active; 'I' for Inactive)
REMARK    1  A    between atoms: C_2  and  C_4
REMARK    2  A    between atoms: C_7  and  N_8
REMARK    3  A    between atoms: N_8  and  C_9
REMARK    4  A    between atoms: C_9  and  C_10
REMARK    5  A    between atoms: C_10  and  C_13
REMARK    6  A    between atoms: C_17  and  C_18
REMARK                            x       y       z     vdW  Elec       q    Type
REMARK                         _______ _______ _______ _____ _____    ______ ____
ROOT
ATOM      1  C   UNL     1      48.041   8.154  13.687  0.00  0.00    +0.000 C 
ATOM      2  F   UNL     1      47.860   8.989  14.759  0.00  0.00    +0.000 F 
ATOM      3  F   UNL     1      49.047   8.729  12.960  0.00  0.00    +0.000 F 
ENDROOT
BRANCH   1   4
ATOM      4  C   UNL     1      46.773   8.007  12.870  0.00  0.00    +0.000 A 
ATOM      5  C   UNL     1      46.090   9.136  12.404  0.00  0.00    +0.000 A 
ATOM      6  C   UNL     1      44.932   8.991  11.645  0.00  0.00    +0.000 A 
ATOM      7  C   UNL     1      44.454   7.715  11.335  0.00  0.00    +0.000 A 
ATOM      8  C   UNL     1      45.122   6.554  11.764  0.00  0.00    +0.000 A 
ATOM      9  C   UNL     1      46.278   6.730  12.549  0.00  0.00    +0.000 A 
BRANCH   8  10
ATOM     10  C   UNL     1      44.662   5.203  11.371  0.00  0.00    +0.000 A 
ATOM     11  C   UNL     1      43.974   4.378  12.274  0.00  0.00    +0.000 A 
ATOM     12  C   UNL     1      43.512   3.138  11.855  0.00  0.00    +0.000 A 
ATOM     13  N   UNL     1      43.679   2.658  10.608  0.00  0.00    +0.000 NA
ATOM     14  C   UNL     1      44.345   3.454   9.752  0.00  0.00    +0.000 A 
ATOM     15  F   UNL     1      44.512   3.008   8.498  0.00  0.00    +0.000 F 
ATOM     16  C   UNL     1      44.852   4.702  10.077  0.00  0.00    +0.000 A 
ENDBRANCH   8  10
ENDBRANCH   1   4
BRANCH   1  17
ATOM     17  C   UNL     1      48.532   6.787  14.233  0.00  0.00    +0.000 C 
BRANCH  17  18
ATOM     18  N   UNL     1      48.242   6.642  15.676  0.00  0.00    +0.000 N 
ATOM     19  H   UNL     1      47.263   6.423  15.851  0.00  0.00    +0.000 HD
BRANCH  18  23
ATOM     20  C   UNL     1      50.894   4.185  17.618  0.00  0.00    +0.000 A 
ATOM     21  C   UNL     1      49.591   3.775  17.386  0.00  0.00    +0.000 A 
ATOM     22  N   UNL     1      48.671   4.564  16.766  0.00  0.00    +0.000 NA
ATOM     23  C   UNL     1      49.091   5.790  16.386  0.00  0.00    +0.000 A 
ATOM     24  C   UNL     1      50.414   6.187  16.635  0.00  0.00    +0.000 A 
ATOM     25  N   UNL     1      51.344   5.415  17.257  0.00  0.00    +0.000 NA
BRANCH  20  27
ATOM     26  N   UNL     1      51.746   1.940  17.915  0.00  0.00    +0.000 N 
ATOM     27  C   UNL     1      51.863   3.258  18.262  0.00  0.00    +0.000 C 
ATOM     28  O   UNL     1      52.713   3.645  19.056  0.00  0.00    +0.000 OA
ATOM     29  H   UNL     1      52.367   1.257  18.327  0.00  0.00    +0.000 HD
ATOM     30  H   UNL     1      51.033   1.651  17.255  0.00  0.00    +0.000 HD
ENDBRANCH  20  27
ENDBRANCH  18  23
ENDBRANCH  17  18
ENDBRANCH   1  17
TORSDOF 6
ENDMDL
