MODEL 1
REMARK VINA RESULT:    -8.067      0.000      0.000
REMARK INTER + INTRA:         -11.910
REMARK INTER:                 -10.897
REMARK INTRA:                  -1.013
REMARK UNBOUND:                -1.013
REMARK  Name = 
REMARK  6 active torsions:
REMARK  status: ('A' for Active; 'I' for Inactive)
REMARK    1  A    between atoms: C_2  and  C_25
REMARK    2  A    between atoms: N_3  and  C_4
REMARK    3  A    between atoms: C_4  and  C_5
REMARK    4  A    between atoms: C_8  and  C_9
REMARK    5  A    between atoms: C_9  and  N_10
REMARK    6  A    between atoms: C_11  and  C_13
REMARK                            x       y       z     vdW  Elec       q    Type
REMARK                         _______ _______ _______ _____ _____    ______ ____
ROOT
ATOM      1  C   UNL     1      44.920   5.354  10.777  0.00  0.00    +0.000 A 
ATOM      2  C   UNL     1      46.140   5.947  10.423  0.00  0.00    +0.000 A 
ATOM      3  C   UNL     1      46.781   6.831  11.295  0.00  0.00    +0.000 A 
ATOM      4  C   UNL     1      46.227   7.126  12.548  0.00  0.00    +0.000 A 
ATOM      5  C   UNL     1      45.005   6.537  12.898  0.00  0.00    +0.000 A 
ATOM      6  C   UNL     1      44.364   5.651  12.028  0.00  0.00    +0.000 A 
ENDROOT
BRANCH   1   7
ATOM      7  C   UNL     1      44.241   4.383   9.846  0.00  0.00    +0.000 C 
BRANCH   7  10
ATOM      8  O   UNL     1      44.908   1.764   9.264  0.00  0.00    +0.000 OA
ATOM      9  C   UNL     1      45.423   2.635   8.569  0.00  0.00    +0.000 C 
ATOM     10  N   UNL     1      45.134   3.966   8.795  0.00  0.00    +0.000 N 
ATOM     11  H   UNL     1      45.589   4.673   8.231  0.00  0.00    +0.000 HD
BRANCH   9  12
ATOM     12  C   UNL     1      46.352   2.365   7.487  0.00  0.00    +0.000 A 
ATOM     13  S   UNL     1      46.920   3.616   6.442  0.00  0.00    +0.000 S 
ATOM     14  C   UNL     1      47.855   2.473   5.585  0.00  0.00    +0.000 A 
ATOM     15  N   UNL     1      47.780   1.236   6.010  0.00  0.00    +0.000 NA
ATOM     16  C   UNL     1      46.922   1.162   7.100  0.00  0.00    +0.000 A 
ATOM     17 CL   UNL     1      46.664  -0.370   7.827  0.00  0.00    +0.000 Cl
ENDBRANCH   9  12
ENDBRANCH   7  10
ENDBRANCH   1   7
BRANCH   4  18
ATOM     18  C   UNL     1      46.907   8.084  13.491  0.00  0.00    +0.000 C 
BRANCH  18  19
ATOM     19  N   UNL     1      47.399   7.408  14.665  0.00  0.00    +0.000 N 
ATOM     20  C   UNL     1      48.646   6.835  14.681  0.00  0.00    +0.000 C 
ATOM     21  O   UNL     1      49.408   6.912  13.720  0.00  0.00    +0.000 OA
ATOM     22  H   UNL     1      46.715   7.137  15.365  0.00  0.00    +0.000 HD
BRANCH  20  23
ATOM     23  C   UNL     1      49.054   6.179  15.930  0.00  0.00    +0.000 A 
ATOM     24  C   UNL     1      50.149   6.663  16.634  0.00  0.00    +0.000 A 
ATOM     25  S   UNL     1      50.453   5.825  18.088  0.00  0.00    +0.000 S 
ATOM     26  C   UNL     1      49.165   4.751  17.802  0.00  0.00    +0.000 A 
ATOM     27  N   UNL     1      48.886   3.746  18.676  0.00  0.00    +0.000 NA
ATOM     28  C   UNL     1      47.905   2.987  18.319  0.00  0.00    +0.000 A 
ATOM     29  N   UNL     1      47.172   3.145  17.171  0.00  0.00    +0.000 N 
ATOM     30  C   UNL     1      47.399   4.163  16.274  0.00  0.00    +0.000 A 
ATOM     31  O   UNL     1      46.700   4.299  15.275  0.00  0.00    +0.000 OA
ATOM     32  C   UNL     1      48.501   5.039  16.622  0.00  0.00    +0.000 A 
ATOM     33  H   UNL     1      46.410   2.521  16.953  0.00  0.00    +0.000 HD
ENDBRANCH  20  23
ENDBRANCH  18  19
ENDBRANCH   4  18
TORSDOF 6
ENDMDL
MODEL 2
REMARK VINA RESULT:    -7.278      5.345      9.408
REMARK INTER + INTRA:         -10.844
REMARK INTER:                 -10.043
REMARK INTRA:                  -0.801
REMARK UNBOUND:                -1.013
REMARK  Name = 
REMARK  6 active torsions:
REMARK  status: ('A' for Active; 'I' for Inactive)
REMARK    1  A    between atoms: C_2  and  C_25
REMARK    2  A    between atoms: N_3  and  C_4
REMARK    3  A    between atoms: C_4  and  C_5
REMARK    4  A    between atoms: C_8  and  C_9
REMARK    5  A    between atoms: C_9  and  N_10
REMARK    6  A    between atoms: C_11  and  C_13
REMARK                            x       y       z     vdW  Elec       q    Type
REMARK                         _______ _______ _______ _____ _____    ______ ____
ROOT
ATOM      1  C   UNL     1      51.452   3.124  17.753  0.00  0.00    +0.000 A 
ATOM      2  C   UNL     1      50.766   2.056  17.159  0.00  0.00    +0.000 A 
ATOM      3  C   UNL     1      49.392   2.140  16.914  0.00  0.00    +0.000 A 
ATOM      4  C   UNL     1      48.680   3.302  17.239  0.00  0.00    +0.000 A 
ATOM      5  C   UNL     1      49.365   4.367  17.837  0.00  0.00    +0.000 A 
ATOM      6  C   UNL     1      50.739   4.285  18.081  0.00  0.00    +0.000 A 
ENDROOT
BRANCH   1   7
ATOM      7  C   UNL     1      52.937   3.041  17.996  0.00  0.00    +0.000 C 
BRANCH   7  10
ATOM      8  O   UNL     1      54.268   1.142  19.501  0.00  0.00    +0.000 OA
ATOM      9  C   UNL     1      54.133   0.905  18.304  0.00  0.00    +0.000 C 
ATOM     10  N   UNL     1      53.474   1.804  17.488  0.00  0.00    +0.000 N 
ATOM     11  H   UNL     1      53.396   1.607  16.499  0.00  0.00    +0.000 HD
BRANCH   9  12
ATOM     12  C   UNL     1      54.635  -0.290  17.652  0.00  0.00    +0.000 A 
ATOM     13  S   UNL     1      55.448  -0.223  16.131  0.00  0.00    +0.000 S 
ATOM     14  C   UNL     1      55.640  -1.919  16.162  0.00  0.00    +0.000 A 
ATOM     15  N   UNL     1      55.149  -2.534  17.210  0.00  0.00    +0.000 NA
ATOM     16  C   UNL     1      54.571  -1.610  18.071  0.00  0.00    +0.000 A 
ATOM     17 CL   UNL     1      53.855  -2.188  19.519  0.00  0.00    +0.000 Cl
ENDBRANCH   9  12
ENDBRANCH   7  10
ENDBRANCH   1   7
BRANCH   4  18
ATOM     18  C   UNL     1      47.197   3.398  16.986  0.00  0.00    +0.000 C 
BRANCH  18  19
ATOM     19  N   UNL     1      46.896   4.407  16.001  0.00  0.00    +0.000 N 
ATOM     20  C   UNL     1      47.005   4.141  14.659  0.00  0.00    +0.000 C 
ATOM     21  O   UNL     1      47.317   3.028  14.242  0.00  0.00    +0.000 OA
ATOM     22  H   UNL     1      46.866   5.371  16.319  0.00  0.00    +0.000 HD
BRANCH  20  23
ATOM     23  C   UNL     1      46.665   5.235  13.741  0.00  0.00    +0.000 A 
ATOM     24  C   UNL     1      47.580   6.256  13.520  0.00  0.00    +0.000 A 
ATOM     25  S   UNL     1      47.052   7.415  12.387  0.00  0.00    +0.000 S 
ATOM     26  C   UNL     1      45.560   6.624  12.190  0.00  0.00    +0.000 A 
ATOM     27  N   UNL     1      44.609   7.123  11.354  0.00  0.00    +0.000 NA
ATOM     28  C   UNL     1      43.513   6.442  11.327  0.00  0.00    +0.000 A 
ATOM     29  N   UNL     1      43.283   5.303  12.055  0.00  0.00    +0.000 N 
ATOM     30  C   UNL     1      44.223   4.747  12.890  0.00  0.00    +0.000 A 
ATOM     31  O   UNL     1      44.000   3.705  13.497  0.00  0.00    +0.000 OA
ATOM     32  C   UNL     1      45.472   5.482  12.966  0.00  0.00    +0.000 A 
ATOM     33  H   UNL     1      42.405   4.811  11.982  0.00  0.00    +0.000 HD
ENDBRANCH  20  23
ENDBRANCH  18  19
ENDBRANCH   4  18
TORSDOF 6
ENDMDL
MODEL 3
REMARK VINA RESULT:    -7.183      3.349      8.679
REMARK INTER + INTRA:         -10.715
REMARK INTER:                  -9.676
REMARK INTRA:                  -1.039
REMARK UNBOUND:                -1.013
REMARK  Name = 
REMARK  6 active torsions:
REMARK  status: ('A' for Active; 'I' for Inactive)
REMARK    1  A    between atoms: C_2  and  C_25
REMARK    2  A    between atoms: N_3  and  C_4
REMARK    3  A    between atoms: C_4  and  C_5
REMARK    4  A    between atoms: C_8  and  C_9
REMARK    5  A    between atoms: C_9  and  N_10
REMARK    6  A    between atoms: C_11  and  C_13
REMARK                            x       y       z     vdW  Elec       q    Type
REMARK                         _______ _______ _______ _____ _____    ______ ____
ROOT
ATOM      1  C   UNL     1      50.116   7.105  15.495  0.00  0.00    +0.000 A 
ATOM      2  C   UNL     1      50.532   7.878  14.402  0.00  0.00    +0.000 A 
ATOM      3  C   UNL     1      49.690   8.068  13.302  0.00  0.00    +0.000 A 
ATOM      4  C   UNL     1      48.407   7.505  13.280  0.00  0.00    +0.000 A 
ATOM      5  C   UNL     1      47.994   6.728  14.370  0.00  0.00    +0.000 A 
ATOM      6  C   UNL     1      48.835   6.539  15.471  0.00  0.00    +0.000 A 
ENDROOT
BRANCH   1   7
ATOM      7  C   UNL     1      51.015   6.921  16.689  0.00  0.00    +0.000 C 
BRANCH   7  10
ATOM      8  O   UNL     1      50.002   5.070  18.476  0.00  0.00    +0.000 OA
ATOM      9  C   UNL     1      50.895   4.686  17.727  0.00  0.00    +0.000 C 
ATOM     10  N   UNL     1      51.447   5.551  16.803  0.00  0.00    +0.000 N 
ATOM     11  H   UNL     1      52.201   5.226  16.211  0.00  0.00    +0.000 HD
BRANCH   9  12
ATOM     12  C   UNL     1      51.440   3.341  17.738  0.00  0.00    +0.000 A 
ATOM     13  S   UNL     1      53.017   3.004  18.357  0.00  0.00    +0.000 S 
ATOM     14  C   UNL     1      52.803   1.350  17.989  0.00  0.00    +0.000 A 
ATOM     15  N   UNL     1      51.657   1.025  17.443  0.00  0.00    +0.000 NA
ATOM     16  C   UNL     1      50.868   2.159  17.295  0.00  0.00    +0.000 A 
ATOM     17 CL   UNL     1      49.313   1.978  16.593  0.00  0.00    +0.000 Cl
ENDBRANCH   9  12
ENDBRANCH   7  10
ENDBRANCH   1   7
BRANCH   4  18
ATOM     18  C   UNL     1      47.496   7.697  12.095  0.00  0.00    +0.000 C 
BRANCH  18  19
ATOM     19  N   UNL     1      46.823   6.471  11.745  0.00  0.00    +0.000 N 
ATOM     20  C   UNL     1      45.453   6.387  11.760  0.00  0.00    +0.000 C 
ATOM     21  O   UNL     1      44.747   7.356  12.026  0.00  0.00    +0.000 OA
ATOM     22  H   UNL     1      47.377   5.620  11.751  0.00  0.00    +0.000 HD
BRANCH  20  23
ATOM     23  C   UNL     1      44.869   5.095  11.377  0.00  0.00    +0.000 A 
ATOM     24  C   UNL     1      44.080   4.402  12.286  0.00  0.00    +0.000 A 
ATOM     25  S   UNL     1      43.435   2.951  11.665  0.00  0.00    +0.000 S 
ATOM     26  C   UNL     1      44.230   3.170  10.177  0.00  0.00    +0.000 A 
ATOM     27  N   UNL     1      44.114   2.250   9.181  0.00  0.00    +0.000 NA
ATOM     28  C   UNL     1      44.796   2.526   8.120  0.00  0.00    +0.000 A 
ATOM     29  N   UNL     1      45.578   3.641   7.961  0.00  0.00    +0.000 N 
ATOM     30  C   UNL     1      45.701   4.610   8.929  0.00  0.00    +0.000 A 
ATOM     31  O   UNL     1      46.378   5.615   8.740  0.00  0.00    +0.000 OA
ATOM     32  C   UNL     1      44.964   4.343  10.149  0.00  0.00    +0.000 A 
ATOM     33  H   UNL     1      46.081   3.802   7.101  0.00  0.00    +0.000 HD
ENDBRANCH  20  23
ENDBRANCH  18  19
ENDBRANCH   4  18
TORSDOF 6
ENDMDL
MODEL 4
REMARK VINA RESULT:    -7.057      3.549      8.353
REMARK INTER + INTRA:         -10.545
REMARK INTER:                  -9.625
REMARK INTRA:                  -0.920
REMARK UNBOUND:                -1.013
REMARK  Name = 
REMARK  6 active torsions:
REMARK  status: ('A' for Active; 'I' for Inactive)
REMARK    1  A    between atoms: C_2  and  C_25
REMARK    2  A    between atoms: N_3  and  C_4
REMARK    3  A    between atoms: C_4  and  C_5
REMARK    4  A    between atoms: C_8  and  C_9
REMARK    5  A    between atoms: C_9  and  N_10
REMARK    6  A    between atoms: C_11  and  C_13
REMARK                            x       y       z     vdW  Elec       q    Type
REMARK                         _______ _______ _______ _____ _____    ______ ____
ROOT
ATOM      1  C   UNL     1      50.202   7.311  15.785  0.00  0.00    +0.000 A 
ATOM      2  C   UNL     1      49.036   6.589  15.493  0.00  0.00    +0.000 A 
ATOM      3  C   UNL     1      48.273   6.898  14.363  0.00  0.00    +0.000 A 
ATOM      4  C   UNL     1      48.668   7.921  13.492  0.00  0.00    +0.000 A 
ATOM      5  C   UNL     1      49.830   8.646  13.789  0.00  0.00    +0.000 A 
ATOM      6  C   UNL     1      50.595   8.337  14.917  0.00  0.00    +0.000 A 
ENDROOT
BRANCH   1   7
ATOM      7  C   UNL     1      51.036   6.962  16.991  0.00  0.00    +0.000 C 
BRANCH   7  10
ATOM      8  O   UNL     1      49.924   5.020  18.613  0.00  0.00    +0.000 OA
ATOM      9  C   UNL     1      50.796   4.655  17.831  0.00  0.00    +0.000 C 
ATOM     10  N   UNL     1      51.395   5.567  16.984  0.00  0.00    +0.000 N 
ATOM     11  H   UNL     1      52.132   5.256  16.364  0.00  0.00    +0.000 HD
BRANCH   9  12
ATOM     12  C   UNL     1      51.270   3.288  17.724  0.00  0.00    +0.000 A 
ATOM     13  S   UNL     1      52.852   2.830  18.241  0.00  0.00    +0.000 S 
ATOM     14  C   UNL     1      52.536   1.219  17.773  0.00  0.00    +0.000 A 
ATOM     15  N   UNL     1      51.351   0.991  17.262  0.00  0.00    +0.000 NA
ATOM     16  C   UNL     1      50.617   2.170  17.229  0.00  0.00    +0.000 A 
ATOM     17 CL   UNL     1      49.025   2.116  16.593  0.00  0.00    +0.000 Cl
ENDBRANCH   9  12
ENDBRANCH   7  10
ENDBRANCH   1   7
BRANCH   4  18
ATOM     18  C   UNL     1      47.847   8.266  12.277  0.00  0.00    +0.000 C 
BRANCH  18  19
ATOM     19  N   UNL     1      47.262   7.089  11.685  0.00  0.00    +0.000 N 
ATOM     20  C   UNL     1      45.925   7.041  11.380  0.00  0.00    +0.000 C 
ATOM     21  O   UNL     1      45.184   8.005  11.553  0.00  0.00    +0.000 OA
ATOM     22  H   UNL     1      47.792   6.226  11.750  0.00  0.00    +0.000 HD
BRANCH  20  23
ATOM     23  C   UNL     1      45.433   5.798  10.771  0.00  0.00    +0.000 A 
ATOM     24  C   UNL     1      45.657   5.559   9.421  0.00  0.00    +0.000 A 
ATOM     25  S   UNL     1      45.072   4.049   8.887  0.00  0.00    +0.000 S 
ATOM     26  C   UNL     1      44.451   3.683  10.428  0.00  0.00    +0.000 A 
ATOM     27  N   UNL     1      43.789   2.516  10.655  0.00  0.00    +0.000 NA
ATOM     28  C   UNL     1      43.343   2.383  11.859  0.00  0.00    +0.000 A 
ATOM     29  N   UNL     1      43.504   3.308  12.859  0.00  0.00    +0.000 N 
ATOM     30  C   UNL     1      44.189   4.487  12.683  0.00  0.00    +0.000 A 
ATOM     31  O   UNL     1      44.348   5.275  13.608  0.00  0.00    +0.000 OA
ATOM     32  C   UNL     1      44.702   4.692  11.341  0.00  0.00    +0.000 A 
ATOM     33  H   UNL     1      43.137   3.139  13.784  0.00  0.00    +0.000 HD
ENDBRANCH  20  23
ENDBRANCH  18  19
ENDBRANCH   4  18
TORSDOF 6
ENDMDL
MODEL 5
REMARK VINA RESULT:    -6.705      4.931      7.631
REMARK INTER + INTRA:         -10.070
REMARK INTER:                  -9.230
REMARK INTRA:                  -0.839
REMARK UNBOUND:                -1.013
REMARK  Name = 
REMARK  6 active torsions:
REMARK  status: ('A' for Active; 'I' for Inactive)
REMARK    1  A    between atoms: C_2  and  C_25
REMARK    2  A    between atoms: N_3  and  C_4
REMARK    3  A    between atoms: C_4  and  C_5
REMARK    4  A    between atoms: C_8  and  C_9
REMARK    5  A    between atoms: C_9  and  N_10
REMARK    6  A    between atoms: C_11  and  C_13
REMARK                            x       y       z     vdW  Elec       q    Type
REMARK                         _______ _______ _______ _____ _____    ______ ____
ROOT
ATOM      1  C   UNL     1      50.370   8.985  11.505  0.00  0.00    +0.000 A 
ATOM      2  C   UNL     1      50.000   7.691  11.895  0.00  0.00    +0.000 A 
ATOM      3  C   UNL     1      48.698   7.425  12.333  0.00  0.00    +0.000 A 
ATOM      4  C   UNL     1      47.736   8.442  12.371  0.00  0.00    +0.000 A 
ATOM      5  C   UNL     1      48.110   9.737  11.986  0.00  0.00    +0.000 A 
ATOM      6  C   UNL     1      49.410  10.004  11.547  0.00  0.00    +0.000 A 
ENDROOT
BRANCH   1   7
ATOM      7  C   UNL     1      51.766   9.266  11.012  0.00  0.00    +0.000 C 
BRANCH   7  10
ATOM      8  O   UNL     1      53.087   9.781   8.639  0.00  0.00    +0.000 OA
ATOM      9  C   UNL     1      52.840   8.606   8.892  0.00  0.00    +0.000 C 
ATOM     10  N   UNL     1      52.188   8.269  10.062  0.00  0.00    +0.000 N 
ATOM     11  H   UNL     1      51.967   7.298  10.242  0.00  0.00    +0.000 HD
BRANCH   9  12
ATOM     12  C   UNL     1      53.190   7.498   8.022  0.00  0.00    +0.000 A 
ATOM     13  S   UNL     1      53.693   5.971   8.651  0.00  0.00    +0.000 S 
ATOM     14  C   UNL     1      53.871   5.378   7.060  0.00  0.00    +0.000 A 
ATOM     15  N   UNL     1      53.589   6.220   6.097  0.00  0.00    +0.000 NA
ATOM     16  C   UNL     1      53.197   7.439   6.637  0.00  0.00    +0.000 A 
ATOM     17 CL   UNL     1      52.780   8.707   5.559  0.00  0.00    +0.000 Cl
ENDBRANCH   9  12
ENDBRANCH   7  10
ENDBRANCH   1   7
BRANCH   4  18
ATOM     18  C   UNL     1      46.334   8.167  12.849  0.00  0.00    +0.000 C 
BRANCH  18  19
ATOM     19  N   UNL     1      45.919   6.827  12.518  0.00  0.00    +0.000 N 
ATOM     20  C   UNL     1      44.825   6.601  11.722  0.00  0.00    +0.000 C 
ATOM     21  O   UNL     1      44.183   7.523  11.224  0.00  0.00    +0.000 OA
ATOM     22  H   UNL     1      46.283   6.073  13.093  0.00  0.00    +0.000 HD
BRANCH  20  23
ATOM     23  C   UNL     1      44.494   5.198  11.438  0.00  0.00    +0.000 A 
ATOM     24  C   UNL     1      43.759   4.466  12.361  0.00  0.00    +0.000 A 
ATOM     25  S   UNL     1      43.415   2.874  11.854  0.00  0.00    +0.000 S 
ATOM     26  C   UNL     1      44.283   3.090  10.407  0.00  0.00    +0.000 A 
ATOM     27  N   UNL     1      44.403   2.076   9.507  0.00  0.00    +0.000 NA
ATOM     28  C   UNL     1      45.115   2.367   8.470  0.00  0.00    +0.000 A 
ATOM     29  N   UNL     1      45.713   3.580   8.247  0.00  0.00    +0.000 N 
ATOM     30  C   UNL     1      45.595   4.641   9.114  0.00  0.00    +0.000 A 
ATOM     31  O   UNL     1      46.110   5.726   8.867  0.00  0.00    +0.000 OA
ATOM     32  C   UNL     1      44.813   4.364  10.304  0.00  0.00    +0.000 A 
ATOM     33  H   UNL     1      46.252   3.746   7.410  0.00  0.00    +0.000 HD
ENDBRANCH  20  23
ENDBRANCH  18  19
ENDBRANCH   4  18
TORSDOF 6
ENDMDL
MODEL 6
REMARK VINA RESULT:    -6.605      3.520      4.791
REMARK INTER + INTRA:          -9.935
REMARK INTER:                  -9.021
REMARK INTRA:                  -0.914
REMARK UNBOUND:                -1.013
REMARK  Name = 
REMARK  6 active torsions:
REMARK  status: ('A' for Active; 'I' for Inactive)
REMARK    1  A    between atoms: C_2  and  C_25
REMARK    2  A    between atoms: N_3  and  C_4
REMARK    3  A    between atoms: C_4  and  C_5
REMARK    4  A    between atoms: C_8  and  C_9
REMARK    5  A    between atoms: C_9  and  N_10
REMARK    6  A    between atoms: C_11  and  C_13
REMARK                            x       y       z     vdW  Elec       q    Type
REMARK                         _______ _______ _______ _____ _____    ______ ____
ROOT
ATOM      1  C   UNL     1      47.832   7.686  13.318  0.00  0.00    +0.000 A 
ATOM      2  C   UNL     1      48.607   6.642  13.843  0.00  0.00    +0.000 A 
ATOM      3  C   UNL     1      49.173   6.747  15.117  0.00  0.00    +0.000 A 
ATOM      4  C   UNL     1      48.961   7.889  15.900  0.00  0.00    +0.000 A 
ATOM      5  C   UNL     1      48.192   8.934  15.372  0.00  0.00    +0.000 A 
ATOM      6  C   UNL     1      47.624   8.830  14.099  0.00  0.00    +0.000 A 
ENDROOT
BRANCH   1   7
ATOM      7  C   UNL     1      47.204   7.563  11.954  0.00  0.00    +0.000 C 
BRANCH   7  10
ATOM      8  O   UNL     1      44.542   7.363  11.236  0.00  0.00    +0.000 OA
ATOM      9  C   UNL     1      45.131   6.314  11.477  0.00  0.00    +0.000 C 
ATOM     10  N   UNL     1      46.464   6.332  11.837  0.00  0.00    +0.000 N 
ATOM     11  H   UNL     1      46.928   5.460  12.060  0.00  0.00    +0.000 HD
BRANCH   9  12
ATOM     12  C   UNL     1      44.511   5.003  11.416  0.00  0.00    +0.000 A 
ATOM     13  S   UNL     1      43.748   4.292  12.792  0.00  0.00    +0.000 S 
ATOM     14  C   UNL     1      43.361   2.914  11.861  0.00  0.00    +0.000 A 
ATOM     15  N   UNL     1      43.752   2.936  10.610  0.00  0.00    +0.000 NA
ATOM     16  C   UNL     1      44.412   4.129  10.344  0.00  0.00    +0.000 A 
ATOM     17 CL   UNL     1      45.022   4.383   8.761  0.00  0.00    +0.000 Cl
ENDBRANCH   9  12
ENDBRANCH   7  10
ENDBRANCH   1   7
BRANCH   4  18
ATOM     18  C   UNL     1      49.575   8.015  17.271  0.00  0.00    +0.000 C 
BRANCH  18  19
ATOM     19  N   UNL     1      50.532   6.966  17.517  0.00  0.00    +0.000 N 
ATOM     20  C   UNL     1      50.259   5.951  18.400  0.00  0.00    +0.000 C 
ATOM     21  O   UNL     1      49.179   5.868  18.979  0.00  0.00    +0.000 OA
ATOM     22  H   UNL     1      51.492   7.139  17.235  0.00  0.00    +0.000 HD
BRANCH  20  23
ATOM     23  C   UNL     1      51.299   4.928  18.569  0.00  0.00    +0.000 A 
ATOM     24  C   UNL     1      52.460   5.237  19.266  0.00  0.00    +0.000 A 
ATOM     25  S   UNL     1      53.537   3.924  19.419  0.00  0.00    +0.000 S 
ATOM     26  C   UNL     1      52.515   2.909  18.513  0.00  0.00    +0.000 A 
ATOM     27  N   UNL     1      52.866   1.622  18.247  0.00  0.00    +0.000 NA
ATOM     28  C   UNL     1      52.014   0.977  17.523  0.00  0.00    +0.000 A 
ATOM     29  N   UNL     1      50.840   1.499  17.045  0.00  0.00    +0.000 N 
ATOM     30  C   UNL     1      50.431   2.785  17.312  0.00  0.00    +0.000 A 
ATOM     31  O   UNL     1      49.356   3.210  16.902  0.00  0.00    +0.000 OA
ATOM     32  C   UNL     1      51.360   3.559  18.114  0.00  0.00    +0.000 A 
ATOM     33  H   UNL     1      50.212   0.938  16.489  0.00  0.00    +0.000 HD
ENDBRANCH  20  23
ENDBRANCH  18  19
ENDBRANCH   4  18
TORSDOF 6
ENDMDL
MODEL 7
REMARK VINA RESULT:    -6.473      6.210      8.609
REMARK INTER + INTRA:          -9.756
REMARK INTER:                  -8.762
REMARK INTRA:                  -0.994
REMARK UNBOUND:                -1.013
REMARK  Name = 
REMARK  6 active torsions:
REMARK  status: ('A' for Active; 'I' for Inactive)
REMARK    1  A    between atoms: C_2  and  C_25
REMARK    2  A    between atoms: N_3  and  C_4
REMARK    3  A    between atoms: C_4  and  C_5
REMARK    4  A    between atoms: C_8  and  C_9
REMARK    5  A    between atoms: C_9  and  N_10
REMARK    6  A    between atoms: C_11  and  C_13
REMARK                            x       y       z     vdW  Elec       q    Type
REMARK                         _______ _______ _______ _____ _____    ______ ____
ROOT
ATOM      1  C   UNL     1      48.686   3.426  17.092  0.00  0.00    +0.000 A 
ATOM      2  C   UNL     1      49.247   2.177  16.789  0.00  0.00    +0.000 A 
ATOM      3  C   UNL     1      50.582   1.902  17.101  0.00  0.00    +0.000 A 
ATOM      4  C   UNL     1      51.378   2.862  17.739  0.00  0.00    +0.000 A 
ATOM      5  C   UNL     1      50.818   4.112  18.036  0.00  0.00    +0.000 A 
ATOM      6  C   UNL     1      49.483   4.388  17.726  0.00  0.00    +0.000 A 
ENDROOT
BRANCH   1   7
ATOM      7  C   UNL     1      47.241   3.713  16.776  0.00  0.00    +0.000 C 
BRANCH   7  10
ATOM      8  O   UNL     1      47.113   3.208  14.061  0.00  0.00    +0.000 OA
ATOM      9  C   UNL     1      47.075   4.385  14.408  0.00  0.00    +0.000 C 
ATOM     10  N   UNL     1      47.128   4.716  15.747  0.00  0.00    +0.000 N 
ATOM     11  H   UNL     1      47.123   5.692  16.016  0.00  0.00    +0.000 HD
BRANCH   9  12
ATOM     12  C   UNL     1      46.978   5.501  13.484  0.00  0.00    +0.000 A 
ATOM     13  S   UNL     1      48.282   6.609  13.256  0.00  0.00    +0.000 S 
ATOM     14  C   UNL     1      47.344   7.473  12.121  0.00  0.00    +0.000 A 
ATOM     15  N   UNL     1      46.140   7.007  11.896  0.00  0.00    +0.000 NA
ATOM     16  C   UNL     1      45.919   5.877  12.672  0.00  0.00    +0.000 A 
ATOM     17 CL   UNL     1      44.399   5.092  12.548  0.00  0.00    +0.000 Cl
ENDBRANCH   9  12
ENDBRANCH   7  10
ENDBRANCH   1   7
BRANCH   4  18
ATOM     18  C   UNL     1      52.820   2.577  18.071  0.00  0.00    +0.000 C 
BRANCH  18  19
ATOM     19  N   UNL     1      53.151   1.195  17.836  0.00  0.00    +0.000 N 
ATOM     20  C   UNL     1      54.104   0.557  18.590  0.00  0.00    +0.000 C 
ATOM     21  O   UNL     1      54.679   1.118  19.519  0.00  0.00    +0.000 OA
ATOM     22  H   UNL     1      52.865   0.795  16.947  0.00  0.00    +0.000 HD
BRANCH  20  23
ATOM     23  C   UNL     1      54.358  -0.855  18.273  0.00  0.00    +0.000 A 
ATOM     24  C   UNL     1      54.101  -1.829  19.229  0.00  0.00    +0.000 A 
ATOM     25  S   UNL     1      54.396  -3.418  18.683  0.00  0.00    +0.000 S 
ATOM     26  C   UNL     1      54.928  -2.857  17.168  0.00  0.00    +0.000 A 
ATOM     27  N   UNL     1      55.358  -3.726  16.213  0.00  0.00    +0.000 NA
ATOM     28  C   UNL     1      55.765  -3.162  15.125  0.00  0.00    +0.000 A 
ATOM     29  N   UNL     1      55.775  -1.809  14.902  0.00  0.00    +0.000 N 
ATOM     30  C   UNL     1      55.324  -0.897  15.826  0.00  0.00    +0.000 A 
ATOM     31  O   UNL     1      55.310   0.305  15.581  0.00  0.00    +0.000 OA
ATOM     32  C   UNL     1      54.866  -1.478  17.074  0.00  0.00    +0.000 A 
ATOM     33  H   UNL     1      56.099  -1.432  14.024  0.00  0.00    +0.000 HD
ENDBRANCH  20  23
ENDBRANCH  18  19
ENDBRANCH   4  18
TORSDOF 6
ENDMDL
MODEL 8
REMARK VINA RESULT:    -6.001      5.514      7.745
REMARK INTER + INTRA:          -9.118
REMARK INTER:                  -8.376
REMARK INTRA:                  -0.742
REMARK UNBOUND:                -1.013
REMARK  Name = 
REMARK  6 active torsions:
REMARK  status: ('A' for Active; 'I' for Inactive)
REMARK    1  A    between atoms: C_2  and  C_25
REMARK    2  A    between atoms: N_3  and  C_4
REMARK    3  A    between atoms: C_4  and  C_5
REMARK    4  A    between atoms: C_8  and  C_9
REMARK    5  A    between atoms: C_9  and  N_10
REMARK    6  A    between atoms: C_11  and  C_13
REMARK                            x       y       z     vdW  Elec       q    Type
REMARK                         _______ _______ _______ _____ _____    ______ ____
ROOT
ATOM      1  C   UNL     1      51.759   9.341  10.631  0.00  0.00    +0.000 A 
ATOM      2  C   UNL     1      51.518   8.017  11.022  0.00  0.00    +0.000 A 
ATOM      3  C   UNL     1      50.294   7.656  11.596  0.00  0.00    +0.000 A 
ATOM      4  C   UNL     1      49.281   8.607  11.771  0.00  0.00    +0.000 A 
ATOM      5  C   UNL     1      49.525   9.931  11.384  0.00  0.00    +0.000 A 
ATOM      6  C   UNL     1      50.747  10.293  10.810  0.00  0.00    +0.000 A 
ENDROOT
BRANCH   1   7
ATOM      7  C   UNL     1      53.069   9.724   9.992  0.00  0.00    +0.000 C 
BRANCH   7  10
ATOM      8  O   UNL     1      55.200   8.403   8.829  0.00  0.00    +0.000 OA
ATOM      9  C   UNL     1      54.230   8.629   8.111  0.00  0.00    +0.000 C 
ATOM     10  N   UNL     1      53.125   9.280   8.623  0.00  0.00    +0.000 N 
ATOM     11  H   UNL     1      52.345   9.484   8.011  0.00  0.00    +0.000 HD
BRANCH   9  12
ATOM     12  C   UNL     1      54.152   8.255   6.711  0.00  0.00    +0.000 A 
ATOM     13  S   UNL     1      54.290   9.424   5.448  0.00  0.00    +0.000 S 
ATOM     14  C   UNL     1      54.093   8.188   4.287  0.00  0.00    +0.000 A 
ATOM     15  N   UNL     1      53.932   6.976   4.759  0.00  0.00    +0.000 NA
ATOM     16  C   UNL     1      53.964   7.003   6.147  0.00  0.00    +0.000 A 
ATOM     17 CL   UNL     1      53.768   5.523   6.992  0.00  0.00    +0.000 Cl
ENDBRANCH   9  12
ENDBRANCH   7  10
ENDBRANCH   1   7
BRANCH   4  18
ATOM     18  C   UNL     1      47.962   8.229  12.396  0.00  0.00    +0.000 C 
BRANCH  18  19
ATOM     19  N   UNL     1      47.383   7.079  11.747  0.00  0.00    +0.000 N 
ATOM     20  C   UNL     1      46.034   7.007  11.507  0.00  0.00    +0.000 C 
ATOM     21  O   UNL     1      45.274   7.930  11.790  0.00  0.00    +0.000 OA
ATOM     22  H   UNL     1      47.942   6.232  11.719  0.00  0.00    +0.000 HD
BRANCH  20  23
ATOM     23  C   UNL     1      45.549   5.797  10.831  0.00  0.00    +0.000 A 
ATOM     24  C   UNL     1      45.812   5.613   9.480  0.00  0.00    +0.000 A 
ATOM     25  S   UNL     1      45.228   4.133   8.865  0.00  0.00    +0.000 S 
ATOM     26  C   UNL     1      44.557   3.709  10.369  0.00  0.00    +0.000 A 
ATOM     27  N   UNL     1      43.878   2.541  10.527  0.00  0.00    +0.000 NA
ATOM     28  C   UNL     1      43.394   2.363  11.710  0.00  0.00    +0.000 A 
ATOM     29  N   UNL     1      43.532   3.242  12.753  0.00  0.00    +0.000 N 
ATOM     30  C   UNL     1      44.234   4.420  12.647  0.00  0.00    +0.000 A 
ATOM     31  O   UNL     1      44.373   5.167  13.610  0.00  0.00    +0.000 OA
ATOM     32  C   UNL     1      44.790   4.676  11.332  0.00  0.00    +0.000 A 
ATOM     33  H   UNL     1      43.135   3.039  13.658  0.00  0.00    +0.000 HD
ENDBRANCH  20  23
ENDBRANCH  18  19
ENDBRANCH   4  18
TORSDOF 6
ENDMDL
MODEL 9
REMARK VINA RESULT:    -5.742      5.301      7.322
REMARK INTER + INTRA:          -8.769
REMARK INTER:                  -7.960
REMARK INTRA:                  -0.809
REMARK UNBOUND:                -1.013
REMARK  Name = 
REMARK  6 active torsions:
REMARK  status: ('A' for Active; 'I' for Inactive)
REMARK    1  A    between atoms: C_2  and  C_25
REMARK    2  A    between atoms: N_3  and  C_4
REMARK    3  A    between atoms: C_4  and  C_5
REMARK    4  A    between atoms: C_8  and  C_9
REMARK    5  A    between atoms: C_9  and  N_10
REMARK    6  A    between atoms: C_11  and  C_13
REMARK                            x       y       z     vdW  Elec       q    Type
REMARK                         _______ _______ _______ _____ _____    ______ ____
ROOT
ATOM      1  C   UNL     1      52.359   8.454  11.368  0.00  0.00    +0.000 A 
ATOM      2  C   UNL     1      51.198   7.809  10.920  0.00  0.00    +0.000 A 
ATOM      3  C   UNL     1      50.125   7.592  11.790  0.00  0.00    +0.000 A 
ATOM      4  C   UNL     1      50.181   8.033  13.118  0.00  0.00    +0.000 A 
ATOM      5  C   UNL     1      51.344   8.673  13.565  0.00  0.00    +0.000 A 
ATOM      6  C   UNL     1      52.418   8.892  12.697  0.00  0.00    +0.000 A 
ENDROOT
BRANCH   1   7
ATOM      7  C   UNL     1      53.507   8.708  10.425  0.00  0.00    +0.000 C 
BRANCH   7  10
ATOM      8  O   UNL     1      55.601   7.136   9.539  0.00  0.00    +0.000 OA
ATOM      9  C   UNL     1      54.549   7.061   8.912  0.00  0.00    +0.000 C 
ATOM     10  N   UNL     1      53.455   7.812   9.298  0.00  0.00    +0.000 N 
ATOM     11  H   UNL     1      52.604   7.759   8.754  0.00  0.00    +0.000 HD
BRANCH   9  12
ATOM     12  C   UNL     1      54.356   6.215   7.749  0.00  0.00    +0.000 A 
ATOM     13  S   UNL     1      54.846   4.559   7.738  0.00  0.00    +0.000 S 
ATOM     14  C   UNL     1      54.280   4.407   6.134  0.00  0.00    +0.000 A 
ATOM     15  N   UNL     1      53.757   5.485   5.604  0.00  0.00    +0.000 NA
ATOM     16  C   UNL     1      53.796   6.527   6.521  0.00  0.00    +0.000 A 
ATOM     17 CL   UNL     1      53.165   8.050   6.044  0.00  0.00    +0.000 Cl
ENDBRANCH   9  12
ENDBRANCH   7  10
ENDBRANCH   1   7
BRANCH   4  18
ATOM     18  C   UNL     1      49.032   7.796  14.064  0.00  0.00    +0.000 C 
BRANCH  18  19
ATOM     19  N   UNL     1      47.982   7.034  13.436  0.00  0.00    +0.000 N 
ATOM     20  C   UNL     1      47.541   5.854  13.980  0.00  0.00    +0.000 C 
ATOM     21  O   UNL     1      47.986   5.423  15.041  0.00  0.00    +0.000 OA
ATOM     22  H   UNL     1      47.772   7.247  12.465  0.00  0.00    +0.000 HD
BRANCH  20  23
ATOM     23  C   UNL     1      46.460   5.163  13.265  0.00  0.00    +0.000 A 
ATOM     24  C   UNL     1      46.504   3.782  13.124  0.00  0.00    +0.000 A 
ATOM     25  S   UNL     1      45.148   3.133  12.320  0.00  0.00    +0.000 S 
ATOM     26  C   UNL     1      44.479   4.679  12.084  0.00  0.00    +0.000 A 
ATOM     27  N   UNL     1      43.301   4.837  11.422  0.00  0.00    +0.000 NA
ATOM     28  C   UNL     1      42.927   6.065  11.286  0.00  0.00    +0.000 A 
ATOM     29  N   UNL     1      43.621   7.150  11.757  0.00  0.00    +0.000 N 
ATOM     30  C   UNL     1      44.800   7.036  12.456  0.00  0.00    +0.000 A 
ATOM     31  O   UNL     1      45.375   8.025  12.898  0.00  0.00    +0.000 OA
ATOM     32  C   UNL     1      45.271   5.675  12.626  0.00  0.00    +0.000 A 
ATOM     33  H   UNL     1      43.269   8.086  11.624  0.00  0.00    +0.000 HD
ENDBRANCH  20  23
ENDBRANCH  18  19
ENDBRANCH   4  18
TORSDOF 6
ENDMDL
