MODEL 1
REMARK VINA RESULT:    -8.579      0.000      0.000
REMARK INTER + INTRA:         -14.214
REMARK INTER:                 -13.343
REMARK INTRA:                  -0.871
REMARK UNBOUND:                -0.871
REMARK  Name = 
REMARK  10 active torsions:
REMARK  status: ('A' for Active; 'I' for Inactive)
REMARK    1  A    between atoms: C_2  and  C_3
REMARK    2  A    between atoms: C_3  and  N_4
REMARK    3  A    between atoms: C_5  and  C_7
REMARK    4  A    between atoms: N_17  and  CA_18
REMARK    5  A    between atoms: CA_18  and  C_19
REMARK    6  A    between atoms: CA_18  and  C_21
REMARK    7  A    between atoms: C_19  and  O_20
REMARK    8  A    between atoms: C_24  and  C_25
REMARK    9  A    between atoms: C_25  and  N_26
REMARK   10  A    between atoms: C_27  and  C_29
REMARK                            x       y       z     vdW  Elec       q    Type
REMARK                         _______ _______ _______ _____ _____    ______ ____
ROOT
ATOM      1  CA  UNL     1      46.614   7.985  13.275  0.00  0.00    +0.000 C 
ENDROOT
BRANCH   1   2
ATOM      2  C   UNL     1      45.867   6.783  12.708  0.00  0.00    +0.000 A 
ATOM      3  C   UNL     1      45.911   5.545  13.368  0.00  0.00    +0.000 A 
ATOM      4  C   UNL     1      45.266   4.422  12.831  0.00  0.00    +0.000 A 
ATOM      5  C   UNL     1      44.573   4.506  11.618  0.00  0.00    +0.000 A 
ATOM      6  C   UNL     1      44.490   5.749  10.980  0.00  0.00    +0.000 A 
ATOM      7  C   UNL     1      45.133   6.868  11.514  0.00  0.00    +0.000 A 
BRANCH   5   8
ATOM      8  C   UNL     1      43.953   3.289  10.986  0.00  0.00    +0.000 C 
BRANCH   8   9
ATOM      9  N   UNL     1      44.863   2.563  10.147  0.00  0.00    +0.000 N 
ATOM     10  C   UNL     1      45.031   2.900   8.821  0.00  0.00    +0.000 C 
ATOM     11  O   UNL     1      44.421   3.816   8.276  0.00  0.00    +0.000 OA
ATOM     12  H   UNL     1      45.452   1.817  10.509  0.00  0.00    +0.000 HD
BRANCH  10  13
ATOM     13  C   UNL     1      46.009   2.061   8.109  0.00  0.00    +0.000 A 
ATOM     14  C   UNL     1      46.975   2.499   7.164  0.00  0.00    +0.000 A 
ATOM     15  C   UNL     1      47.638   1.364   6.768  0.00  0.00    +0.000 A 
ATOM     16  N   UNL     1      47.065   0.338   7.457  0.00  0.00    +0.000 N 
ATOM     17  N   UNL     1      46.083   0.725   8.291  0.00  0.00    +0.000 NA
ATOM     18  H   UNL     1      47.294  -0.651   7.411  0.00  0.00    +0.000 HD
ENDBRANCH  10  13
ENDBRANCH   8   9
ENDBRANCH   5   8
ENDBRANCH   1   2
BRANCH   1  21
ATOM     19  O   UNL     1      50.186   7.430  13.665  0.00  0.00    +0.000 OA
ATOM     20  C   UNL     1      48.998   7.383  13.996  0.00  0.00    +0.000 C 
ATOM     21  N   UNL     1      48.058   7.798  13.099  0.00  0.00    +0.000 N 
ATOM     22  H   UNL     1      48.455   8.050  12.203  0.00  0.00    +0.000 HD
BRANCH  20  23
ATOM     23  C   UNL     1      48.589   6.940  15.396  0.00  0.00    +0.000 C 
BRANCH  23  24
ATOM     24  N   UNL     1      49.683   6.269  16.062  0.00  0.00    +0.000 N 
ATOM     25  C   UNL     1      49.477   5.408  17.108  0.00  0.00    +0.000 C 
ATOM     26  O   UNL     1      48.353   5.210  17.561  0.00  0.00    +0.000 OA
ATOM     27  H   UNL     1      50.629   6.513  15.774  0.00  0.00    +0.000 HD
BRANCH  25  28
ATOM     28  C   UNL     1      50.649   4.720  17.663  0.00  0.00    +0.000 A 
ATOM     29  C   UNL     1      51.602   5.457  18.353  0.00  0.00    +0.000 A 
ATOM     30  S   UNL     1      52.889   4.517  18.957  0.00  0.00    +0.000 S 
ATOM     31  C   UNL     1      52.244   3.099  18.274  0.00  0.00    +0.000 A 
ATOM     32  N   UNL     1      52.887   1.909  18.404  0.00  0.00    +0.000 NA
ATOM     33  C   UNL     1      52.310   0.923  17.802  0.00  0.00    +0.000 A 
ATOM     34  N   UNL     1      51.144   1.019  17.086  0.00  0.00    +0.000 N 
ATOM     35  C   UNL     1      50.442   2.194  16.953  0.00  0.00    +0.000 A 
ATOM     36  O   UNL     1      49.378   2.247  16.345  0.00  0.00    +0.000 OA
ATOM     37  C   UNL     1      51.058   3.337  17.601  0.00  0.00    +0.000 A 
ATOM     38  H   UNL     1      50.744   0.205  16.642  0.00  0.00    +0.000 HD
ENDBRANCH  25  28
ENDBRANCH  23  24
ENDBRANCH  20  23
ENDBRANCH   1  21
BRANCH   1  39
ATOM     39  C   UNL     1      46.129   9.321  12.656  0.00  0.00    +0.000 C 
BRANCH  39  40
ATOM     40  O   UNL     1      44.791   9.662  13.030  0.00  0.00    +0.000 OA
ATOM     41  H   UNL     1      44.848  10.514  13.499  0.00  0.00    +0.000 HD
ENDBRANCH  39  40
ENDBRANCH   1  39
TORSDOF 10
ENDMDL
MODEL 2
REMARK VINA RESULT:    -8.406      2.207      2.387
REMARK INTER + INTRA:         -13.946
REMARK INTER:                 -12.697
REMARK INTRA:                  -1.249
REMARK UNBOUND:                -0.871
REMARK  Name = 
REMARK  10 active torsions:
REMARK  status: ('A' for Active; 'I' for Inactive)
REMARK    1  A    between atoms: C_2  and  C_3
REMARK    2  A    between atoms: C_3  and  N_4
REMARK    3  A    between atoms: C_5  and  C_7
REMARK    4  A    between atoms: N_17  and  CA_18
REMARK    5  A    between atoms: CA_18  and  C_19
REMARK    6  A    between atoms: CA_18  and  C_21
REMARK    7  A    between atoms: C_19  and  O_20
REMARK    8  A    between atoms: C_24  and  C_25
REMARK    9  A    between atoms: C_25  and  N_26
REMARK   10  A    between atoms: C_27  and  C_29
REMARK                            x       y       z     vdW  Elec       q    Type
REMARK                         _______ _______ _______ _____ _____    ______ ____
ROOT
ATOM      1  CA  UNL     1      45.872   8.468  12.698  0.00  0.00    +0.000 C 
ENDROOT
BRANCH   1   2
ATOM      2  C   UNL     1      45.281   7.117  12.313  0.00  0.00    +0.000 A 
ATOM      3  C   UNL     1      45.848   5.929  12.800  0.00  0.00    +0.000 A 
ATOM      4  C   UNL     1      45.340   4.680  12.416  0.00  0.00    +0.000 A 
ATOM      5  C   UNL     1      44.263   4.588  11.526  0.00  0.00    +0.000 A 
ATOM      6  C   UNL     1      43.667   5.770  11.073  0.00  0.00    +0.000 A 
ATOM      7  C   UNL     1      44.173   7.015  11.456  0.00  0.00    +0.000 A 
BRANCH   5   8
ATOM      8  C   UNL     1      43.767   3.254  11.036  0.00  0.00    +0.000 C 
BRANCH   8   9
ATOM      9  N   UNL     1      44.712   2.575  10.196  0.00  0.00    +0.000 N 
ATOM     10  C   UNL     1      44.922   2.975   8.894  0.00  0.00    +0.000 C 
ATOM     11  O   UNL     1      44.324   3.912   8.371  0.00  0.00    +0.000 OA
ATOM     12  H   UNL     1      45.294   1.817  10.543  0.00  0.00    +0.000 HD
BRANCH  10  13
ATOM     13  C   UNL     1      45.931   2.178   8.178  0.00  0.00    +0.000 A 
ATOM     14  C   UNL     1      46.900   2.661   7.258  0.00  0.00    +0.000 A 
ATOM     15  C   UNL     1      47.597   1.553   6.847  0.00  0.00    +0.000 A 
ATOM     16  N   UNL     1      47.040   0.497   7.503  0.00  0.00    +0.000 N 
ATOM     17  N   UNL     1      46.036   0.840   8.330  0.00  0.00    +0.000 NA
ATOM     18  H   UNL     1      47.294  -0.485   7.437  0.00  0.00    +0.000 HD
ENDBRANCH  10  13
ENDBRANCH   8   9
ENDBRANCH   5   8
ENDBRANCH   1   2
BRANCH   1  21
ATOM     19  O   UNL     1      49.477   8.801  13.037  0.00  0.00    +0.000 OA
ATOM     20  C   UNL     1      48.307   8.787  13.430  0.00  0.00    +0.000 C 
ATOM     21  N   UNL     1      47.331   8.431  12.547  0.00  0.00    +0.000 N 
ATOM     22  H   UNL     1      47.699   8.146  11.648  0.00  0.00    +0.000 HD
BRANCH  20  23
ATOM     23  C   UNL     1      47.948   9.224  14.845  0.00  0.00    +0.000 C 
BRANCH  23  24
ATOM     24  N   UNL     1      47.969   8.098  15.751  0.00  0.00    +0.000 N 
ATOM     25  C   UNL     1      49.062   7.812  16.528  0.00  0.00    +0.000 C 
ATOM     26  O   UNL     1      50.094   8.473  16.448  0.00  0.00    +0.000 OA
ATOM     27  H   UNL     1      47.165   7.474  15.743  0.00  0.00    +0.000 HD
BRANCH  25  28
ATOM     28  C   UNL     1      48.951   6.693  17.471  0.00  0.00    +0.000 A 
ATOM     29  C   UNL     1      49.431   6.848  18.765  0.00  0.00    +0.000 A 
ATOM     30  S   UNL     1      49.209   5.473  19.746  0.00  0.00    +0.000 S 
ATOM     31  C   UNL     1      48.510   4.603  18.463  0.00  0.00    +0.000 A 
ATOM     32  N   UNL     1      48.106   3.316  18.633  0.00  0.00    +0.000 NA
ATOM     33  C   UNL     1      47.632   2.762  17.567  0.00  0.00    +0.000 A 
ATOM     34  N   UNL     1      47.519   3.382  16.349  0.00  0.00    +0.000 N 
ATOM     35  C   UNL     1      47.884   4.690  16.137  0.00  0.00    +0.000 A 
ATOM     36  O   UNL     1      47.733   5.236  15.049  0.00  0.00    +0.000 OA
ATOM     37  C   UNL     1      48.437   5.354  17.303  0.00  0.00    +0.000 A 
ATOM     38  H   UNL     1      47.134   2.889  15.555  0.00  0.00    +0.000 HD
ENDBRANCH  25  28
ENDBRANCH  23  24
ENDBRANCH  20  23
ENDBRANCH   1  21
BRANCH   1  39
ATOM     39  C   UNL     1      45.241   9.634  11.894  0.00  0.00    +0.000 C 
BRANCH  39  40
ATOM     40  O   UNL     1      44.184  10.293  12.595  0.00  0.00    +0.000 OA
ATOM     41  H   UNL     1      44.418  11.239  12.616  0.00  0.00    +0.000 HD
ENDBRANCH  39  40
ENDBRANCH   1  39
TORSDOF 10
ENDMDL
MODEL 3
REMARK VINA RESULT:    -7.855      2.794      8.674
REMARK INTER + INTRA:         -13.089
REMARK INTER:                 -12.000
REMARK INTRA:                  -1.088
REMARK UNBOUND:                -0.871
REMARK  Name = 
REMARK  10 active torsions:
REMARK  status: ('A' for Active; 'I' for Inactive)
REMARK    1  A    between atoms: C_2  and  C_3
REMARK    2  A    between atoms: C_3  and  N_4
REMARK    3  A    between atoms: C_5  and  C_7
REMARK    4  A    between atoms: N_17  and  CA_18
REMARK    5  A    between atoms: CA_18  and  C_19
REMARK    6  A    between atoms: CA_18  and  C_21
REMARK    7  A    between atoms: C_19  and  O_20
REMARK    8  A    between atoms: C_24  and  C_25
REMARK    9  A    between atoms: C_25  and  N_26
REMARK   10  A    between atoms: C_27  and  C_29
REMARK                            x       y       z     vdW  Elec       q    Type
REMARK                         _______ _______ _______ _____ _____    ______ ____
ROOT
ATOM      1  CA  UNL     1      48.584   8.304  14.563  0.00  0.00    +0.000 C 
ENDROOT
BRANCH   1   2
ATOM      2  C   UNL     1      48.581   7.020  15.385  0.00  0.00    +0.000 A 
ATOM      3  C   UNL     1      47.854   5.901  14.952  0.00  0.00    +0.000 A 
ATOM      4  C   UNL     1      47.807   4.731  15.723  0.00  0.00    +0.000 A 
ATOM      5  C   UNL     1      48.475   4.656  16.951  0.00  0.00    +0.000 A 
ATOM      6  C   UNL     1      49.238   5.754  17.365  0.00  0.00    +0.000 A 
ATOM      7  C   UNL     1      49.284   6.919  16.597  0.00  0.00    +0.000 A 
BRANCH   5   8
ATOM      8  C   UNL     1      48.360   3.440  17.830  0.00  0.00    +0.000 C 
BRANCH   8   9
ATOM      9  N   UNL     1      49.626   2.828  18.115  0.00  0.00    +0.000 N 
ATOM     10  C   UNL     1      50.247   2.013  17.193  0.00  0.00    +0.000 C 
ATOM     11  O   UNL     1      49.766   1.752  16.093  0.00  0.00    +0.000 OA
ATOM     12  H   UNL     1      50.134   3.015  18.976  0.00  0.00    +0.000 HD
BRANCH  10  13
ATOM     13  C   UNL     1      51.542   1.477  17.642  0.00  0.00    +0.000 A 
ATOM     14  C   UNL     1      52.770   2.184  17.728  0.00  0.00    +0.000 A 
ATOM     15  C   UNL     1      53.688   1.269  18.179  0.00  0.00    +0.000 A 
ATOM     16  N   UNL     1      53.004   0.100  18.333  0.00  0.00    +0.000 N 
ATOM     17  N   UNL     1      51.697   0.193  18.030  0.00  0.00    +0.000 NA
ATOM     18  H   UNL     1      53.363  -0.798  18.642  0.00  0.00    +0.000 HD
ENDBRANCH  10  13
ENDBRANCH   8   9
ENDBRANCH   5   8
ENDBRANCH   1   2
BRANCH   1  21
ATOM     19  O   UNL     1      45.342   9.261  13.223  0.00  0.00    +0.000 OA
ATOM     20  C   UNL     1      46.437   8.693  13.218  0.00  0.00    +0.000 C 
ATOM     21  N   UNL     1      47.205   8.753  14.343  0.00  0.00    +0.000 N 
ATOM     22  H   UNL     1      46.743   9.226  15.109  0.00  0.00    +0.000 HD
BRANCH  20  23
ATOM     23  C   UNL     1      46.956   7.998  11.965  0.00  0.00    +0.000 C 
BRANCH  23  24
ATOM     24  N   UNL     1      46.368   6.684  11.826  0.00  0.00    +0.000 N 
ATOM     25  C   UNL     1      45.126   6.500  11.278  0.00  0.00    +0.000 C 
ATOM     26  O   UNL     1      44.433   7.453  10.929  0.00  0.00    +0.000 OA
ATOM     27  H   UNL     1      46.882   5.897  12.216  0.00  0.00    +0.000 HD
BRANCH  25  28
ATOM     28  C   UNL     1      44.655   5.120  11.111  0.00  0.00    +0.000 A 
ATOM     29  C   UNL     1      43.912   4.531  12.126  0.00  0.00    +0.000 A 
ATOM     30  S   UNL     1      43.418   2.938  11.776  0.00  0.00    +0.000 S 
ATOM     31  C   UNL     1      44.222   2.961  10.277  0.00  0.00    +0.000 A 
ATOM     32  N   UNL     1      44.213   1.870   9.466  0.00  0.00    +0.000 NA
ATOM     33  C   UNL     1      44.896   2.009   8.379  0.00  0.00    +0.000 A 
ATOM     34  N   UNL     1      45.583   3.143   8.028  0.00  0.00    +0.000 N 
ATOM     35  C   UNL     1      45.595   4.280   8.800  0.00  0.00    +0.000 A 
ATOM     36  O   UNL     1      46.181   5.298   8.445  0.00  0.00    +0.000 OA
ATOM     37  C   UNL     1      44.852   4.170  10.041  0.00  0.00    +0.000 A 
ATOM     38  H   UNL     1      46.095   3.185   7.159  0.00  0.00    +0.000 HD
ENDBRANCH  25  28
ENDBRANCH  23  24
ENDBRANCH  20  23
ENDBRANCH   1  21
BRANCH   1  39
ATOM     39  C   UNL     1      49.454   9.412  15.210  0.00  0.00    +0.000 C 
BRANCH  39  40
ATOM     40  O   UNL     1      48.682  10.476  15.772  0.00  0.00    +0.000 OA
ATOM     41  H   UNL     1      47.783  10.384  15.407  0.00  0.00    +0.000 HD
ENDBRANCH  39  40
ENDBRANCH   1  39
TORSDOF 10
ENDMDL
MODEL 4
REMARK VINA RESULT:    -7.610      3.461      9.906
REMARK INTER + INTRA:         -12.708
REMARK INTER:                 -11.730
REMARK INTRA:                  -0.978
REMARK UNBOUND:                -0.871
REMARK  Name = 
REMARK  10 active torsions:
REMARK  status: ('A' for Active; 'I' for Inactive)
REMARK    1  A    between atoms: C_2  and  C_3
REMARK    2  A    between atoms: C_3  and  N_4
REMARK    3  A    between atoms: C_5  and  C_7
REMARK    4  A    between atoms: N_17  and  CA_18
REMARK    5  A    between atoms: CA_18  and  C_19
REMARK    6  A    between atoms: CA_18  and  C_21
REMARK    7  A    between atoms: C_19  and  O_20
REMARK    8  A    between atoms: C_24  and  C_25
REMARK    9  A    between atoms: C_25  and  N_26
REMARK   10  A    between atoms: C_27  and  C_29
REMARK                            x       y       z     vdW  Elec       q    Type
REMARK                         _______ _______ _______ _____ _____    ______ ____
ROOT
ATOM      1  CA  UNL     1      48.801   5.366  19.194  0.00  0.00    +0.000 C 
ENDROOT
BRANCH   1   2
ATOM      2  C   UNL     1      50.224   4.824  19.271  0.00  0.00    +0.000 A 
ATOM      3  C   UNL     1      50.781   4.136  18.183  0.00  0.00    +0.000 A 
ATOM      4  C   UNL     1      52.072   3.593  18.260  0.00  0.00    +0.000 A 
ATOM      5  C   UNL     1      52.830   3.714  19.430  0.00  0.00    +0.000 A 
ATOM      6  C   UNL     1      52.295   4.437  20.502  0.00  0.00    +0.000 A 
ATOM      7  C   UNL     1      51.009   4.978  20.425  0.00  0.00    +0.000 A 
BRANCH   5   8
ATOM      8  C   UNL     1      54.179   3.059  19.557  0.00  0.00    +0.000 C 
BRANCH   8   9
ATOM      9  N   UNL     1      54.132   1.634  19.395  0.00  0.00    +0.000 N 
ATOM     10  C   UNL     1      54.596   1.033  18.245  0.00  0.00    +0.000 C 
ATOM     11  O   UNL     1      55.061   1.661  17.297  0.00  0.00    +0.000 OA
ATOM     12  H   UNL     1      53.810   1.017  20.137  0.00  0.00    +0.000 HD
BRANCH  10  13
ATOM     13  C   UNL     1      54.484  -0.434  18.248  0.00  0.00    +0.000 A 
ATOM     14  C   UNL     1      55.222  -1.345  17.446  0.00  0.00    +0.000 A 
ATOM     15  C   UNL     1      54.762  -2.591  17.790  0.00  0.00    +0.000 A 
ATOM     16  N   UNL     1      53.805  -2.386  18.739  0.00  0.00    +0.000 N 
ATOM     17  N   UNL     1      53.620  -1.091  19.052  0.00  0.00    +0.000 NA
ATOM     18  H   UNL     1      53.240  -3.082  19.217  0.00  0.00    +0.000 HD
ENDBRANCH  10  13
ENDBRANCH   8   9
ENDBRANCH   5   8
ENDBRANCH   1   2
BRANCH   1  21
ATOM     19  O   UNL     1      46.622   3.232  17.215  0.00  0.00    +0.000 OA
ATOM     20  C   UNL     1      47.496   4.083  17.400  0.00  0.00    +0.000 C 
ATOM     21  N   UNL     1      47.903   4.327  18.679  0.00  0.00    +0.000 N 
ATOM     22  H   UNL     1      47.466   3.713  19.354  0.00  0.00    +0.000 HD
BRANCH  20  23
ATOM     23  C   UNL     1      48.061   4.895  16.241  0.00  0.00    +0.000 C 
BRANCH  23  24
ATOM     24  N   UNL     1      47.048   5.125  15.234  0.00  0.00    +0.000 N 
ATOM     25  C   UNL     1      47.329   5.766  14.056  0.00  0.00    +0.000 C 
ATOM     26  O   UNL     1      48.446   6.223  13.827  0.00  0.00    +0.000 OA
ATOM     27  H   UNL     1      46.093   4.855  15.459  0.00  0.00    +0.000 HD
BRANCH  25  28
ATOM     28  C   UNL     1      46.249   5.878  13.069  0.00  0.00    +0.000 A 
ATOM     29  C   UNL     1      45.817   7.139  12.679  0.00  0.00    +0.000 A 
ATOM     30  S   UNL     1      44.576   7.107  11.512  0.00  0.00    +0.000 S 
ATOM     31  C   UNL     1      44.536   5.406  11.524  0.00  0.00    +0.000 A 
ATOM     32  N   UNL     1      43.655   4.726  10.744  0.00  0.00    +0.000 NA
ATOM     33  C   UNL     1      43.704   3.442  10.881  0.00  0.00    +0.000 A 
ATOM     34  N   UNL     1      44.559   2.779  11.724  0.00  0.00    +0.000 N 
ATOM     35  C   UNL     1      45.487   3.422  12.507  0.00  0.00    +0.000 A 
ATOM     36  O   UNL     1      46.271   2.805  13.221  0.00  0.00    +0.000 OA
ATOM     37  C   UNL     1      45.463   4.869  12.399  0.00  0.00    +0.000 A 
ATOM     38  H   UNL     1      44.546   1.770  11.780  0.00  0.00    +0.000 HD
ENDBRANCH  25  28
ENDBRANCH  23  24
ENDBRANCH  20  23
ENDBRANCH   1  21
BRANCH   1  39
ATOM     39  C   UNL     1      48.313   5.925  20.555  0.00  0.00    +0.000 C 
BRANCH  39  40
ATOM     40  O   UNL     1      46.966   5.557  20.863  0.00  0.00    +0.000 OA
ATOM     41  H   UNL     1      46.404   6.001  20.202  0.00  0.00    +0.000 HD
ENDBRANCH  39  40
ENDBRANCH   1  39
TORSDOF 10
ENDMDL
MODEL 5
REMARK VINA RESULT:    -7.605      3.627     10.201
REMARK INTER + INTRA:         -12.700
REMARK INTER:                 -11.417
REMARK INTRA:                  -1.283
REMARK UNBOUND:                -0.871
REMARK  Name = 
REMARK  10 active torsions:
REMARK  status: ('A' for Active; 'I' for Inactive)
REMARK    1  A    between atoms: C_2  and  C_3
REMARK    2  A    between atoms: C_3  and  N_4
REMARK    3  A    between atoms: C_5  and  C_7
REMARK    4  A    between atoms: N_17  and  CA_18
REMARK    5  A    between atoms: CA_18  and  C_19
REMARK    6  A    between atoms: CA_18  and  C_21
REMARK    7  A    between atoms: C_19  and  O_20
REMARK    8  A    between atoms: C_24  and  C_25
REMARK    9  A    between atoms: C_25  and  N_26
REMARK   10  A    between atoms: C_27  and  C_29
REMARK                            x       y       z     vdW  Elec       q    Type
REMARK                         _______ _______ _______ _____ _____    ______ ____
ROOT
ATOM      1  CA  UNL     1      50.076   4.299  18.226  0.00  0.00    +0.000 C 
ENDROOT
BRANCH   1   2
ATOM      2  C   UNL     1      51.170   3.247  18.078  0.00  0.00    +0.000 A 
ATOM      3  C   UNL     1      52.478   3.518  18.509  0.00  0.00    +0.000 A 
ATOM      4  C   UNL     1      53.502   2.575  18.336  0.00  0.00    +0.000 A 
ATOM      5  C   UNL     1      53.245   1.347  17.716  0.00  0.00    +0.000 A 
ATOM      6  C   UNL     1      51.934   1.056  17.324  0.00  0.00    +0.000 A 
ATOM      7  C   UNL     1      50.914   1.995  17.496  0.00  0.00    +0.000 A 
BRANCH   5   8
ATOM      8  C   UNL     1      54.352   0.364  17.443  0.00  0.00    +0.000 C 
BRANCH   8   9
ATOM      9  N   UNL     1      53.991  -0.992  17.745  0.00  0.00    +0.000 N 
ATOM     10  C   UNL     1      54.182  -1.515  19.005  0.00  0.00    +0.000 C 
ATOM     11  O   UNL     1      54.674  -0.876  19.933  0.00  0.00    +0.000 OA
ATOM     12  H   UNL     1      53.534  -1.592  17.064  0.00  0.00    +0.000 HD
BRANCH  10  13
ATOM     13  C   UNL     1      53.747  -2.914  19.146  0.00  0.00    +0.000 A 
ATOM     14  C   UNL     1      52.981  -3.463  20.208  0.00  0.00    +0.000 A 
ATOM     15  C   UNL     1      52.842  -4.795  19.908  0.00  0.00    +0.000 A 
ATOM     16  N   UNL     1      53.505  -4.983  18.733  0.00  0.00    +0.000 N 
ATOM     17  N   UNL     1      54.054  -3.861  18.234  0.00  0.00    +0.000 NA
ATOM     18  H   UNL     1      53.622  -5.848  18.213  0.00  0.00    +0.000 HD
ENDBRANCH  10  13
ENDBRANCH   8   9
ENDBRANCH   5   8
ENDBRANCH   1   2
BRANCH   1  21
ATOM     19  O   UNL     1      46.772   3.524  16.921  0.00  0.00    +0.000 OA
ATOM     20  C   UNL     1      47.871   4.085  16.938  0.00  0.00    +0.000 C 
ATOM     21  N   UNL     1      48.776   3.711  17.886  0.00  0.00    +0.000 N 
ATOM     22  H   UNL     1      48.452   2.939  18.455  0.00  0.00    +0.000 HD
BRANCH  20  23
ATOM     23  C   UNL     1      48.190   5.219  15.971  0.00  0.00    +0.000 C 
BRANCH  23  24
ATOM     24  N   UNL     1      47.119   5.393  15.013  0.00  0.00    +0.000 N 
ATOM     25  C   UNL     1      47.342   5.904  13.761  0.00  0.00    +0.000 C 
ATOM     26  O   UNL     1      48.457   6.287  13.416  0.00  0.00    +0.000 OA
ATOM     27  H   UNL     1      46.172   5.188  15.326  0.00  0.00    +0.000 HD
BRANCH  25  28
ATOM     28  C   UNL     1      46.201   5.966  12.840  0.00  0.00    +0.000 A 
ATOM     29  C   UNL     1      45.762   7.204  12.389  0.00  0.00    +0.000 A 
ATOM     30  S   UNL     1      44.447   7.112  11.310  0.00  0.00    +0.000 S 
ATOM     31  C   UNL     1      44.385   5.417  11.445  0.00  0.00    +0.000 A 
ATOM     32  N   UNL     1      43.446   4.700  10.774  0.00  0.00    +0.000 NA
ATOM     33  C   UNL     1      43.486   3.428  10.999  0.00  0.00    +0.000 A 
ATOM     34  N   UNL     1      44.385   2.810  11.830  0.00  0.00    +0.000 N 
ATOM     35  C   UNL     1      45.372   3.490  12.505  0.00  0.00    +0.000 A 
ATOM     36  O   UNL     1      46.192   2.911  13.209  0.00  0.00    +0.000 OA
ATOM     37  C   UNL     1      45.360   4.926  12.295  0.00  0.00    +0.000 A 
ATOM     38  H   UNL     1      44.363   1.809  11.959  0.00  0.00    +0.000 HD
ENDBRANCH  25  28
ENDBRANCH  23  24
ENDBRANCH  20  23
ENDBRANCH   1  21
BRANCH   1  39
ATOM     39  C   UNL     1      50.067   4.940  19.637  0.00  0.00    +0.000 C 
BRANCH  39  40
ATOM     40  O   UNL     1      49.387   6.197  19.679  0.00  0.00    +0.000 OA
ATOM     41  H   UNL     1      49.900   6.764  20.284  0.00  0.00    +0.000 HD
ENDBRANCH  39  40
ENDBRANCH   1  39
TORSDOF 10
ENDMDL
MODEL 6
REMARK VINA RESULT:    -7.386      3.667      8.614
REMARK INTER + INTRA:         -12.359
REMARK INTER:                 -10.722
REMARK INTRA:                  -1.638
REMARK UNBOUND:                -0.871
REMARK  Name = 
REMARK  10 active torsions:
REMARK  status: ('A' for Active; 'I' for Inactive)
REMARK    1  A    between atoms: C_2  and  C_3
REMARK    2  A    between atoms: C_3  and  N_4
REMARK    3  A    between atoms: C_5  and  C_7
REMARK    4  A    between atoms: N_17  and  CA_18
REMARK    5  A    between atoms: CA_18  and  C_19
REMARK    6  A    between atoms: CA_18  and  C_21
REMARK    7  A    between atoms: C_19  and  O_20
REMARK    8  A    between atoms: C_24  and  C_25
REMARK    9  A    between atoms: C_25  and  N_26
REMARK   10  A    between atoms: C_27  and  C_29
REMARK                            x       y       z     vdW  Elec       q    Type
REMARK                         _______ _______ _______ _____ _____    ______ ____
ROOT
ATOM      1  CA  UNL     1      50.605   8.322  14.549  0.00  0.00    +0.000 C 
ENDROOT
BRANCH   1   2
ATOM      2  C   UNL     1      50.232   7.186  15.496  0.00  0.00    +0.000 A 
ATOM      3  C   UNL     1      51.214   6.568  16.285  0.00  0.00    +0.000 A 
ATOM      4  C   UNL     1      50.890   5.493  17.124  0.00  0.00    +0.000 A 
ATOM      5  C   UNL     1      49.581   5.001  17.184  0.00  0.00    +0.000 A 
ATOM      6  C   UNL     1      48.590   5.643  16.432  0.00  0.00    +0.000 A 
ATOM      7  C   UNL     1      48.913   6.714  15.596  0.00  0.00    +0.000 A 
BRANCH   5   8
ATOM      8  C   UNL     1      49.238   3.792  18.012  0.00  0.00    +0.000 C 
BRANCH   8   9
ATOM      9  N   UNL     1      50.356   2.915  18.220  0.00  0.00    +0.000 N 
ATOM     10  C   UNL     1      50.691   1.956  17.289  0.00  0.00    +0.000 C 
ATOM     11  O   UNL     1      50.065   1.781  16.246  0.00  0.00    +0.000 OA
ATOM     12  H   UNL     1      50.968   3.005  19.026  0.00  0.00    +0.000 HD
BRANCH  10  13
ATOM     13  C   UNL     1      51.868   1.152  17.653  0.00  0.00    +0.000 A 
ATOM     14  C   UNL     1      53.231   1.507  17.468  0.00  0.00    +0.000 A 
ATOM     15  C   UNL     1      53.954   0.443  17.945  0.00  0.00    +0.000 A 
ATOM     16  N   UNL     1      53.036  -0.469  18.373  0.00  0.00    +0.000 N 
ATOM     17  N   UNL     1      51.762  -0.067  18.225  0.00  0.00    +0.000 NA
ATOM     18  H   UNL     1      53.208  -1.385  18.778  0.00  0.00    +0.000 HD
ENDBRANCH  10  13
ENDBRANCH   8   9
ENDBRANCH   5   8
ENDBRANCH   1   2
BRANCH   1  21
ATOM     19  O   UNL     1      48.653  11.384  14.726  0.00  0.00    +0.000 OA
ATOM     20  C   UNL     1      49.019  10.311  14.240  0.00  0.00    +0.000 C 
ATOM     21  N   UNL     1      49.901   9.546  14.945  0.00  0.00    +0.000 N 
ATOM     22  H   UNL     1      50.117   9.934  15.854  0.00  0.00    +0.000 HD
BRANCH  20  23
ATOM     23  C   UNL     1      48.558   9.879  12.853  0.00  0.00    +0.000 C 
BRANCH  23  24
ATOM     24  N   UNL     1      47.565   8.831  12.947  0.00  0.00    +0.000 N 
ATOM     25  C   UNL     1      47.650   7.683  12.202  0.00  0.00    +0.000 C 
ATOM     26  O   UNL     1      48.548   7.519  11.380  0.00  0.00    +0.000 OA
ATOM     27  H   UNL     1      46.755   9.003  13.537  0.00  0.00    +0.000 HD
BRANCH  25  28
ATOM     28  C   UNL     1      46.633   6.649  12.430  0.00  0.00    +0.000 A 
ATOM     29  C   UNL     1      47.007   5.455  13.033  0.00  0.00    +0.000 A 
ATOM     30  S   UNL     1      45.715   4.366  13.252  0.00  0.00    +0.000 S 
ATOM     31  C   UNL     1      44.620   5.430  12.503  0.00  0.00    +0.000 A 
ATOM     32  N   UNL     1      43.314   5.087  12.344  0.00  0.00    +0.000 NA
ATOM     33  C   UNL     1      42.604   5.969  11.723  0.00  0.00    +0.000 A 
ATOM     34  N   UNL     1      43.081   7.167  11.253  0.00  0.00    +0.000 N 
ATOM     35  C   UNL     1      44.385   7.570  11.418  0.00  0.00    +0.000 A 
ATOM     36  O   UNL     1      44.778   8.664  11.027  0.00  0.00    +0.000 OA
ATOM     37  C   UNL     1      45.228   6.606  12.099  0.00  0.00    +0.000 A 
ATOM     38  H   UNL     1      42.468   7.814  10.778  0.00  0.00    +0.000 HD
ENDBRANCH  25  28
ENDBRANCH  23  24
ENDBRANCH  20  23
ENDBRANCH   1  21
BRANCH   1  39
ATOM     39  C   UNL     1      52.138   8.539  14.471  0.00  0.00    +0.000 C 
BRANCH  39  40
ATOM     40  O   UNL     1      52.746   7.868  13.364  0.00  0.00    +0.000 OA
ATOM     41  H   UNL     1      52.962   6.970  13.675  0.00  0.00    +0.000 HD
ENDBRANCH  39  40
ENDBRANCH   1  39
TORSDOF 10
ENDMDL
MODEL 7
REMARK VINA RESULT:    -7.151      1.734      2.095
REMARK INTER + INTRA:         -11.994
REMARK INTER:                 -11.141
REMARK INTRA:                  -0.853
REMARK UNBOUND:                -0.871
REMARK  Name = 
REMARK  10 active torsions:
REMARK  status: ('A' for Active; 'I' for Inactive)
REMARK    1  A    between atoms: C_2  and  C_3
REMARK    2  A    between atoms: C_3  and  N_4
REMARK    3  A    between atoms: C_5  and  C_7
REMARK    4  A    between atoms: N_17  and  CA_18
REMARK    5  A    between atoms: CA_18  and  C_19
REMARK    6  A    between atoms: CA_18  and  C_21
REMARK    7  A    between atoms: C_19  and  O_20
REMARK    8  A    between atoms: C_24  and  C_25
REMARK    9  A    between atoms: C_25  and  N_26
REMARK   10  A    between atoms: C_27  and  C_29
REMARK                            x       y       z     vdW  Elec       q    Type
REMARK                         _______ _______ _______ _____ _____    ______ ____
ROOT
ATOM      1  CA  UNL     1      47.995   7.478  13.531  0.00  0.00    +0.000 C 
ENDROOT
BRANCH   1   2
ATOM      2  C   UNL     1      46.962   6.611  12.819  0.00  0.00    +0.000 A 
ATOM      3  C   UNL     1      46.587   5.369  13.355  0.00  0.00    +0.000 A 
ATOM      4  C   UNL     1      45.673   4.543  12.686  0.00  0.00    +0.000 A 
ATOM      5  C   UNL     1      45.122   4.933  11.459  0.00  0.00    +0.000 A 
ATOM      6  C   UNL     1      45.460   6.189  10.943  0.00  0.00    +0.000 A 
ATOM      7  C   UNL     1      46.371   7.011  11.610  0.00  0.00    +0.000 A 
BRANCH   5   8
ATOM      8  C   UNL     1      44.211   4.018  10.687  0.00  0.00    +0.000 C 
BRANCH   8   9
ATOM      9  N   UNL     1      44.918   3.039   9.911  0.00  0.00    +0.000 N 
ATOM     10  C   UNL     1      45.394   3.337   8.653  0.00  0.00    +0.000 C 
ATOM     11  O   UNL     1      45.240   4.431   8.115  0.00  0.00    +0.000 OA
ATOM     12  H   UNL     1      45.141   2.118  10.279  0.00  0.00    +0.000 HD
BRANCH  10  13
ATOM     13  C   UNL     1      46.104   2.225   8.001  0.00  0.00    +0.000 A 
ATOM     14  C   UNL     1      46.937   2.304   6.854  0.00  0.00    +0.000 A 
ATOM     15  C   UNL     1      47.357   1.019   6.618  0.00  0.00    +0.000 A 
ATOM     16  N   UNL     1      46.781   0.254   7.588  0.00  0.00    +0.000 N 
ATOM     17  N   UNL     1      46.026   0.954   8.453  0.00  0.00    +0.000 NA
ATOM     18  H   UNL     1      46.860  -0.749   7.721  0.00  0.00    +0.000 HD
ENDBRANCH  10  13
ENDBRANCH   8   9
ENDBRANCH   5   8
ENDBRANCH   1   2
BRANCH   1  21
ATOM     19  O   UNL     1      51.174   8.389  12.019  0.00  0.00    +0.000 OA
ATOM     20  C   UNL     1      50.398   8.150  12.949  0.00  0.00    +0.000 C 
ATOM     21  N   UNL     1      49.147   7.697  12.650  0.00  0.00    +0.000 N 
ATOM     22  H   UNL     1      49.012   7.542  11.659  0.00  0.00    +0.000 HD
BRANCH  20  23
ATOM     23  C   UNL     1      50.797   8.422  14.394  0.00  0.00    +0.000 C 
BRANCH  23  24
ATOM     24  N   UNL     1      50.979   7.182  15.118  0.00  0.00    +0.000 N 
ATOM     25  C   UNL     1      50.377   6.954  16.327  0.00  0.00    +0.000 C 
ATOM     26  O   UNL     1      49.697   7.816  16.877  0.00  0.00    +0.000 OA
ATOM     27  H   UNL     1      51.632   6.505  14.730  0.00  0.00    +0.000 HD
BRANCH  25  28
ATOM     28  C   UNL     1      50.564   5.633  16.940  0.00  0.00    +0.000 A 
ATOM     29  C   UNL     1      49.448   4.877  17.272  0.00  0.00    +0.000 A 
ATOM     30  S   UNL     1      49.825   3.361  17.951  0.00  0.00    +0.000 S 
ATOM     31  C   UNL     1      51.494   3.680  17.871  0.00  0.00    +0.000 A 
ATOM     32  N   UNL     1      52.398   2.773  18.326  0.00  0.00    +0.000 NA
ATOM     33  C   UNL     1      53.628   3.161  18.244  0.00  0.00    +0.000 A 
ATOM     34  N   UNL     1      54.034   4.371  17.743  0.00  0.00    +0.000 N 
ATOM     35  C   UNL     1      53.158   5.307  17.244  0.00  0.00    +0.000 A 
ATOM     36  O   UNL     1      53.548   6.365  16.761  0.00  0.00    +0.000 OA
ATOM     37  C   UNL     1      51.761   4.924  17.326  0.00  0.00    +0.000 A 
ATOM     38  H   UNL     1      55.014   4.609  17.705  0.00  0.00    +0.000 HD
ENDBRANCH  25  28
ENDBRANCH  23  24
ENDBRANCH  20  23
ENDBRANCH   1  21
BRANCH   1  39
ATOM     39  C   UNL     1      47.391   8.815  14.031  0.00  0.00    +0.000 C 
BRANCH  39  40
ATOM     40  O   UNL     1      45.987   8.926  13.785  0.00  0.00    +0.000 OA
ATOM     41  H   UNL     1      45.828   9.852  13.526  0.00  0.00    +0.000 HD
ENDBRANCH  39  40
ENDBRANCH   1  39
TORSDOF 10
ENDMDL
MODEL 8
REMARK VINA RESULT:    -6.989      3.973      9.739
REMARK INTER + INTRA:         -11.742
REMARK INTER:                 -10.328
REMARK INTRA:                  -1.414
REMARK UNBOUND:                -0.871
REMARK  Name = 
REMARK  10 active torsions:
REMARK  status: ('A' for Active; 'I' for Inactive)
REMARK    1  A    between atoms: C_2  and  C_3
REMARK    2  A    between atoms: C_3  and  N_4
REMARK    3  A    between atoms: C_5  and  C_7
REMARK    4  A    between atoms: N_17  and  CA_18
REMARK    5  A    between atoms: CA_18  and  C_19
REMARK    6  A    between atoms: CA_18  and  C_21
REMARK    7  A    between atoms: C_19  and  O_20
REMARK    8  A    between atoms: C_24  and  C_25
REMARK    9  A    between atoms: C_25  and  N_26
REMARK   10  A    between atoms: C_27  and  C_29
REMARK                            x       y       z     vdW  Elec       q    Type
REMARK                         _______ _______ _______ _____ _____    ______ ____
ROOT
ATOM      1  CA  UNL     1      49.200   5.568  16.929  0.00  0.00    +0.000 C 
ENDROOT
BRANCH   1   2
ATOM      2  C   UNL     1      50.561   4.983  17.289  0.00  0.00    +0.000 A 
ATOM      3  C   UNL     1      51.726   5.749  17.137  0.00  0.00    +0.000 A 
ATOM      4  C   UNL     1      52.987   5.205  17.421  0.00  0.00    +0.000 A 
ATOM      5  C   UNL     1      53.114   3.879  17.851  0.00  0.00    +0.000 A 
ATOM      6  C   UNL     1      51.951   3.125  18.046  0.00  0.00    +0.000 A 
ATOM      7  C   UNL     1      50.695   3.667  17.763  0.00  0.00    +0.000 A 
BRANCH   5   8
ATOM      8  C   UNL     1      54.465   3.256  18.073  0.00  0.00    +0.000 C 
BRANCH   8   9
ATOM      9  N   UNL     1      54.569   1.928  17.537  0.00  0.00    +0.000 N 
ATOM     10  C   UNL     1      54.584   0.826  18.364  0.00  0.00    +0.000 C 
ATOM     11  O   UNL     1      54.522   0.902  19.589  0.00  0.00    +0.000 OA
ATOM     12  H   UNL     1      54.580   1.750  16.536  0.00  0.00    +0.000 HD
BRANCH  10  13
ATOM     13  C   UNL     1      54.685  -0.457  17.651  0.00  0.00    +0.000 A 
ATOM     14  C   UNL     1      55.046  -0.649  16.291  0.00  0.00    +0.000 A 
ATOM     15  C   UNL     1      54.985  -2.004  16.084  0.00  0.00    +0.000 A 
ATOM     16  N   UNL     1      54.602  -2.546  17.275  0.00  0.00    +0.000 N 
ATOM     17  N   UNL     1      54.425  -1.639  18.251  0.00  0.00    +0.000 NA
ATOM     18  H   UNL     1      54.445  -3.525  17.493  0.00  0.00    +0.000 HD
ENDBRANCH  10  13
ENDBRANCH   8   9
ENDBRANCH   5   8
ENDBRANCH   1   2
BRANCH   1  21
ATOM     19  O   UNL     1      46.408   3.295  17.438  0.00  0.00    +0.000 OA
ATOM     20  C   UNL     1      47.337   3.813  16.812  0.00  0.00    +0.000 C 
ATOM     21  N   UNL     1      48.136   4.708  17.459  0.00  0.00    +0.000 N 
ATOM     22  H   UNL     1      47.904   4.805  18.439  0.00  0.00    +0.000 HD
BRANCH  20  23
ATOM     23  C   UNL     1      47.547   3.517  15.332  0.00  0.00    +0.000 C 
BRANCH  23  24
ATOM     24  N   UNL     1      46.640   4.297  14.519  0.00  0.00    +0.000 N 
ATOM     25  C   UNL     1      47.090   5.239  13.631  0.00  0.00    +0.000 C 
ATOM     26  O   UNL     1      48.285   5.499  13.525  0.00  0.00    +0.000 OA
ATOM     27  H   UNL     1      45.642   4.174  14.679  0.00  0.00    +0.000 HD
BRANCH  25  28
ATOM     28  C   UNL     1      46.090   5.919  12.798  0.00  0.00    +0.000 A 
ATOM     29  C   UNL     1      45.251   5.160  11.993  0.00  0.00    +0.000 A 
ATOM     30  S   UNL     1      44.131   6.088  11.106  0.00  0.00    +0.000 S 
ATOM     31  C   UNL     1      44.760   7.540  11.728  0.00  0.00    +0.000 A 
ATOM     32  N   UNL     1      44.250   8.741  11.344  0.00  0.00    +0.000 NA
ATOM     33  C   UNL     1      44.847   9.763  11.860  0.00  0.00    +0.000 A 
ATOM     34  N   UNL     1      45.905   9.692  12.731  0.00  0.00    +0.000 N 
ATOM     35  C   UNL     1      46.434   8.502  13.171  0.00  0.00    +0.000 A 
ATOM     36  O   UNL     1      47.353   8.463  13.983  0.00  0.00    +0.000 OA
ATOM     37  C   UNL     1      45.805   7.322  12.608  0.00  0.00    +0.000 A 
ATOM     38  H   UNL     1      46.325  10.533  13.100  0.00  0.00    +0.000 HD
ENDBRANCH  25  28
ENDBRANCH  23  24
ENDBRANCH  20  23
ENDBRANCH   1  21
BRANCH   1  39
ATOM     39  C   UNL     1      49.047   7.034  17.411  0.00  0.00    +0.000 C 
BRANCH  39  40
ATOM     40  O   UNL     1      48.039   7.757  16.700  0.00  0.00    +0.000 OA
ATOM     41  H   UNL     1      48.297   8.696  16.740  0.00  0.00    +0.000 HD
ENDBRANCH  39  40
ENDBRANCH   1  39
TORSDOF 10
ENDMDL
MODEL 9
REMARK VINA RESULT:    -6.981      2.753      3.563
REMARK INTER + INTRA:         -11.730
REMARK INTER:                 -10.185
REMARK INTRA:                  -1.544
REMARK UNBOUND:                -0.871
REMARK  Name = 
REMARK  10 active torsions:
REMARK  status: ('A' for Active; 'I' for Inactive)
REMARK    1  A    between atoms: C_2  and  C_3
REMARK    2  A    between atoms: C_3  and  N_4
REMARK    3  A    between atoms: C_5  and  C_7
REMARK    4  A    between atoms: N_17  and  CA_18
REMARK    5  A    between atoms: CA_18  and  C_19
REMARK    6  A    between atoms: CA_18  and  C_21
REMARK    7  A    between atoms: C_19  and  O_20
REMARK    8  A    between atoms: C_24  and  C_25
REMARK    9  A    between atoms: C_25  and  N_26
REMARK   10  A    between atoms: C_27  and  C_29
REMARK                            x       y       z     vdW  Elec       q    Type
REMARK                         _______ _______ _______ _____ _____    ______ ____
ROOT
ATOM      1  CA  UNL     1      49.813   9.887  12.608  0.00  0.00    +0.000 C 
ENDROOT
BRANCH   1   2
ATOM      2  C   UNL     1      48.557   9.030  12.503  0.00  0.00    +0.000 A 
ATOM      3  C   UNL     1      48.597   7.789  11.849  0.00  0.00    +0.000 A 
ATOM      4  C   UNL     1      47.437   7.014  11.706  0.00  0.00    +0.000 A 
ATOM      5  C   UNL     1      46.209   7.466  12.203  0.00  0.00    +0.000 A 
ATOM      6  C   UNL     1      46.174   8.681  12.895  0.00  0.00    +0.000 A 
ATOM      7  C   UNL     1      47.329   9.454  13.036  0.00  0.00    +0.000 A 
BRANCH   5   8
ATOM      8  C   UNL     1      44.941   6.686  11.978  0.00  0.00    +0.000 C 
BRANCH   8   9
ATOM      9  N   UNL     1      45.141   5.497  11.199  0.00  0.00    +0.000 N 
ATOM     10  C   UNL     1      44.085   4.870  10.575  0.00  0.00    +0.000 C 
ATOM     11  O   UNL     1      42.925   5.269  10.648  0.00  0.00    +0.000 OA
ATOM     12  H   UNL     1      46.066   5.109  11.035  0.00  0.00    +0.000 HD
BRANCH  10  13
ATOM     13  C   UNL     1      44.466   3.672   9.809  0.00  0.00    +0.000 A 
ATOM     14  C   UNL     1      45.314   3.625   8.671  0.00  0.00    +0.000 A 
ATOM     15  C   UNL     1      45.358   2.304   8.302  0.00  0.00    +0.000 A 
ATOM     16  N   UNL     1      44.566   1.642   9.193  0.00  0.00    +0.000 N 
ATOM     17  N   UNL     1      44.021   2.438  10.129  0.00  0.00    +0.000 NA
ATOM     18  H   UNL     1      44.354   0.649   9.223  0.00  0.00    +0.000 HD
ENDBRANCH  10  13
ENDBRANCH   8   9
ENDBRANCH   5   8
ENDBRANCH   1   2
BRANCH   1  21
ATOM     19  O   UNL     1      52.599   8.131  14.149  0.00  0.00    +0.000 OA
ATOM     20  C   UNL     1      51.544   8.771  14.133  0.00  0.00    +0.000 C 
ATOM     21  N   UNL     1      50.966   9.038  12.927  0.00  0.00    +0.000 N 
ATOM     22  H   UNL     1      51.457   8.610  12.153  0.00  0.00    +0.000 HD
BRANCH  20  23
ATOM     23  C   UNL     1      50.934   9.314  15.420  0.00  0.00    +0.000 C 
BRANCH  23  24
ATOM     24  N   UNL     1      50.606   8.236  16.327  0.00  0.00    +0.000 N 
ATOM     25  C   UNL     1      49.309   7.902  16.617  0.00  0.00    +0.000 C 
ATOM     26  O   UNL     1      48.366   8.541  16.159  0.00  0.00    +0.000 OA
ATOM     27  H   UNL     1      51.377   7.773  16.804  0.00  0.00    +0.000 HD
BRANCH  25  28
ATOM     28  C   UNL     1      49.086   6.742  17.488  0.00  0.00    +0.000 A 
ATOM     29  C   UNL     1      49.531   6.788  18.803  0.00  0.00    +0.000 A 
ATOM     30  S   UNL     1      49.178   5.380  19.695  0.00  0.00    +0.000 S 
ATOM     31  C   UNL     1      48.462   4.638  18.342  0.00  0.00    +0.000 A 
ATOM     32  N   UNL     1      47.961   3.377  18.423  0.00  0.00    +0.000 NA
ATOM     33  C   UNL     1      47.485   2.921  17.312  0.00  0.00    +0.000 A 
ATOM     34  N   UNL     1      47.459   3.615  16.130  0.00  0.00    +0.000 N 
ATOM     35  C   UNL     1      47.924   4.903  16.007  0.00  0.00    +0.000 A 
ATOM     36  O   UNL     1      47.850   5.520  14.949  0.00  0.00    +0.000 OA
ATOM     37  C   UNL     1      48.483   5.457  17.226  0.00  0.00    +0.000 A 
ATOM     38  H   UNL     1      47.067   3.199  15.297  0.00  0.00    +0.000 HD
ENDBRANCH  25  28
ENDBRANCH  23  24
ENDBRANCH  20  23
ENDBRANCH   1  21
BRANCH   1  39
ATOM     39  C   UNL     1      50.056  10.729  11.329  0.00  0.00    +0.000 C 
BRANCH  39  40
ATOM     40  O   UNL     1      48.848  11.082  10.650  0.00  0.00    +0.000 OA
ATOM     41  H   UNL     1      48.650  12.002  10.905  0.00  0.00    +0.000 HD
ENDBRANCH  39  40
ENDBRANCH   1  39
TORSDOF 10
ENDMDL
