MODEL 1
REMARK VINA RESULT:    -7.247      0.000      0.000
REMARK INTER + INTRA:          -9.605
REMARK INTER:                  -9.153
REMARK INTRA:                  -0.451
REMARK UNBOUND:                -0.451
REMARK  Name = 
REMARK  5 active torsions:
REMARK  status: ('A' for Active; 'I' for Inactive)
REMARK    1  A    between atoms: N_1  and  C_2
REMARK    2  A    between atoms: C_2  and  C_3
REMARK    3  A    between atoms: C_6  and  C_7
REMARK    4  A    between atoms: C_7  and  C_8
REMARK    5  A    between atoms: C_8  and  C_9
REMARK                            x       y       z     vdW  Elec       q    Type
REMARK                         _______ _______ _______ _____ _____    ______ ____
ROOT
ATOM      1  C   UNL     1      46.634   2.323   7.559  0.00  0.00    +0.000 A 
ATOM      2  C   UNL     1      45.842   1.583   8.447  0.00  0.00    +0.000 A 
ATOM      3  C   UNL     1      44.923   2.219   9.287  0.00  0.00    +0.000 A 
ATOM      4  C   UNL     1      44.785   3.613   9.269  0.00  0.00    +0.000 A 
ATOM      5  C   UNL     1      45.577   4.354   8.384  0.00  0.00    +0.000 A 
ATOM      6  C   UNL     1      46.492   3.717   7.538  0.00  0.00    +0.000 A 
ENDROOT
BRANCH   1   7
ATOM      7  C   UNL     1      47.630   1.636   6.660  0.00  0.00    +0.000 C 
BRANCH   7   8
ATOM      8  N   UNL     1      48.701   2.537   6.247  0.00  0.00    +0.000 NA
ATOM      9  H   UNL     1      48.421   3.497   6.443  0.00  0.00    +0.000 HD
ATOM     10  H   UNL     1      48.811   2.469   5.237  0.00  0.00    +0.000 HD
ENDBRANCH   7   8
ENDBRANCH   1   7
BRANCH   4  11
ATOM     11  C   UNL     1      43.779   4.305  10.162  0.00  0.00    +0.000 C 
BRANCH  11  12
ATOM     12  C   UNL     1      43.751   3.739  11.583  0.00  0.00    +0.000 C 
BRANCH  12  13
ATOM     13  C   UNL     1      44.922   4.232  12.387  0.00  0.00    +0.000 A 
ATOM     14  N   UNL     1      45.739   3.308  12.934  0.00  0.00    +0.000 NA
ATOM     15  C   UNL     1      46.791   3.777  13.633  0.00  0.00    +0.000 A 
ATOM     16  C   UNL     1      47.050   5.114  13.809  0.00  0.00    +0.000 A 
ATOM     17  C   UNL     1      46.152   5.973  13.224  0.00  0.00    +0.000 A 
ATOM     18  N   UNL     1      45.083   5.563  12.514  0.00  0.00    +0.000 NA
ENDBRANCH  12  13
ENDBRANCH  11  12
ENDBRANCH   4  11
TORSDOF 5
ENDMDL
MODEL 2
REMARK VINA RESULT:    -6.551      1.798      5.860
REMARK INTER + INTRA:          -8.726
REMARK INTER:                  -8.329
REMARK INTRA:                  -0.397
REMARK UNBOUND:                -0.451
REMARK  Name = 
REMARK  5 active torsions:
REMARK  status: ('A' for Active; 'I' for Inactive)
REMARK    1  A    between atoms: N_1  and  C_2
REMARK    2  A    between atoms: C_2  and  C_3
REMARK    3  A    between atoms: C_6  and  C_7
REMARK    4  A    between atoms: C_7  and  C_8
REMARK    5  A    between atoms: C_8  and  C_9
REMARK                            x       y       z     vdW  Elec       q    Type
REMARK                         _______ _______ _______ _____ _____    ______ ____
ROOT
ATOM      1  C   UNL     1      46.650   5.265  13.194  0.00  0.00    +0.000 A 
ATOM      2  C   UNL     1      46.088   3.981  13.201  0.00  0.00    +0.000 A 
ATOM      3  C   UNL     1      45.301   3.538  12.134  0.00  0.00    +0.000 A 
ATOM      4  C   UNL     1      45.044   4.375  11.040  0.00  0.00    +0.000 A 
ATOM      5  C   UNL     1      45.603   5.660  11.033  0.00  0.00    +0.000 A 
ATOM      6  C   UNL     1      46.397   6.100  12.098  0.00  0.00    +0.000 A 
ENDROOT
BRANCH   1   7
ATOM      7  C   UNL     1      47.492   5.743  14.350  0.00  0.00    +0.000 C 
BRANCH   7   8
ATOM      8  N   UNL     1      47.210   4.997  15.572  0.00  0.00    +0.000 NA
ATOM      9  H   UNL     1      47.305   5.620  16.371  0.00  0.00    +0.000 HD
ATOM     10  H   UNL     1      47.919   4.274  15.682  0.00  0.00    +0.000 HD
ENDBRANCH   7   8
ENDBRANCH   1   7
BRANCH   4  11
ATOM     11  C   UNL     1      44.208   3.896   9.874  0.00  0.00    +0.000 C 
BRANCH  11  12
ATOM     12  C   UNL     1      44.487   2.441   9.496  0.00  0.00    +0.000 C 
BRANCH  12  13
ATOM     13  C   UNL     1      45.548   2.350   8.435  0.00  0.00    +0.000 A 
ATOM     14  N   UNL     1      45.790   3.451   7.695  0.00  0.00    +0.000 NA
ATOM     15  C   UNL     1      46.758   3.348   6.764  0.00  0.00    +0.000 A 
ATOM     16  C   UNL     1      47.479   2.200   6.542  0.00  0.00    +0.000 A 
ATOM     17  C   UNL     1      47.147   1.130   7.338  0.00  0.00    +0.000 A 
ATOM     18  N   UNL     1      46.189   1.175   8.285  0.00  0.00    +0.000 NA
ENDBRANCH  12  13
ENDBRANCH  11  12
ENDBRANCH   4  11
TORSDOF 5
ENDMDL
MODEL 3
REMARK VINA RESULT:    -6.237      2.114      6.083
REMARK INTER + INTRA:          -8.329
REMARK INTER:                  -7.929
REMARK INTRA:                  -0.400
REMARK UNBOUND:                -0.451
REMARK  Name = 
REMARK  5 active torsions:
REMARK  status: ('A' for Active; 'I' for Inactive)
REMARK    1  A    between atoms: N_1  and  C_2
REMARK    2  A    between atoms: C_2  and  C_3
REMARK    3  A    between atoms: C_6  and  C_7
REMARK    4  A    between atoms: C_7  and  C_8
REMARK    5  A    between atoms: C_8  and  C_9
REMARK                            x       y       z     vdW  Elec       q    Type
REMARK                         _______ _______ _______ _____ _____    ______ ____
ROOT
ATOM      1  C   UNL     1      45.593   7.283  12.461  0.00  0.00    +0.000 A 
ATOM      2  C   UNL     1      44.693   7.002  11.425  0.00  0.00    +0.000 A 
ATOM      3  C   UNL     1      44.466   5.685  11.012  0.00  0.00    +0.000 A 
ATOM      4  C   UNL     1      45.148   4.620  11.615  0.00  0.00    +0.000 A 
ATOM      5  C   UNL     1      46.050   4.900  12.648  0.00  0.00    +0.000 A 
ATOM      6  C   UNL     1      46.271   6.217  13.067  0.00  0.00    +0.000 A 
ENDROOT
BRANCH   1   7
ATOM      7  C   UNL     1      45.842   8.705  12.900  0.00  0.00    +0.000 C 
BRANCH   7   8
ATOM      8  N   UNL     1      46.730   8.768  14.056  0.00  0.00    +0.000 NA
ATOM      9  H   UNL     1      46.642   9.683  14.494  0.00  0.00    +0.000 HD
ATOM     10  H   UNL     1      47.693   8.694  13.731  0.00  0.00    +0.000 HD
ENDBRANCH   7   8
ENDBRANCH   1   7
BRANCH   4  11
ATOM     11  C   UNL     1      44.894   3.192  11.185  0.00  0.00    +0.000 C 
BRANCH  11  12
ATOM     12  C   UNL     1      44.276   3.089   9.789  0.00  0.00    +0.000 C 
BRANCH  12  13
ATOM     13  C   UNL     1      45.329   2.826   8.748  0.00  0.00    +0.000 A 
ATOM     14  N   UNL     1      45.727   3.864   7.984  0.00  0.00    +0.000 NA
ATOM     15  C   UNL     1      46.685   3.605   7.073  0.00  0.00    +0.000 A 
ATOM     16  C   UNL     1      47.247   2.365   6.893  0.00  0.00    +0.000 A 
ATOM     17  C   UNL     1      46.763   1.372   7.710  0.00  0.00    +0.000 A 
ATOM     18  N   UNL     1      45.807   1.571   8.639  0.00  0.00    +0.000 NA
ENDBRANCH  12  13
ENDBRANCH  11  12
ENDBRANCH   4  11
TORSDOF 5
ENDMDL
MODEL 4
REMARK VINA RESULT:    -5.593      2.139      6.021
REMARK INTER + INTRA:          -7.516
REMARK INTER:                  -7.137
REMARK INTRA:                  -0.379
REMARK UNBOUND:                -0.451
REMARK  Name = 
REMARK  5 active torsions:
REMARK  status: ('A' for Active; 'I' for Inactive)
REMARK    1  A    between atoms: N_1  and  C_2
REMARK    2  A    between atoms: C_2  and  C_3
REMARK    3  A    between atoms: C_6  and  C_7
REMARK    4  A    between atoms: C_7  and  C_8
REMARK    5  A    between atoms: C_8  and  C_9
REMARK                            x       y       z     vdW  Elec       q    Type
REMARK                         _______ _______ _______ _____ _____    ______ ____
ROOT
ATOM      1  C   UNL     1      47.406   5.499  14.251  0.00  0.00    +0.000 A 
ATOM      2  C   UNL     1      46.286   4.697  13.998  0.00  0.00    +0.000 A 
ATOM      3  C   UNL     1      45.586   4.805  12.792  0.00  0.00    +0.000 A 
ATOM      4  C   UNL     1      45.982   5.729  11.817  0.00  0.00    +0.000 A 
ATOM      5  C   UNL     1      47.100   6.534  12.069  0.00  0.00    +0.000 A 
ATOM      6  C   UNL     1      47.805   6.420  13.273  0.00  0.00    +0.000 A 
ENDROOT
BRANCH   1   7
ATOM      7  C   UNL     1      48.155   5.387  15.555  0.00  0.00    +0.000 C 
BRANCH   7   8
ATOM      8  N   UNL     1      48.149   6.645  16.294  0.00  0.00    +0.000 NA
ATOM      9  H   UNL     1      47.984   6.452  17.280  0.00  0.00    +0.000 HD
ATOM     10  H   UNL     1      47.361   7.206  15.974  0.00  0.00    +0.000 HD
ENDBRANCH   7   8
ENDBRANCH   1   7
BRANCH   4  11
ATOM     11  C   UNL     1      45.240   5.838  10.503  0.00  0.00    +0.000 C 
BRANCH  11  12
ATOM     12  C   UNL     1      44.477   4.564  10.139  0.00  0.00    +0.000 C 
BRANCH  12  13
ATOM     13  C   UNL     1      45.247   3.735   9.148  0.00  0.00    +0.000 A 
ATOM     14  N   UNL     1      45.245   2.397   9.316  0.00  0.00    +0.000 NA
ATOM     15  C   UNL     1      45.926   1.677   8.403  0.00  0.00    +0.000 A 
ATOM     16  C   UNL     1      46.605   2.236   7.348  0.00  0.00    +0.000 A 
ATOM     17  C   UNL     1      46.557   3.607   7.274  0.00  0.00    +0.000 A 
ATOM     18  N   UNL     1      45.893   4.378   8.156  0.00  0.00    +0.000 NA
ENDBRANCH  12  13
ENDBRANCH  11  12
ENDBRANCH   4  11
TORSDOF 5
ENDMDL
MODEL 5
REMARK VINA RESULT:    -5.453      2.640      4.023
REMARK INTER + INTRA:          -7.339
REMARK INTER:                  -7.081
REMARK INTRA:                  -0.258
REMARK UNBOUND:                -0.451
REMARK  Name = 
REMARK  5 active torsions:
REMARK  status: ('A' for Active; 'I' for Inactive)
REMARK    1  A    between atoms: N_1  and  C_2
REMARK    2  A    between atoms: C_2  and  C_3
REMARK    3  A    between atoms: C_6  and  C_7
REMARK    4  A    between atoms: C_7  and  C_8
REMARK    5  A    between atoms: C_8  and  C_9
REMARK                            x       y       z     vdW  Elec       q    Type
REMARK                         _______ _______ _______ _____ _____    ______ ____
ROOT
ATOM      1  C   UNL     1      45.045   4.136   9.501  0.00  0.00    +0.000 A 
ATOM      2  C   UNL     1      45.529   5.383   9.918  0.00  0.00    +0.000 A 
ATOM      3  C   UNL     1      45.780   5.637  11.270  0.00  0.00    +0.000 A 
ATOM      4  C   UNL     1      45.538   4.654  12.239  0.00  0.00    +0.000 A 
ATOM      5  C   UNL     1      45.052   3.408  11.823  0.00  0.00    +0.000 A 
ATOM      6  C   UNL     1      44.808   3.152  10.470  0.00  0.00    +0.000 A 
ENDROOT
BRANCH   1   7
ATOM      7  C   UNL     1      44.767   3.866   8.043  0.00  0.00    +0.000 C 
BRANCH   7   8
ATOM      8  N   UNL     1      45.981   3.944   7.237  0.00  0.00    +0.000 NA
ATOM      9  H   UNL     1      46.739   4.306   7.811  0.00  0.00    +0.000 HD
ATOM     10  H   UNL     1      45.833   4.623   6.492  0.00  0.00    +0.000 HD
ENDBRANCH   7   8
ENDBRANCH   1   7
BRANCH   4  11
ATOM     11  C   UNL     1      45.825   4.917  13.700  0.00  0.00    +0.000 C 
BRANCH  11  12
ATOM     12  C   UNL     1      46.822   3.925  14.302  0.00  0.00    +0.000 C 
BRANCH  12  13
ATOM     13  C   UNL     1      47.319   4.399  15.640  0.00  0.00    +0.000 A 
ATOM     14  N   UNL     1      48.253   5.372  15.652  0.00  0.00    +0.000 NA
ATOM     15  C   UNL     1      48.666   5.791  16.863  0.00  0.00    +0.000 A 
ATOM     16  C   UNL     1      48.194   5.278  18.047  0.00  0.00    +0.000 A 
ATOM     17  C   UNL     1      47.255   4.282  17.926  0.00  0.00    +0.000 A 
ATOM     18  N   UNL     1      46.804   3.822  16.743  0.00  0.00    +0.000 NA
ENDBRANCH  12  13
ENDBRANCH  11  12
ENDBRANCH   4  11
TORSDOF 5
ENDMDL
MODEL 6
REMARK VINA RESULT:    -5.010      4.768      8.325
REMARK INTER + INTRA:          -6.779
REMARK INTER:                  -6.419
REMARK INTRA:                  -0.361
REMARK UNBOUND:                -0.451
REMARK  Name = 
REMARK  5 active torsions:
REMARK  status: ('A' for Active; 'I' for Inactive)
REMARK    1  A    between atoms: N_1  and  C_2
REMARK    2  A    between atoms: C_2  and  C_3
REMARK    3  A    between atoms: C_6  and  C_7
REMARK    4  A    between atoms: C_7  and  C_8
REMARK    5  A    between atoms: C_8  and  C_9
REMARK                            x       y       z     vdW  Elec       q    Type
REMARK                         _______ _______ _______ _____ _____    ______ ____
ROOT
ATOM      1  C   UNL     1      51.728   2.339  17.686  0.00  0.00    +0.000 A 
ATOM      2  C   UNL     1      51.779   3.731  17.841  0.00  0.00    +0.000 A 
ATOM      3  C   UNL     1      50.651   4.520  17.595  0.00  0.00    +0.000 A 
ATOM      4  C   UNL     1      49.450   3.936  17.172  0.00  0.00    +0.000 A 
ATOM      5  C   UNL     1      49.398   2.546  17.015  0.00  0.00    +0.000 A 
ATOM      6  C   UNL     1      50.525   1.756  17.268  0.00  0.00    +0.000 A 
ENDROOT
BRANCH   1   7
ATOM      7  C   UNL     1      52.948   1.491  17.944  0.00  0.00    +0.000 C 
BRANCH   7   8
ATOM      8  N   UNL     1      52.601   0.087  18.141  0.00  0.00    +0.000 NA
ATOM      9  H   UNL     1      53.393  -0.492  17.870  0.00  0.00    +0.000 HD
ATOM     10  H   UNL     1      51.839  -0.151  17.508  0.00  0.00    +0.000 HD
ENDBRANCH   7   8
ENDBRANCH   1   7
BRANCH   4  11
ATOM     11  C   UNL     1      48.221   4.782  16.922  0.00  0.00    +0.000 C 
BRANCH  11  12
ATOM     12  C   UNL     1      47.170   4.072  16.067  0.00  0.00    +0.000 C 
BRANCH  12  13
ATOM     13  C   UNL     1      46.998   4.756  14.739  0.00  0.00    +0.000 A 
ATOM     14  N   UNL     1      47.962   5.616  14.349  0.00  0.00    +0.000 NA
ATOM     15  C   UNL     1      47.792   6.200  13.147  0.00  0.00    +0.000 A 
ATOM     16  C   UNL     1      46.709   5.968  12.335  0.00  0.00    +0.000 A 
ATOM     17  C   UNL     1      45.777   5.087  12.830  0.00  0.00    +0.000 A 
ATOM     18  N   UNL     1      45.893   4.473  14.024  0.00  0.00    +0.000 NA
ENDBRANCH  12  13
ENDBRANCH  11  12
ENDBRANCH   4  11
TORSDOF 5
ENDMDL
MODEL 7
REMARK VINA RESULT:    -4.984      3.379      5.050
REMARK INTER + INTRA:          -6.746
REMARK INTER:                  -6.376
REMARK INTRA:                  -0.370
REMARK UNBOUND:                -0.451
REMARK  Name = 
REMARK  5 active torsions:
REMARK  status: ('A' for Active; 'I' for Inactive)
REMARK    1  A    between atoms: N_1  and  C_2
REMARK    2  A    between atoms: C_2  and  C_3
REMARK    3  A    between atoms: C_6  and  C_7
REMARK    4  A    between atoms: C_7  and  C_8
REMARK    5  A    between atoms: C_8  and  C_9
REMARK                            x       y       z     vdW  Elec       q    Type
REMARK                         _______ _______ _______ _____ _____    ______ ____
ROOT
ATOM      1  C   UNL     1      44.649   4.135  11.318  0.00  0.00    +0.000 A 
ATOM      2  C   UNL     1      44.834   4.185  12.706  0.00  0.00    +0.000 A 
ATOM      3  C   UNL     1      45.605   5.195  13.289  0.00  0.00    +0.000 A 
ATOM      4  C   UNL     1      46.222   6.171  12.496  0.00  0.00    +0.000 A 
ATOM      5  C   UNL     1      46.039   6.121  11.108  0.00  0.00    +0.000 A 
ATOM      6  C   UNL     1      45.261   5.114  10.526  0.00  0.00    +0.000 A 
ENDROOT
BRANCH   1   7
ATOM      7  C   UNL     1      43.823   3.040  10.691  0.00  0.00    +0.000 C 
BRANCH   7   8
ATOM      8  N   UNL     1      43.096   2.267  11.692  0.00  0.00    +0.000 NA
ATOM      9  H   UNL     1      43.120   1.282  11.435  0.00  0.00    +0.000 HD
ATOM     10  H   UNL     1      42.117   2.547  11.671  0.00  0.00    +0.000 HD
ENDBRANCH   7   8
ENDBRANCH   1   7
BRANCH   4  11
ATOM     11  C   UNL     1      47.042   7.277  13.122  0.00  0.00    +0.000 C 
BRANCH  11  12
ATOM     12  C   UNL     1      48.446   6.825  13.525  0.00  0.00    +0.000 C 
BRANCH  12  13
ATOM     13  C   UNL     1      48.567   6.694  15.018  0.00  0.00    +0.000 A 
ATOM     14  N   UNL     1      48.420   5.465  15.553  0.00  0.00    +0.000 NA
ATOM     15  C   UNL     1      48.551   5.373  16.890  0.00  0.00    +0.000 A 
ATOM     16  C   UNL     1      48.813   6.448  17.703  0.00  0.00    +0.000 A 
ATOM     17  C   UNL     1      48.931   7.658  17.064  0.00  0.00    +0.000 A 
ATOM     18  N   UNL     1      48.810   7.811  15.730  0.00  0.00    +0.000 NA
ENDBRANCH  12  13
ENDBRANCH  11  12
ENDBRANCH   4  11
TORSDOF 5
ENDMDL
MODEL 8
REMARK VINA RESULT:    -4.912      3.334      5.352
REMARK INTER + INTRA:          -6.656
REMARK INTER:                  -6.300
REMARK INTRA:                  -0.356
REMARK UNBOUND:                -0.451
REMARK  Name = 
REMARK  5 active torsions:
REMARK  status: ('A' for Active; 'I' for Inactive)
REMARK    1  A    between atoms: N_1  and  C_2
REMARK    2  A    between atoms: C_2  and  C_3
REMARK    3  A    between atoms: C_6  and  C_7
REMARK    4  A    between atoms: C_7  and  C_8
REMARK    5  A    between atoms: C_8  and  C_9
REMARK                            x       y       z     vdW  Elec       q    Type
REMARK                         _______ _______ _______ _____ _____    ______ ____
ROOT
ATOM      1  C   UNL     1      44.768   3.920  11.227  0.00  0.00    +0.000 A 
ATOM      2  C   UNL     1      44.984   5.089  10.485  0.00  0.00    +0.000 A 
ATOM      3  C   UNL     1      45.731   6.145  11.016  0.00  0.00    +0.000 A 
ATOM      4  C   UNL     1      46.266   6.063  12.308  0.00  0.00    +0.000 A 
ATOM      5  C   UNL     1      46.049   4.896  13.051  0.00  0.00    +0.000 A 
ATOM      6  C   UNL     1      45.308   3.836  12.517  0.00  0.00    +0.000 A 
ENDROOT
BRANCH   1   7
ATOM      7  C   UNL     1      43.956   2.785  10.655  0.00  0.00    +0.000 C 
BRANCH   7   8
ATOM      8  N   UNL     1      43.058   2.206  11.649  0.00  0.00    +0.000 NA
ATOM      9  H   UNL     1      43.593   1.596  12.264  0.00  0.00    +0.000 HD
ATOM     10  H   UNL     1      42.382   1.614  11.171  0.00  0.00    +0.000 HD
ENDBRANCH   7   8
ENDBRANCH   1   7
BRANCH   4  11
ATOM     11  C   UNL     1      47.090   7.195  12.881  0.00  0.00    +0.000 C 
BRANCH  11  12
ATOM     12  C   UNL     1      48.584   7.055  12.586  0.00  0.00    +0.000 C 
BRANCH  12  13
ATOM     13  C   UNL     1      49.398   7.162  13.847  0.00  0.00    +0.000 A 
ATOM     14  N   UNL     1      50.512   7.920  13.811  0.00  0.00    +0.000 NA
ATOM     15  C   UNL     1      51.212   8.014  14.958  0.00  0.00    +0.000 A 
ATOM     16  C   UNL     1      50.849   7.381  16.122  0.00  0.00    +0.000 A 
ATOM     17  C   UNL     1      49.707   6.621  16.051  0.00  0.00    +0.000 A 
ATOM     18  N   UNL     1      48.967   6.491  14.932  0.00  0.00    +0.000 NA
ENDBRANCH  12  13
ENDBRANCH  11  12
ENDBRANCH   4  11
TORSDOF 5
ENDMDL
MODEL 9
REMARK VINA RESULT:    -4.846      3.585      7.982
REMARK INTER + INTRA:          -6.572
REMARK INTER:                  -6.271
REMARK INTRA:                  -0.301
REMARK UNBOUND:                -0.451
REMARK  Name = 
REMARK  5 active torsions:
REMARK  status: ('A' for Active; 'I' for Inactive)
REMARK    1  A    between atoms: N_1  and  C_2
REMARK    2  A    between atoms: C_2  and  C_3
REMARK    3  A    between atoms: C_6  and  C_7
REMARK    4  A    between atoms: C_7  and  C_8
REMARK    5  A    between atoms: C_8  and  C_9
REMARK                            x       y       z     vdW  Elec       q    Type
REMARK                         _______ _______ _______ _____ _____    ______ ____
ROOT
ATOM      1  C   UNL     1      48.678   4.202  18.403  0.00  0.00    +0.000 A 
ATOM      2  C   UNL     1      48.045   5.247  17.717  0.00  0.00    +0.000 A 
ATOM      3  C   UNL     1      47.537   5.053  16.429  0.00  0.00    +0.000 A 
ATOM      4  C   UNL     1      47.664   3.812  15.791  0.00  0.00    +0.000 A 
ATOM      5  C   UNL     1      48.299   2.768  16.474  0.00  0.00    +0.000 A 
ATOM      6  C   UNL     1      48.800   2.960  17.766  0.00  0.00    +0.000 A 
ENDROOT
BRANCH   1   7
ATOM      7  C   UNL     1      49.232   4.416  19.790  0.00  0.00    +0.000 C 
BRANCH   7   8
ATOM      8  N   UNL     1      48.338   3.894  20.818  0.00  0.00    +0.000 NA
ATOM      9  H   UNL     1      48.679   2.986  21.126  0.00  0.00    +0.000 HD
ATOM     10  H   UNL     1      47.422   3.733  20.401  0.00  0.00    +0.000 HD
ENDBRANCH   7   8
ENDBRANCH   1   7
BRANCH   4  11
ATOM     11  C   UNL     1      47.100   3.590  14.405  0.00  0.00    +0.000 C 
BRANCH  11  12
ATOM     12  C   UNL     1      46.597   4.878  13.751  0.00  0.00    +0.000 C 
BRANCH  12  13
ATOM     13  C   UNL     1      45.294   4.649  13.035  0.00  0.00    +0.000 A 
ATOM     14  N   UNL     1      45.219   3.599  12.191  0.00  0.00    +0.000 NA
ATOM     15  C   UNL     1      44.035   3.406  11.578  0.00  0.00    +0.000 A 
ATOM     16  C   UNL     1      42.941   4.215  11.768  0.00  0.00    +0.000 A 
ATOM     17  C   UNL     1      43.124   5.264  12.635  0.00  0.00    +0.000 A 
ATOM     18  N   UNL     1      44.284   5.507  13.277  0.00  0.00    +0.000 NA
ENDBRANCH  12  13
ENDBRANCH  11  12
ENDBRANCH   4  11
TORSDOF 5
ENDMDL
