MODEL 1
REMARK VINA RESULT:    -7.825      0.000      0.000
REMARK INTER + INTRA:         -11.042
REMARK INTER:                 -10.112
REMARK INTRA:                  -0.930
REMARK UNBOUND:                -0.930
REMARK  Name = 
REMARK  7 active torsions:
REMARK  status: ('A' for Active; 'I' for Inactive)
REMARK    1  A    between atoms: C_1  and  C_2
REMARK    2  A    between atoms: C_2  and  C_3
REMARK    3  A    between atoms: C_2  and  C_4
REMARK    4  A    between atoms: C_2  and  C_15
REMARK    5  A    between atoms: C_4  and  N_5
REMARK    6  A    between atoms: N_5  and  C_6
REMARK    7  A    between atoms: C_9  and  C_10
REMARK                            x       y       z     vdW  Elec       q    Type
REMARK                         _______ _______ _______ _____ _____    ______ ____
ROOT
ATOM      1  N   UNL     1      43.692   3.283  10.157  0.00  0.00    +0.000 N 
ATOM      2  H   UNL     1      43.154   4.097   9.857  0.00  0.00    +0.000 HD
ENDROOT
BRANCH   1   3
ATOM      3  C   UNL     1      44.730   3.030   9.244  0.00  0.00    +0.000 A 
ATOM      4  C   UNL     1      45.225   1.748   8.982  0.00  0.00    +0.000 A 
ATOM      5  C   UNL     1      46.225   1.537   8.028  0.00  0.00    +0.000 A 
ATOM      6  C   UNL     1      46.723   2.604   7.276  0.00  0.00    +0.000 A 
ATOM      7  C   UNL     1      46.208   3.885   7.489  0.00  0.00    +0.000 A 
ATOM      8  C   UNL     1      45.208   4.087   8.451  0.00  0.00    +0.000 A 
BRANCH   6   9
ATOM      9  C   UNL     1      47.792   2.320   6.283  0.00  0.00    +0.000 C 
ATOM     10  N   UNL     1      47.817   3.078   5.147  0.00  0.00    +0.000 N 
ATOM     11  O   UNL     1      48.605   1.421   6.452  0.00  0.00    +0.000 OA
ATOM     12  H   UNL     1      47.034   3.642   4.856  0.00  0.00    +0.000 HD
ATOM     13  H   UNL     1      48.476   2.785   4.436  0.00  0.00    +0.000 HD
ENDBRANCH   6   9
ENDBRANCH   1   3
BRANCH   1  14
ATOM     14  C   UNL     1      44.054   3.395  11.578  0.00  0.00    +0.000 C 
BRANCH  14  16
ATOM     15  C   UNL     1      43.126   5.726  11.149  0.00  0.00    +0.000 C 
ATOM     16  C   UNL     1      43.942   4.850  12.132  0.00  0.00    +0.000 C 
ATOM     17  C   UNL     1      43.084   4.770  13.424  0.00  0.00    +0.000 C 
BRANCH  16  18
ATOM     18  C   UNL     1      45.344   5.438  12.408  0.00  0.00    +0.000 A 
ATOM     19  C   UNL     1      46.074   5.110  13.566  0.00  0.00    +0.000 A 
ATOM     20  C   UNL     1      47.357   5.621  13.789  0.00  0.00    +0.000 A 
ATOM     21  C   UNL     1      47.950   6.460  12.854  0.00  0.00    +0.000 A 
ATOM     22  C   UNL     1      47.258   6.794  11.696  0.00  0.00    +0.000 A 
ATOM     23  C   UNL     1      45.972   6.291  11.479  0.00  0.00    +0.000 A 
ENDBRANCH  16  18
ENDBRANCH  14  16
ENDBRANCH   1  14
TORSDOF 5
ENDMDL
MODEL 2
REMARK VINA RESULT:    -6.847      1.612      2.068
REMARK INTER + INTRA:          -9.778
REMARK INTER:                  -9.647
REMARK INTRA:                  -0.131
REMARK UNBOUND:                -0.930
REMARK  Name = 
REMARK  7 active torsions:
REMARK  status: ('A' for Active; 'I' for Inactive)
REMARK    1  A    between atoms: C_1  and  C_2
REMARK    2  A    between atoms: C_2  and  C_3
REMARK    3  A    between atoms: C_2  and  C_4
REMARK    4  A    between atoms: C_2  and  C_15
REMARK    5  A    between atoms: C_4  and  N_5
REMARK    6  A    between atoms: N_5  and  C_6
REMARK    7  A    between atoms: C_9  and  C_10
REMARK                            x       y       z     vdW  Elec       q    Type
REMARK                         _______ _______ _______ _____ _____    ______ ____
ROOT
ATOM      1  N   UNL     1      43.903   4.836   9.968  0.00  0.00    +0.000 N 
ATOM      2  H   UNL     1      43.221   5.216   9.311  0.00  0.00    +0.000 HD
ENDROOT
BRANCH   1   3
ATOM      3  C   UNL     1      44.699   3.870   9.330  0.00  0.00    +0.000 A 
ATOM      4  C   UNL     1      44.513   2.493   9.494  0.00  0.00    +0.000 A 
ATOM      5  C   UNL     1      45.297   1.567   8.800  0.00  0.00    +0.000 A 
ATOM      6  C   UNL     1      46.260   1.999   7.885  0.00  0.00    +0.000 A 
ATOM      7  C   UNL     1      46.429   3.369   7.670  0.00  0.00    +0.000 A 
ATOM      8  C   UNL     1      45.640   4.290   8.375  0.00  0.00    +0.000 A 
BRANCH   6   9
ATOM      9  C   UNL     1      47.069   0.968   7.183  0.00  0.00    +0.000 C 
ATOM     10  N   UNL     1      46.850  -0.340   7.513  0.00  0.00    +0.000 N 
ATOM     11  O   UNL     1      47.925   1.270   6.362  0.00  0.00    +0.000 OA
ATOM     12  H   UNL     1      46.351  -0.611   8.346  0.00  0.00    +0.000 HD
ATOM     13  H   UNL     1      47.496  -1.009   7.111  0.00  0.00    +0.000 HD
ENDBRANCH   6   9
ENDBRANCH   1   3
BRANCH   1  14
ATOM     14  C   UNL     1      44.596   5.920  10.682  0.00  0.00    +0.000 C 
BRANCH  14  16
ATOM     15  C   UNL     1      43.459   5.670  12.945  0.00  0.00    +0.000 C 
ATOM     16  C   UNL     1      44.815   5.620  12.198  0.00  0.00    +0.000 C 
ATOM     17  C   UNL     1      45.286   4.143  12.296  0.00  0.00    +0.000 C 
BRANCH  16  18
ATOM     18  C   UNL     1      45.849   6.595  12.803  0.00  0.00    +0.000 A 
ATOM     19  C   UNL     1      45.625   7.984  12.847  0.00  0.00    +0.000 A 
ATOM     20  C   UNL     1      46.552   8.855  13.428  0.00  0.00    +0.000 A 
ATOM     21  C   UNL     1      47.721   8.359  13.995  0.00  0.00    +0.000 A 
ATOM     22  C   UNL     1      47.965   6.991  13.975  0.00  0.00    +0.000 A 
ATOM     23  C   UNL     1      47.042   6.123  13.385  0.00  0.00    +0.000 A 
ENDBRANCH  16  18
ENDBRANCH  14  16
ENDBRANCH   1  14
TORSDOF 5
ENDMDL
MODEL 3
REMARK VINA RESULT:    -6.456      3.529      6.202
REMARK INTER + INTRA:          -9.273
REMARK INTER:                  -8.383
REMARK INTRA:                  -0.890
REMARK UNBOUND:                -0.930
REMARK  Name = 
REMARK  7 active torsions:
REMARK  status: ('A' for Active; 'I' for Inactive)
REMARK    1  A    between atoms: C_1  and  C_2
REMARK    2  A    between atoms: C_2  and  C_3
REMARK    3  A    between atoms: C_2  and  C_4
REMARK    4  A    between atoms: C_2  and  C_15
REMARK    5  A    between atoms: C_4  and  N_5
REMARK    6  A    between atoms: N_5  and  C_6
REMARK    7  A    between atoms: C_9  and  C_10
REMARK                            x       y       z     vdW  Elec       q    Type
REMARK                         _______ _______ _______ _____ _____    ______ ____
ROOT
ATOM      1  N   UNL     1      44.895   5.849  12.950  0.00  0.00    +0.000 N 
ATOM      2  H   UNL     1      44.747   5.847  13.959  0.00  0.00    +0.000 HD
ENDROOT
BRANCH   1   3
ATOM      3  C   UNL     1      45.820   6.848  12.602  0.00  0.00    +0.000 A 
ATOM      4  C   UNL     1      45.619   8.206  12.873  0.00  0.00    +0.000 A 
ATOM      5  C   UNL     1      46.590   9.161  12.554  0.00  0.00    +0.000 A 
ATOM      6  C   UNL     1      47.809   8.772  11.995  0.00  0.00    +0.000 A 
ATOM      7  C   UNL     1      48.048   7.416  11.760  0.00  0.00    +0.000 A 
ATOM      8  C   UNL     1      47.067   6.466  12.080  0.00  0.00    +0.000 A 
BRANCH   6   9
ATOM      9  C   UNL     1      48.798   9.832  11.669  0.00  0.00    +0.000 C 
ATOM     10  N   UNL     1      50.056   9.706  12.189  0.00  0.00    +0.000 N 
ATOM     11  O   UNL     1      48.499  10.804  10.987  0.00  0.00    +0.000 OA
ATOM     12  H   UNL     1      50.267   9.074  12.945  0.00  0.00    +0.000 HD
ATOM     13  H   UNL     1      50.670  10.499  12.052  0.00  0.00    +0.000 HD
ENDBRANCH   6   9
ENDBRANCH   1   3
BRANCH   1  14
ATOM     14  C   UNL     1      45.154   4.487  12.458  0.00  0.00    +0.000 C 
BRANCH  14  16
ATOM     15  C   UNL     1      43.344   2.780  11.922  0.00  0.00    +0.000 C 
ATOM     16  C   UNL     1      44.123   4.008  11.389  0.00  0.00    +0.000 C 
ATOM     17  C   UNL     1      43.066   5.139  11.252  0.00  0.00    +0.000 C 
BRANCH  16  18
ATOM     18  C   UNL     1      44.827   3.713  10.046  0.00  0.00    +0.000 A 
ATOM     19  C   UNL     1      45.376   4.737   9.253  0.00  0.00    +0.000 A 
ATOM     20  C   UNL     1      46.042   4.455   8.055  0.00  0.00    +0.000 A 
ATOM     21  C   UNL     1      46.189   3.141   7.627  0.00  0.00    +0.000 A 
ATOM     22  C   UNL     1      45.666   2.108   8.395  0.00  0.00    +0.000 A 
ATOM     23  C   UNL     1      44.992   2.392   9.586  0.00  0.00    +0.000 A 
ENDBRANCH  16  18
ENDBRANCH  14  16
ENDBRANCH   1  14
TORSDOF 5
ENDMDL
MODEL 4
REMARK VINA RESULT:    -6.098      3.514      6.032
REMARK INTER + INTRA:          -8.810
REMARK INTER:                  -7.995
REMARK INTRA:                  -0.815
REMARK UNBOUND:                -0.930
REMARK  Name = 
REMARK  7 active torsions:
REMARK  status: ('A' for Active; 'I' for Inactive)
REMARK    1  A    between atoms: C_1  and  C_2
REMARK    2  A    between atoms: C_2  and  C_3
REMARK    3  A    between atoms: C_2  and  C_4
REMARK    4  A    between atoms: C_2  and  C_15
REMARK    5  A    between atoms: C_4  and  N_5
REMARK    6  A    between atoms: N_5  and  C_6
REMARK    7  A    between atoms: C_9  and  C_10
REMARK                            x       y       z     vdW  Elec       q    Type
REMARK                         _______ _______ _______ _____ _____    ______ ____
ROOT
ATOM      1  N   UNL     1      45.786   6.047  13.245  0.00  0.00    +0.000 N 
ATOM      2  H   UNL     1      45.893   5.050  13.436  0.00  0.00    +0.000 HD
ENDROOT
BRANCH   1   3
ATOM      3  C   UNL     1      47.046   6.637  13.050  0.00  0.00    +0.000 A 
ATOM      4  C   UNL     1      48.073   6.582  13.998  0.00  0.00    +0.000 A 
ATOM      5  C   UNL     1      49.329   7.141  13.741  0.00  0.00    +0.000 A 
ATOM      6  C   UNL     1      49.601   7.731  12.504  0.00  0.00    +0.000 A 
ATOM      7  C   UNL     1      48.604   7.754  11.526  0.00  0.00    +0.000 A 
ATOM      8  C   UNL     1      47.347   7.194  11.796  0.00  0.00    +0.000 A 
BRANCH   6   9
ATOM      9  C   UNL     1      50.951   8.317  12.291  0.00  0.00    +0.000 C 
ATOM     10  N   UNL     1      51.874   7.554  11.632  0.00  0.00    +0.000 N 
ATOM     11  O   UNL     1      51.246   9.426  12.715  0.00  0.00    +0.000 OA
ATOM     12  H   UNL     1      51.758   6.563  11.496  0.00  0.00    +0.000 HD
ATOM     13  H   UNL     1      52.816   7.926  11.609  0.00  0.00    +0.000 HD
ENDBRANCH   6   9
ENDBRANCH   1   3
BRANCH   1  14
ATOM     14  C   UNL     1      44.766   6.271  12.210  0.00  0.00    +0.000 C 
BRANCH  14  16
ATOM     15  C   UNL     1      43.919   4.043  13.101  0.00  0.00    +0.000 C 
ATOM     16  C   UNL     1      43.928   4.996  11.880  0.00  0.00    +0.000 C 
ATOM     17  C   UNL     1      42.456   5.462  11.709  0.00  0.00    +0.000 C 
BRANCH  16  18
ATOM     18  C   UNL     1      44.464   4.305  10.607  0.00  0.00    +0.000 A 
ATOM     19  C   UNL     1      44.154   2.967  10.299  0.00  0.00    +0.000 A 
ATOM     20  C   UNL     1      44.617   2.362   9.127  0.00  0.00    +0.000 A 
ATOM     21  C   UNL     1      45.389   3.082   8.223  0.00  0.00    +0.000 A 
ATOM     22  C   UNL     1      45.703   4.408   8.494  0.00  0.00    +0.000 A 
ATOM     23  C   UNL     1      45.248   5.009   9.672  0.00  0.00    +0.000 A 
ENDBRANCH  16  18
ENDBRANCH  14  16
ENDBRANCH   1  14
TORSDOF 5
ENDMDL
MODEL 5
REMARK VINA RESULT:    -6.077      4.030      7.023
REMARK INTER + INTRA:          -8.783
REMARK INTER:                  -8.228
REMARK INTRA:                  -0.555
REMARK UNBOUND:                -0.930
REMARK  Name = 
REMARK  7 active torsions:
REMARK  status: ('A' for Active; 'I' for Inactive)
REMARK    1  A    between atoms: C_1  and  C_2
REMARK    2  A    between atoms: C_2  and  C_3
REMARK    3  A    between atoms: C_2  and  C_4
REMARK    4  A    between atoms: C_2  and  C_15
REMARK    5  A    between atoms: C_4  and  N_5
REMARK    6  A    between atoms: N_5  and  C_6
REMARK    7  A    between atoms: C_9  and  C_10
REMARK                            x       y       z     vdW  Elec       q    Type
REMARK                         _______ _______ _______ _____ _____    ______ ____
ROOT
ATOM      1  N   UNL     1      45.833   4.111  13.341  0.00  0.00    +0.000 N 
ATOM      2  H   UNL     1      46.273   3.283  12.938  0.00  0.00    +0.000 HD
ENDROOT
BRANCH   1   3
ATOM      3  C   UNL     1      46.726   4.750  14.218  0.00  0.00    +0.000 A 
ATOM      4  C   UNL     1      47.076   4.229  15.469  0.00  0.00    +0.000 A 
ATOM      5  C   UNL     1      48.008   4.874  16.288  0.00  0.00    +0.000 A 
ATOM      6  C   UNL     1      48.647   6.038  15.854  0.00  0.00    +0.000 A 
ATOM      7  C   UNL     1      48.346   6.549  14.589  0.00  0.00    +0.000 A 
ATOM      8  C   UNL     1      47.408   5.896  13.776  0.00  0.00    +0.000 A 
BRANCH   6   9
ATOM      9  C   UNL     1      49.621   6.684  16.773  0.00  0.00    +0.000 C 
ATOM     10  N   UNL     1      50.949   6.459  16.546  0.00  0.00    +0.000 N 
ATOM     11  O   UNL     1      49.257   7.369  17.720  0.00  0.00    +0.000 OA
ATOM     12  H   UNL     1      51.278   5.714  15.951  0.00  0.00    +0.000 HD
ATOM     13  H   UNL     1      51.582   6.809  17.255  0.00  0.00    +0.000 HD
ENDBRANCH   6   9
ENDBRANCH   1   3
BRANCH   1  14
ATOM     14  C   UNL     1      45.212   4.933  12.291  0.00  0.00    +0.000 C 
BRANCH  14  16
ATOM     15  C   UNL     1      43.617   2.951  12.198  0.00  0.00    +0.000 C 
ATOM     16  C   UNL     1      44.207   4.139  11.398  0.00  0.00    +0.000 C 
ATOM     17  C   UNL     1      43.008   5.089  11.126  0.00  0.00    +0.000 C 
BRANCH  16  18
ATOM     18  C   UNL     1      44.886   3.679  10.089  0.00  0.00    +0.000 A 
ATOM     19  C   UNL     1      44.971   2.321   9.733  0.00  0.00    +0.000 A 
ATOM     20  C   UNL     1      45.557   1.917   8.529  0.00  0.00    +0.000 A 
ATOM     21  C   UNL     1      46.060   2.862   7.642  0.00  0.00    +0.000 A 
ATOM     22  C   UNL     1      45.981   4.212   7.962  0.00  0.00    +0.000 A 
ATOM     23  C   UNL     1      45.404   4.613   9.170  0.00  0.00    +0.000 A 
ENDBRANCH  16  18
ENDBRANCH  14  16
ENDBRANCH   1  14
TORSDOF 5
ENDMDL
MODEL 6
REMARK VINA RESULT:    -6.014      4.103      6.273
REMARK INTER + INTRA:          -8.701
REMARK INTER:                  -8.136
REMARK INTRA:                  -0.565
REMARK UNBOUND:                -0.930
REMARK  Name = 
REMARK  7 active torsions:
REMARK  status: ('A' for Active; 'I' for Inactive)
REMARK    1  A    between atoms: C_1  and  C_2
REMARK    2  A    between atoms: C_2  and  C_3
REMARK    3  A    between atoms: C_2  and  C_4
REMARK    4  A    between atoms: C_2  and  C_15
REMARK    5  A    between atoms: C_4  and  N_5
REMARK    6  A    between atoms: N_5  and  C_6
REMARK    7  A    between atoms: C_9  and  C_10
REMARK                            x       y       z     vdW  Elec       q    Type
REMARK                         _______ _______ _______ _____ _____    ______ ____
ROOT
ATOM      1  N   UNL     1      47.387   5.442  14.760  0.00  0.00    +0.000 N 
ATOM      2  H   UNL     1      48.319   5.701  14.437  0.00  0.00    +0.000 HD
ENDROOT
BRANCH   1   3
ATOM      3  C   UNL     1      46.584   5.074  13.667  0.00  0.00    +0.000 A 
ATOM      4  C   UNL     1      46.209   5.967  12.657  0.00  0.00    +0.000 A 
ATOM      5  C   UNL     1      45.450   5.545  11.561  0.00  0.00    +0.000 A 
ATOM      6  C   UNL     1      45.086   4.203  11.426  0.00  0.00    +0.000 A 
ATOM      7  C   UNL     1      45.491   3.287  12.400  0.00  0.00    +0.000 A 
ATOM      8  C   UNL     1      46.249   3.721  13.497  0.00  0.00    +0.000 A 
BRANCH   6   9
ATOM      9  C   UNL     1      44.272   3.815  10.244  0.00  0.00    +0.000 C 
ATOM     10  N   UNL     1      44.082   4.756   9.272  0.00  0.00    +0.000 N 
ATOM     11  O   UNL     1      43.759   2.708  10.151  0.00  0.00    +0.000 OA
ATOM     12  H   UNL     1      44.265   5.736   9.424  0.00  0.00    +0.000 HD
ATOM     13  H   UNL     1      43.426   4.507   8.541  0.00  0.00    +0.000 HD
ENDBRANCH   6   9
ENDBRANCH   1   3
BRANCH   1  14
ATOM     14  C   UNL     1      47.470   4.499  15.886  0.00  0.00    +0.000 C 
BRANCH  14  16
ATOM     15  C   UNL     1      48.817   6.468  16.775  0.00  0.00    +0.000 C 
ATOM     16  C   UNL     1      48.360   5.015  17.060  0.00  0.00    +0.000 C 
ATOM     17  C   UNL     1      47.440   5.109  18.308  0.00  0.00    +0.000 C 
BRANCH  16  18
ATOM     18  C   UNL     1      49.555   4.066  17.297  0.00  0.00    +0.000 A 
ATOM     19  C   UNL     1      49.463   2.681  17.065  0.00  0.00    +0.000 A 
ATOM     20  C   UNL     1      50.561   1.835  17.250  0.00  0.00    +0.000 A 
ATOM     21  C   UNL     1      51.785   2.353  17.656  0.00  0.00    +0.000 A 
ATOM     22  C   UNL     1      51.910   3.718  17.882  0.00  0.00    +0.000 A 
ATOM     23  C   UNL     1      50.809   4.561  17.708  0.00  0.00    +0.000 A 
ENDBRANCH  16  18
ENDBRANCH  14  16
ENDBRANCH   1  14
TORSDOF 5
ENDMDL
MODEL 7
REMARK VINA RESULT:    -5.950      4.486      7.705
REMARK INTER + INTRA:          -8.619
REMARK INTER:                  -8.074
REMARK INTRA:                  -0.545
REMARK UNBOUND:                -0.930
REMARK  Name = 
REMARK  7 active torsions:
REMARK  status: ('A' for Active; 'I' for Inactive)
REMARK    1  A    between atoms: C_1  and  C_2
REMARK    2  A    between atoms: C_2  and  C_3
REMARK    3  A    between atoms: C_2  and  C_4
REMARK    4  A    between atoms: C_2  and  C_15
REMARK    5  A    between atoms: C_4  and  N_5
REMARK    6  A    between atoms: N_5  and  C_6
REMARK    7  A    between atoms: C_9  and  C_10
REMARK                            x       y       z     vdW  Elec       q    Type
REMARK                         _______ _______ _______ _____ _____    ______ ____
ROOT
ATOM      1  N   UNL     1      46.769   5.735  13.860  0.00  0.00    +0.000 N 
ATOM      2  H   UNL     1      46.149   6.515  14.080  0.00  0.00    +0.000 HD
ENDROOT
BRANCH   1   3
ATOM      3  C   UNL     1      47.448   5.320  15.019  0.00  0.00    +0.000 A 
ATOM      4  C   UNL     1      48.372   6.124  15.695  0.00  0.00    +0.000 A 
ATOM      5  C   UNL     1      48.987   5.689  16.874  0.00  0.00    +0.000 A 
ATOM      6  C   UNL     1      48.656   4.451  17.430  0.00  0.00    +0.000 A 
ATOM      7  C   UNL     1      47.700   3.654  16.796  0.00  0.00    +0.000 A 
ATOM      8  C   UNL     1      47.092   4.098  15.612  0.00  0.00    +0.000 A 
BRANCH   6   9
ATOM      9  C   UNL     1      49.349   4.039  18.679  0.00  0.00    +0.000 C 
ATOM     10  N   UNL     1      48.580   3.544  19.695  0.00  0.00    +0.000 N 
ATOM     11  O   UNL     1      50.559   4.164  18.815  0.00  0.00    +0.000 OA
ATOM     12  H   UNL     1      47.580   3.660  19.722  0.00  0.00    +0.000 HD
ATOM     13  H   UNL     1      49.060   3.386  20.572  0.00  0.00    +0.000 HD
ENDBRANCH   6   9
ENDBRANCH   1   3
BRANCH   1  14
ATOM     14  C   UNL     1      46.058   4.705  13.088  0.00  0.00    +0.000 C 
BRANCH  14  16
ATOM     15  C   UNL     1      43.605   5.300  12.757  0.00  0.00    +0.000 C 
ATOM     16  C   UNL     1      45.006   5.293  12.096  0.00  0.00    +0.000 C 
ATOM     17  C   UNL     1      45.373   6.789  11.893  0.00  0.00    +0.000 C 
BRANCH  16  18
ATOM     18  C   UNL     1      45.016   4.512  10.764  0.00  0.00    +0.000 A 
ATOM     19  C   UNL     1      44.436   3.235  10.645  0.00  0.00    +0.000 A 
ATOM     20  C   UNL     1      44.420   2.551   9.425  0.00  0.00    +0.000 A 
ATOM     21  C   UNL     1      44.971   3.131   8.289  0.00  0.00    +0.000 A 
ATOM     22  C   UNL     1      45.542   4.395   8.372  0.00  0.00    +0.000 A 
ATOM     23  C   UNL     1      45.566   5.073   9.594  0.00  0.00    +0.000 A 
ENDBRANCH  16  18
ENDBRANCH  14  16
ENDBRANCH   1  14
TORSDOF 5
ENDMDL
MODEL 8
REMARK VINA RESULT:    -5.326      3.560      6.094
REMARK INTER + INTRA:          -7.813
REMARK INTER:                  -7.093
REMARK INTRA:                  -0.719
REMARK UNBOUND:                -0.930
REMARK  Name = 
REMARK  7 active torsions:
REMARK  status: ('A' for Active; 'I' for Inactive)
REMARK    1  A    between atoms: C_1  and  C_2
REMARK    2  A    between atoms: C_2  and  C_3
REMARK    3  A    between atoms: C_2  and  C_4
REMARK    4  A    between atoms: C_2  and  C_15
REMARK    5  A    between atoms: C_4  and  N_5
REMARK    6  A    between atoms: N_5  and  C_6
REMARK    7  A    between atoms: C_9  and  C_10
REMARK                            x       y       z     vdW  Elec       q    Type
REMARK                         _______ _______ _______ _____ _____    ______ ____
ROOT
ATOM      1  N   UNL     1      47.183   7.069  13.842  0.00  0.00    +0.000 N 
ATOM      2  H   UNL     1      47.041   7.998  13.446  0.00  0.00    +0.000 HD
ENDROOT
BRANCH   1   3
ATOM      3  C   UNL     1      46.424   6.123  13.132  0.00  0.00    +0.000 A 
ATOM      4  C   UNL     1      45.937   6.345  11.839  0.00  0.00    +0.000 A 
ATOM      5  C   UNL     1      45.229   5.356  11.150  0.00  0.00    +0.000 A 
ATOM      6  C   UNL     1      45.030   4.098  11.724  0.00  0.00    +0.000 A 
ATOM      7  C   UNL     1      45.550   3.840  12.995  0.00  0.00    +0.000 A 
ATOM      8  C   UNL     1      46.255   4.840  13.679  0.00  0.00    +0.000 A 
BRANCH   6   9
ATOM      9  C   UNL     1      44.262   3.090  10.948  0.00  0.00    +0.000 C 
ATOM     10  N   UNL     1      44.922   2.417   9.958  0.00  0.00    +0.000 N 
ATOM     11  O   UNL     1      43.074   2.884  11.157  0.00  0.00    +0.000 OA
ATOM     12  H   UNL     1      45.807   2.729   9.589  0.00  0.00    +0.000 HD
ATOM     13  H   UNL     1      44.347   1.828   9.367  0.00  0.00    +0.000 HD
ENDBRANCH   6   9
ENDBRANCH   1   3
BRANCH   1  14
ATOM     14  C   UNL     1      48.617   6.792  14.019  0.00  0.00    +0.000 C 
BRANCH  14  16
ATOM     15  C   UNL     1      50.772   7.466  15.193  0.00  0.00    +0.000 C 
ATOM     16  C   UNL     1      49.225   7.467  15.287  0.00  0.00    +0.000 C 
ATOM     17  C   UNL     1      48.810   8.963  15.237  0.00  0.00    +0.000 C 
BRANCH  16  18
ATOM     18  C   UNL     1      48.721   6.772  16.571  0.00  0.00    +0.000 A 
ATOM     19  C   UNL     1      48.445   7.493  17.748  0.00  0.00    +0.000 A 
ATOM     20  C   UNL     1      47.956   6.858  18.895  0.00  0.00    +0.000 A 
ATOM     21  C   UNL     1      47.714   5.490  18.890  0.00  0.00    +0.000 A 
ATOM     22  C   UNL     1      47.967   4.753  17.739  0.00  0.00    +0.000 A 
ATOM     23  C   UNL     1      48.466   5.387  16.597  0.00  0.00    +0.000 A 
ENDBRANCH  16  18
ENDBRANCH  14  16
ENDBRANCH   1  14
TORSDOF 5
ENDMDL
MODEL 9
REMARK VINA RESULT:    -5.121      3.329      5.888
REMARK INTER + INTRA:          -7.547
REMARK INTER:                  -6.700
REMARK INTRA:                  -0.848
REMARK UNBOUND:                -0.930
REMARK  Name = 
REMARK  7 active torsions:
REMARK  status: ('A' for Active; 'I' for Inactive)
REMARK    1  A    between atoms: C_1  and  C_2
REMARK    2  A    between atoms: C_2  and  C_3
REMARK    3  A    between atoms: C_2  and  C_4
REMARK    4  A    between atoms: C_2  and  C_15
REMARK    5  A    between atoms: C_4  and  N_5
REMARK    6  A    between atoms: N_5  and  C_6
REMARK    7  A    between atoms: C_9  and  C_10
REMARK                            x       y       z     vdW  Elec       q    Type
REMARK                         _______ _______ _______ _____ _____    ______ ____
ROOT
ATOM      1  N   UNL     1      47.401   6.679  14.161  0.00  0.00    +0.000 N 
ATOM      2  H   UNL     1      46.907   7.511  14.486  0.00  0.00    +0.000 HD
ENDROOT
BRANCH   1   3
ATOM      3  C   UNL     1      46.628   6.008  13.198  0.00  0.00    +0.000 A 
ATOM      4  C   UNL     1      46.452   6.478  11.893  0.00  0.00    +0.000 A 
ATOM      5  C   UNL     1      45.715   5.751  10.952  0.00  0.00    +0.000 A 
ATOM      6  C   UNL     1      45.172   4.508  11.286  0.00  0.00    +0.000 A 
ATOM      7  C   UNL     1      45.378   3.998  12.570  0.00  0.00    +0.000 A 
ATOM      8  C   UNL     1      46.115   4.737  13.507  0.00  0.00    +0.000 A 
BRANCH   6   9
ATOM      9  C   UNL     1      44.391   3.786  10.248  0.00  0.00    +0.000 C 
ATOM     10  N   UNL     1      44.162   2.453  10.442  0.00  0.00    +0.000 N 
ATOM     11  O   UNL     1      43.990   4.347   9.237  0.00  0.00    +0.000 OA
ATOM     12  H   UNL     1      44.679   1.907  11.114  0.00  0.00    +0.000 HD
ATOM     13  H   UNL     1      43.736   1.962   9.666  0.00  0.00    +0.000 HD
ENDBRANCH   6   9
ENDBRANCH   1   3
BRANCH   1  14
ATOM     14  C   UNL     1      48.791   7.005  13.806  0.00  0.00    +0.000 C 
BRANCH  14  16
ATOM     15  C   UNL     1      48.377   8.967  15.373  0.00  0.00    +0.000 C 
ATOM     16  C   UNL     1      49.189   8.475  14.149  0.00  0.00    +0.000 C 
ATOM     17  C   UNL     1      50.668   8.437  14.622  0.00  0.00    +0.000 C 
BRANCH  16  18
ATOM     18  C   UNL     1      49.001   9.392  12.920  0.00  0.00    +0.000 A 
ATOM     19  C   UNL     1      47.756   9.965  12.602  0.00  0.00    +0.000 A 
ATOM     20  C   UNL     1      47.604  10.821  11.507  0.00  0.00    +0.000 A 
ATOM     21  C   UNL     1      48.697  11.140  10.710  0.00  0.00    +0.000 A 
ATOM     22  C   UNL     1      49.942  10.598  11.005  0.00  0.00    +0.000 A 
ATOM     23  C   UNL     1      50.090   9.734  12.093  0.00  0.00    +0.000 A 
ENDBRANCH  16  18
ENDBRANCH  14  16
ENDBRANCH   1  14
TORSDOF 5
ENDMDL
