MODEL 1
REMARK VINA RESULT:    -7.835      0.000      0.000
REMARK INTER + INTRA:         -13.583
REMARK INTER:                 -11.958
REMARK INTRA:                  -1.626
REMARK UNBOUND:                -1.626
REMARK  Name = 
REMARK  13 active torsions:
REMARK  status: ('A' for Active; 'I' for Inactive)
REMARK    1  A    between atoms: C_1  and  C_2
REMARK    2  A    between atoms: C_4  and  O_5
REMARK    3  A    between atoms: O_5  and  C_6
REMARK    4  A    between atoms: C_6  and  C_7
REMARK    5  A    between atoms: C_11  and  C_12
REMARK    6  A    between atoms: C_17  and  C_18
REMARK    7  A    between atoms: C_18  and  C_19
REMARK    8  A    between atoms: C_18  and  C_20
REMARK    9  A    between atoms: C_18  and  C_21
REMARK   10  A    between atoms: C_21  and  N_22
REMARK   11  A    between atoms: N_22  and  C_23
REMARK   12  A    between atoms: C_26  and  S_27
REMARK   13  A    between atoms: S_27  and  C_28
REMARK                            x       y       z     vdW  Elec       q    Type
REMARK                         _______ _______ _______ _____ _____    ______ ____
ROOT
ATOM      1  C   UNL     1      47.465   3.408  14.747  0.00  0.00    +0.000 C 
ATOM      2  C   UNL     1      46.766   4.279  13.747  0.00  0.00    +0.000 A 
ATOM      3  C   UNL     1      45.605   3.859  13.106  0.00  0.00    +0.000 A 
ATOM      4  C   UNL     1      44.993   4.690  12.170  0.00  0.00    +0.000 A 
ATOM      5  C   UNL     1      45.448   6.005  11.995  0.00  0.00    +0.000 A 
ATOM      6  C   UNL     1      46.580   6.484  12.685  0.00  0.00    +0.000 A 
ATOM      7  C   UNL     1      47.273   5.557  13.483  0.00  0.00    +0.000 A 
ENDROOT
BRANCH   6   8
ATOM      8  C   UNL     1      47.006   7.969  12.608  0.00  0.00    +0.000 C 
ATOM      9  C   UNL     1      48.335   8.082  11.825  0.00  0.00    +0.000 C 
ATOM     10  C   UNL     1      45.928   8.785  11.853  0.00  0.00    +0.000 C 
BRANCH   8  11
ATOM     11  C   UNL     1      47.242   8.666  13.996  0.00  0.00    +0.000 C 
BRANCH  11  12
ATOM     12  N   UNL     1      48.670   8.831  14.326  0.00  0.00    +0.000 N 
ATOM     13  H   UNL     1      48.942   9.800  14.472  0.00  0.00    +0.000 HD
BRANCH  12  14
ATOM     14  C   UNL     1      49.232   7.954  15.261  0.00  0.00    +0.000 A 
ATOM     15  C   UNL     1      48.510   7.460  16.351  0.00  0.00    +0.000 A 
ATOM     16  C   UNL     1      49.067   6.505  17.197  0.00  0.00    +0.000 A 
ATOM     17  C   UNL     1      50.350   6.071  16.916  0.00  0.00    +0.000 A 
ATOM     18  N   UNL     1      51.114   6.511  15.887  0.00  0.00    +0.000 NA
ATOM     19  C   UNL     1      50.521   7.430  15.083  0.00  0.00    +0.000 A 
BRANCH  17  20
ATOM     20  S   UNL     1      51.071   4.791  17.917  0.00  0.00    +0.000 S 
ATOM     21  C   UNL     1      50.088   4.724  19.389  0.00  0.00    +0.000 C 
ATOM     22  O   UNL     1      50.886   3.539  17.204  0.00  0.00    +0.000 OA
ATOM     23  O   UNL     1      52.400   5.241  18.292  0.00  0.00    +0.000 OA
ENDBRANCH  17  20
ENDBRANCH  12  14
ENDBRANCH  11  12
ENDBRANCH   8  11
ENDBRANCH   6   8
BRANCH   4  24
ATOM     24  O   UNL     1      43.903   4.300  11.438  0.00  0.00    +0.000 OA
BRANCH  24  25
ATOM     25  C   UNL     1      44.058   3.042  10.758  0.00  0.00    +0.000 C 
BRANCH  25  26
ATOM     26  C   UNL     1      44.865   3.155   9.479  0.00  0.00    +0.000 A 
ATOM     27  C   UNL     1      45.055   4.400   8.859  0.00  0.00    +0.000 A 
ATOM     28  C   UNL     1      45.949   4.542   7.797  0.00  0.00    +0.000 A 
ATOM     29  C   UNL     1      46.653   3.437   7.325  0.00  0.00    +0.000 A 
ATOM     30  C   UNL     1      46.423   2.176   7.880  0.00  0.00    +0.000 A 
ATOM     31  C   UNL     1      45.544   2.033   8.965  0.00  0.00    +0.000 A 
BRANCH  30  32
ATOM     32  C   UNL     1      47.145   1.020   7.295  0.00  0.00    +0.000 C 
ATOM     33  N   UNL     1      46.726  -0.224   7.676  0.00  0.00    +0.000 N 
ATOM     34  O   UNL     1      48.027   1.160   6.455  0.00  0.00    +0.000 OA
ATOM     35  H   UNL     1      45.837  -0.367   8.136  0.00  0.00    +0.000 HD
ATOM     36  H   UNL     1      47.097  -0.994   7.132  0.00  0.00    +0.000 HD
ENDBRANCH  30  32
ENDBRANCH  25  26
ENDBRANCH  24  25
ENDBRANCH   4  24
TORSDOF 9
ENDMDL
MODEL 2
REMARK VINA RESULT:    -7.696      3.412      8.874
REMARK INTER + INTRA:         -13.370
REMARK INTER:                 -12.105
REMARK INTRA:                  -1.265
REMARK UNBOUND:                -1.626
REMARK  Name = 
REMARK  13 active torsions:
REMARK  status: ('A' for Active; 'I' for Inactive)
REMARK    1  A    between atoms: C_1  and  C_2
REMARK    2  A    between atoms: C_4  and  O_5
REMARK    3  A    between atoms: O_5  and  C_6
REMARK    4  A    between atoms: C_6  and  C_7
REMARK    5  A    between atoms: C_11  and  C_12
REMARK    6  A    between atoms: C_17  and  C_18
REMARK    7  A    between atoms: C_18  and  C_19
REMARK    8  A    between atoms: C_18  and  C_20
REMARK    9  A    between atoms: C_18  and  C_21
REMARK   10  A    between atoms: C_21  and  N_22
REMARK   11  A    between atoms: N_22  and  C_23
REMARK   12  A    between atoms: C_26  and  S_27
REMARK   13  A    between atoms: S_27  and  C_28
REMARK                            x       y       z     vdW  Elec       q    Type
REMARK                         _______ _______ _______ _____ _____    ______ ____
ROOT
ATOM      1  C   UNL     1      48.197   7.890  13.155  0.00  0.00    +0.000 C 
ATOM      2  C   UNL     1      47.410   6.625  13.321  0.00  0.00    +0.000 A 
ATOM      3  C   UNL     1      47.847   5.605  14.158  0.00  0.00    +0.000 A 
ATOM      4  C   UNL     1      47.096   4.436  14.273  0.00  0.00    +0.000 A 
ATOM      5  C   UNL     1      45.829   4.355  13.678  0.00  0.00    +0.000 A 
ATOM      6  C   UNL     1      45.326   5.404  12.882  0.00  0.00    +0.000 A 
ATOM      7  C   UNL     1      46.191   6.486  12.646  0.00  0.00    +0.000 A 
ENDROOT
BRANCH   6   8
ATOM      8  C   UNL     1      43.878   5.385  12.339  0.00  0.00    +0.000 C 
ATOM      9  C   UNL     1      42.884   5.438  13.522  0.00  0.00    +0.000 C 
ATOM     10  C   UNL     1      43.637   6.628  11.447  0.00  0.00    +0.000 C 
BRANCH   8  11
ATOM     11  C   UNL     1      43.503   4.116  11.493  0.00  0.00    +0.000 C 
BRANCH  11  12
ATOM     12  N   UNL     1      43.533   4.359  10.038  0.00  0.00    +0.000 N 
ATOM     13  H   UNL     1      43.402   5.337   9.789  0.00  0.00    +0.000 HD
BRANCH  12  14
ATOM     14  C   UNL     1      44.534   3.730   9.288  0.00  0.00    +0.000 A 
ATOM     15  C   UNL     1      44.702   2.342   9.283  0.00  0.00    +0.000 A 
ATOM     16  C   UNL     1      45.636   1.744   8.441  0.00  0.00    +0.000 A 
ATOM     17  C   UNL     1      46.380   2.572   7.619  0.00  0.00    +0.000 A 
ATOM     18  N   UNL     1      46.281   3.923   7.578  0.00  0.00    +0.000 NA
ATOM     19  C   UNL     1      45.347   4.456   8.405  0.00  0.00    +0.000 A 
BRANCH  17  20
ATOM     20  S   UNL     1      47.522   1.848   6.465  0.00  0.00    +0.000 S 
ATOM     21  C   UNL     1      47.177   2.613   4.906  0.00  0.00    +0.000 C 
ATOM     22  O   UNL     1      48.856   2.256   6.874  0.00  0.00    +0.000 OA
ATOM     23  O   UNL     1      47.180   0.440   6.354  0.00  0.00    +0.000 OA
ENDBRANCH  17  20
ENDBRANCH  12  14
ENDBRANCH  11  12
ENDBRANCH   8  11
ENDBRANCH   6   8
BRANCH   4  24
ATOM     24  O   UNL     1      47.516   3.358  15.007  0.00  0.00    +0.000 OA
BRANCH  24  25
ATOM     25  C   UNL     1      47.625   3.603  16.420  0.00  0.00    +0.000 C 
BRANCH  25  26
ATOM     26  C   UNL     1      49.060   3.749  16.888  0.00  0.00    +0.000 A 
ATOM     27  C   UNL     1      49.540   4.985  17.350  0.00  0.00    +0.000 A 
ATOM     28  C   UNL     1      50.792   5.084  17.959  0.00  0.00    +0.000 A 
ATOM     29  C   UNL     1      51.592   3.953  18.098  0.00  0.00    +0.000 A 
ATOM     30  C   UNL     1      51.163   2.729  17.578  0.00  0.00    +0.000 A 
ATOM     31  C   UNL     1      49.895   2.620  16.988  0.00  0.00    +0.000 A 
BRANCH  30  32
ATOM     32  C   UNL     1      52.083   1.571  17.690  0.00  0.00    +0.000 C 
ATOM     33  N   UNL     1      51.516   0.362  17.987  0.00  0.00    +0.000 N 
ATOM     34  O   UNL     1      53.282   1.666  17.458  0.00  0.00    +0.000 OA
ATOM     35  H   UNL     1      50.521   0.209  17.903  0.00  0.00    +0.000 HD
ATOM     36  H   UNL     1      52.122  -0.442  17.874  0.00  0.00    +0.000 HD
ENDBRANCH  30  32
ENDBRANCH  25  26
ENDBRANCH  24  25
ENDBRANCH   4  24
TORSDOF 9
ENDMDL
MODEL 3
REMARK VINA RESULT:    -7.441      3.397      8.929
REMARK INTER + INTRA:         -12.982
REMARK INTER:                 -11.898
REMARK INTRA:                  -1.083
REMARK UNBOUND:                -1.626
REMARK  Name = 
REMARK  13 active torsions:
REMARK  status: ('A' for Active; 'I' for Inactive)
REMARK    1  A    between atoms: C_1  and  C_2
REMARK    2  A    between atoms: C_4  and  O_5
REMARK    3  A    between atoms: O_5  and  C_6
REMARK    4  A    between atoms: C_6  and  C_7
REMARK    5  A    between atoms: C_11  and  C_12
REMARK    6  A    between atoms: C_17  and  C_18
REMARK    7  A    between atoms: C_18  and  C_19
REMARK    8  A    between atoms: C_18  and  C_20
REMARK    9  A    between atoms: C_18  and  C_21
REMARK   10  A    between atoms: C_21  and  N_22
REMARK   11  A    between atoms: N_22  and  C_23
REMARK   12  A    between atoms: C_26  and  S_27
REMARK   13  A    between atoms: S_27  and  C_28
REMARK                            x       y       z     vdW  Elec       q    Type
REMARK                         _______ _______ _______ _____ _____    ______ ____
ROOT
ATOM      1  C   UNL     1      45.870  10.236  12.119  0.00  0.00    +0.000 C 
ATOM      2  C   UNL     1      46.203   8.799  12.384  0.00  0.00    +0.000 A 
ATOM      3  C   UNL     1      47.391   8.434  13.008  0.00  0.00    +0.000 A 
ATOM      4  C   UNL     1      47.673   7.086  13.222  0.00  0.00    +0.000 A 
ATOM      5  C   UNL     1      46.696   6.114  12.960  0.00  0.00    +0.000 A 
ATOM      6  C   UNL     1      45.453   6.462  12.394  0.00  0.00    +0.000 A 
ATOM      7  C   UNL     1      45.280   7.808  12.028  0.00  0.00    +0.000 A 
ENDROOT
BRANCH   6   8
ATOM      8  C   UNL     1      44.319   5.422  12.232  0.00  0.00    +0.000 C 
ATOM      9  C   UNL     1      44.877   4.005  12.505  0.00  0.00    +0.000 C 
ATOM     10  C   UNL     1      43.196   5.707  13.259  0.00  0.00    +0.000 C 
BRANCH   8  11
ATOM     11  C   UNL     1      43.659   5.378  10.807  0.00  0.00    +0.000 C 
BRANCH  11  12
ATOM     12  N   UNL     1      43.467   4.005  10.301  0.00  0.00    +0.000 N 
ATOM     13  H   UNL     1      42.525   3.829   9.959  0.00  0.00    +0.000 HD
BRANCH  12  14
ATOM     14  C   UNL     1      44.462   3.465   9.478  0.00  0.00    +0.000 A 
ATOM     15  C   UNL     1      44.709   2.091   9.409  0.00  0.00    +0.000 A 
ATOM     16  C   UNL     1      45.631   1.581   8.498  0.00  0.00    +0.000 A 
ATOM     17  C   UNL     1      46.282   2.482   7.674  0.00  0.00    +0.000 A 
ATOM     18  N   UNL     1      46.103   3.825   7.691  0.00  0.00    +0.000 NA
ATOM     19  C   UNL     1      45.184   4.270   8.585  0.00  0.00    +0.000 A 
BRANCH  17  20
ATOM     20  S   UNL     1      47.403   1.870   6.437  0.00  0.00    +0.000 S 
ATOM     21  C   UNL     1      46.986   2.732   4.946  0.00  0.00    +0.000 C 
ATOM     22  O   UNL     1      48.738   2.285   6.830  0.00  0.00    +0.000 OA
ATOM     23  O   UNL     1      47.092   0.465   6.238  0.00  0.00    +0.000 OA
ENDBRANCH  17  20
ENDBRANCH  12  14
ENDBRANCH  11  12
ENDBRANCH   8  11
ENDBRANCH   6   8
BRANCH   4  24
ATOM     24  O   UNL     1      48.863   6.655  13.747  0.00  0.00    +0.000 OA
BRANCH  24  25
ATOM     25  C   UNL     1      49.340   7.429  14.861  0.00  0.00    +0.000 C 
BRANCH  25  26
ATOM     26  C   UNL     1      48.922   6.857  16.202  0.00  0.00    +0.000 A 
ATOM     27  C   UNL     1      48.720   7.698  17.308  0.00  0.00    +0.000 A 
ATOM     28  C   UNL     1      48.154   7.209  18.486  0.00  0.00    +0.000 A 
ATOM     29  C   UNL     1      47.799   5.866  18.584  0.00  0.00    +0.000 A 
ATOM     30  C   UNL     1      48.060   4.997  17.522  0.00  0.00    +0.000 A 
ATOM     31  C   UNL     1      48.606   5.490  16.326  0.00  0.00    +0.000 A 
BRANCH  30  32
ATOM     32  C   UNL     1      47.728   3.563  17.703  0.00  0.00    +0.000 C 
ATOM     33  N   UNL     1      48.683   2.780  18.289  0.00  0.00    +0.000 N 
ATOM     34  O   UNL     1      46.628   3.107  17.412  0.00  0.00    +0.000 OA
ATOM     35  H   UNL     1      49.467   3.182  18.785  0.00  0.00    +0.000 HD
ATOM     36  H   UNL     1      48.376   1.858  18.575  0.00  0.00    +0.000 HD
ENDBRANCH  30  32
ENDBRANCH  25  26
ENDBRANCH  24  25
ENDBRANCH   4  24
TORSDOF 9
ENDMDL
MODEL 4
REMARK VINA RESULT:    -7.197      3.089      8.196
REMARK INTER + INTRA:         -12.609
REMARK INTER:                 -10.766
REMARK INTRA:                  -1.843
REMARK UNBOUND:                -1.626
REMARK  Name = 
REMARK  13 active torsions:
REMARK  status: ('A' for Active; 'I' for Inactive)
REMARK    1  A    between atoms: C_1  and  C_2
REMARK    2  A    between atoms: C_4  and  O_5
REMARK    3  A    between atoms: O_5  and  C_6
REMARK    4  A    between atoms: C_6  and  C_7
REMARK    5  A    between atoms: C_11  and  C_12
REMARK    6  A    between atoms: C_17  and  C_18
REMARK    7  A    between atoms: C_18  and  C_19
REMARK    8  A    between atoms: C_18  and  C_20
REMARK    9  A    between atoms: C_18  and  C_21
REMARK   10  A    between atoms: C_21  and  N_22
REMARK   11  A    between atoms: N_22  and  C_23
REMARK   12  A    between atoms: C_26  and  S_27
REMARK   13  A    between atoms: S_27  and  C_28
REMARK                            x       y       z     vdW  Elec       q    Type
REMARK                         _______ _______ _______ _____ _____    ______ ____
ROOT
ATOM      1  C   UNL     1      53.515   6.471  16.361  0.00  0.00    +0.000 C 
ATOM      2  C   UNL     1      52.094   6.900  16.570  0.00  0.00    +0.000 A 
ATOM      3  C   UNL     1      51.556   7.028  17.846  0.00  0.00    +0.000 A 
ATOM      4  C   UNL     1      50.225   7.413  18.000  0.00  0.00    +0.000 A 
ATOM      5  C   UNL     1      49.481   7.828  16.885  0.00  0.00    +0.000 A 
ATOM      6  C   UNL     1      50.024   7.779  15.585  0.00  0.00    +0.000 A 
ATOM      7  C   UNL     1      51.305   7.215  15.456  0.00  0.00    +0.000 A 
ENDROOT
BRANCH   6   8
ATOM      8  C   UNL     1      49.267   8.364  14.370  0.00  0.00    +0.000 C 
ATOM      9  C   UNL     1      49.001   9.869  14.605  0.00  0.00    +0.000 C 
ATOM     10  C   UNL     1      50.131   8.217  13.093  0.00  0.00    +0.000 C 
BRANCH   8  11
ATOM     11  C   UNL     1      47.872   7.702  14.075  0.00  0.00    +0.000 C 
BRANCH  11  12
ATOM     12  N   UNL     1      47.912   6.228  14.108  0.00  0.00    +0.000 N 
ATOM     13  H   UNL     1      47.926   5.845  15.050  0.00  0.00    +0.000 HD
BRANCH  12  14
ATOM     14  C   UNL     1      47.062   5.530  13.242  0.00  0.00    +0.000 A 
ATOM     15  C   UNL     1      46.529   4.279  13.566  0.00  0.00    +0.000 A 
ATOM     16  C   UNL     1      45.601   3.665  12.729  0.00  0.00    +0.000 A 
ATOM     17  C   UNL     1      45.234   4.338  11.577  0.00  0.00    +0.000 A 
ATOM     18  N   UNL     1      45.716   5.545  11.192  0.00  0.00    +0.000 NA
ATOM     19  C   UNL     1      46.605   6.108  12.048  0.00  0.00    +0.000 A 
BRANCH  17  20
ATOM     20  S   UNL     1      43.989   3.634  10.521  0.00  0.00    +0.000 S 
ATOM     21  C   UNL     1      44.841   2.486   9.476  0.00  0.00    +0.000 C 
ATOM     22  O   UNL     1      43.089   2.875  11.373  0.00  0.00    +0.000 OA
ATOM     23  O   UNL     1      43.485   4.708   9.682  0.00  0.00    +0.000 OA
ENDBRANCH  17  20
ENDBRANCH  12  14
ENDBRANCH  11  12
ENDBRANCH   8  11
ENDBRANCH   6   8
BRANCH   4  24
ATOM     24  O   UNL     1      49.609   7.468  19.221  0.00  0.00    +0.000 OA
BRANCH  24  25
ATOM     25  C   UNL     1      49.437   6.192  19.863  0.00  0.00    +0.000 C 
BRANCH  25  26
ATOM     26  C   UNL     1      48.877   5.132  18.934  0.00  0.00    +0.000 A 
ATOM     27  C   UNL     1      47.569   5.236  18.434  0.00  0.00    +0.000 A 
ATOM     28  C   UNL     1      47.114   4.374  17.436  0.00  0.00    +0.000 A 
ATOM     29  C   UNL     1      47.952   3.382  16.934  0.00  0.00    +0.000 A 
ATOM     30  C   UNL     1      49.232   3.215  17.470  0.00  0.00    +0.000 A 
ATOM     31  C   UNL     1      49.702   4.096  18.457  0.00  0.00    +0.000 A 
BRANCH  30  32
ATOM     32  C   UNL     1      50.059   2.100  16.951  0.00  0.00    +0.000 C 
ATOM     33  N   UNL     1      51.054   1.640  17.768  0.00  0.00    +0.000 N 
ATOM     34  O   UNL     1      49.826   1.561  15.875  0.00  0.00    +0.000 OA
ATOM     35  H   UNL     1      51.082   1.872  18.751  0.00  0.00    +0.000 HD
ATOM     36  H   UNL     1      51.482   0.767  17.484  0.00  0.00    +0.000 HD
ENDBRANCH  30  32
ENDBRANCH  25  26
ENDBRANCH  24  25
ENDBRANCH   4  24
TORSDOF 9
ENDMDL
MODEL 5
REMARK VINA RESULT:    -7.052      3.497      8.194
REMARK INTER + INTRA:         -12.387
REMARK INTER:                 -10.445
REMARK INTRA:                  -1.943
REMARK UNBOUND:                -1.626
REMARK  Name = 
REMARK  13 active torsions:
REMARK  status: ('A' for Active; 'I' for Inactive)
REMARK    1  A    between atoms: C_1  and  C_2
REMARK    2  A    between atoms: C_4  and  O_5
REMARK    3  A    between atoms: O_5  and  C_6
REMARK    4  A    between atoms: C_6  and  C_7
REMARK    5  A    between atoms: C_11  and  C_12
REMARK    6  A    between atoms: C_17  and  C_18
REMARK    7  A    between atoms: C_18  and  C_19
REMARK    8  A    between atoms: C_18  and  C_20
REMARK    9  A    between atoms: C_18  and  C_21
REMARK   10  A    between atoms: C_21  and  N_22
REMARK   11  A    between atoms: N_22  and  C_23
REMARK   12  A    between atoms: C_26  and  S_27
REMARK   13  A    between atoms: S_27  and  C_28
REMARK                            x       y       z     vdW  Elec       q    Type
REMARK                         _______ _______ _______ _____ _____    ______ ____
ROOT
ATOM      1  C   UNL     1      46.539  10.435  19.700  0.00  0.00    +0.000 C 
ATOM      2  C   UNL     1      47.623   9.598  19.094  0.00  0.00    +0.000 A 
ATOM      3  C   UNL     1      48.214   8.555  19.799  0.00  0.00    +0.000 A 
ATOM      4  C   UNL     1      49.232   7.809  19.207  0.00  0.00    +0.000 A 
ATOM      5  C   UNL     1      49.546   8.001  17.854  0.00  0.00    +0.000 A 
ATOM      6  C   UNL     1      48.913   9.004  17.091  0.00  0.00    +0.000 A 
ATOM      7  C   UNL     1      48.024   9.850  17.775  0.00  0.00    +0.000 A 
ENDROOT
BRANCH   6   8
ATOM      8  C   UNL     1      49.149   9.132  15.568  0.00  0.00    +0.000 C 
ATOM      9  C   UNL     1      49.419  10.614  15.213  0.00  0.00    +0.000 C 
ATOM     10  C   UNL     1      50.390   8.302  15.158  0.00  0.00    +0.000 C 
BRANCH   8  11
ATOM     11  C   UNL     1      47.949   8.666  14.669  0.00  0.00    +0.000 C 
BRANCH  11  12
ATOM     12  N   UNL     1      48.278   7.508  13.817  0.00  0.00    +0.000 N 
ATOM     13  H   UNL     1      49.106   7.003  14.125  0.00  0.00    +0.000 HD
BRANCH  12  14
ATOM     14  C   UNL     1      47.233   6.664  13.423  0.00  0.00    +0.000 A 
ATOM     15  C   UNL     1      47.194   5.311  13.771  0.00  0.00    +0.000 A 
ATOM     16  C   UNL     1      46.085   4.529  13.457  0.00  0.00    +0.000 A 
ATOM     17  C   UNL     1      45.037   5.142  12.793  0.00  0.00    +0.000 A 
ATOM     18  N   UNL     1      45.009   6.443  12.414  0.00  0.00    +0.000 NA
ATOM     19  C   UNL     1      46.105   7.165  12.757  0.00  0.00    +0.000 A 
BRANCH  17  20
ATOM     20  S   UNL     1      43.566   4.207  12.447  0.00  0.00    +0.000 S 
ATOM     21  C   UNL     1      43.614   3.863  10.710  0.00  0.00    +0.000 C 
ATOM     22  O   UNL     1      43.689   2.943  13.153  0.00  0.00    +0.000 OA
ATOM     23  O   UNL     1      42.435   5.085  12.694  0.00  0.00    +0.000 OA
ENDBRANCH  17  20
ENDBRANCH  12  14
ENDBRANCH  11  12
ENDBRANCH   8  11
ENDBRANCH   6   8
BRANCH   4  24
ATOM     24  O   UNL     1      49.916   6.831  19.878  0.00  0.00    +0.000 OA
BRANCH  24  25
ATOM     25  C   UNL     1      49.105   5.727  20.316  0.00  0.00    +0.000 C 
BRANCH  25  26
ATOM     26  C   UNL     1      48.665   4.826  19.179  0.00  0.00    +0.000 A 
ATOM     27  C   UNL     1      47.439   5.039  18.529  0.00  0.00    +0.000 A 
ATOM     28  C   UNL     1      47.114   4.341  17.365  0.00  0.00    +0.000 A 
ATOM     29  C   UNL     1      48.003   3.404  16.843  0.00  0.00    +0.000 A 
ATOM     30  C   UNL     1      49.195   3.125  17.515  0.00  0.00    +0.000 A 
ATOM     31  C   UNL     1      49.536   3.843  18.672  0.00  0.00    +0.000 A 
BRANCH  30  32
ATOM     32  C   UNL     1      50.073   2.069  16.955  0.00  0.00    +0.000 C 
ATOM     33  N   UNL     1      51.077   1.613  17.763  0.00  0.00    +0.000 N 
ATOM     34  O   UNL     1      49.874   1.571  15.853  0.00  0.00    +0.000 OA
ATOM     35  H   UNL     1      51.085   1.800  18.756  0.00  0.00    +0.000 HD
ATOM     36  H   UNL     1      51.544   0.772  17.445  0.00  0.00    +0.000 HD
ENDBRANCH  30  32
ENDBRANCH  25  26
ENDBRANCH  24  25
ENDBRANCH   4  24
TORSDOF 9
ENDMDL
MODEL 6
REMARK VINA RESULT:    -6.890      3.071      8.416
REMARK INTER + INTRA:         -12.141
REMARK INTER:                 -10.550
REMARK INTRA:                  -1.591
REMARK UNBOUND:                -1.626
REMARK  Name = 
REMARK  13 active torsions:
REMARK  status: ('A' for Active; 'I' for Inactive)
REMARK    1  A    between atoms: C_1  and  C_2
REMARK    2  A    between atoms: C_4  and  O_5
REMARK    3  A    between atoms: O_5  and  C_6
REMARK    4  A    between atoms: C_6  and  C_7
REMARK    5  A    between atoms: C_11  and  C_12
REMARK    6  A    between atoms: C_17  and  C_18
REMARK    7  A    between atoms: C_18  and  C_19
REMARK    8  A    between atoms: C_18  and  C_20
REMARK    9  A    between atoms: C_18  and  C_21
REMARK   10  A    between atoms: C_21  and  N_22
REMARK   11  A    between atoms: N_22  and  C_23
REMARK   12  A    between atoms: C_26  and  S_27
REMARK   13  A    between atoms: S_27  and  C_28
REMARK                            x       y       z     vdW  Elec       q    Type
REMARK                         _______ _______ _______ _____ _____    ______ ____
ROOT
ATOM      1  C   UNL     1      47.474   8.640  19.738  0.00  0.00    +0.000 C 
ATOM      2  C   UNL     1      48.577   8.258  18.798  0.00  0.00    +0.000 A 
ATOM      3  C   UNL     1      49.658   7.492  19.223  0.00  0.00    +0.000 A 
ATOM      4  C   UNL     1      50.673   7.171  18.323  0.00  0.00    +0.000 A 
ATOM      5  C   UNL     1      50.528   7.477  16.962  0.00  0.00    +0.000 A 
ATOM      6  C   UNL     1      49.408   8.190  16.489  0.00  0.00    +0.000 A 
ATOM      7  C   UNL     1      48.498   8.650  17.456  0.00  0.00    +0.000 A 
ENDROOT
BRANCH   6   8
ATOM      8  C   UNL     1      49.168   8.410  14.977  0.00  0.00    +0.000 C 
ATOM      9  C   UNL     1      49.217   9.925  14.664  0.00  0.00    +0.000 C 
ATOM     10  C   UNL     1      50.283   7.711  14.162  0.00  0.00    +0.000 C 
BRANCH   8  11
ATOM     11  C   UNL     1      47.789   7.885  14.440  0.00  0.00    +0.000 C 
BRANCH  11  12
ATOM     12  N   UNL     1      47.739   6.417  14.310  0.00  0.00    +0.000 N 
ATOM     13  H   UNL     1      47.799   5.930  15.202  0.00  0.00    +0.000 HD
BRANCH  12  14
ATOM     14  C   UNL     1      46.785   5.867  13.445  0.00  0.00    +0.000 A 
ATOM     15  C   UNL     1      46.506   6.419  12.192  0.00  0.00    +0.000 A 
ATOM     16  C   UNL     1      45.632   5.782  11.315  0.00  0.00    +0.000 A 
ATOM     17  C   UNL     1      45.058   4.595  11.732  0.00  0.00    +0.000 A 
ATOM     18  N   UNL     1      45.271   4.006  12.934  0.00  0.00    +0.000 NA
ATOM     19  C   UNL     1      46.142   4.657  13.746  0.00  0.00    +0.000 A 
BRANCH  17  20
ATOM     20  S   UNL     1      44.004   3.702  10.614  0.00  0.00    +0.000 S 
ATOM     21  C   UNL     1      45.045   2.502   9.829  0.00  0.00    +0.000 C 
ATOM     22  O   UNL     1      43.034   2.985  11.424  0.00  0.00    +0.000 OA
ATOM     23  O   UNL     1      43.568   4.643   9.596  0.00  0.00    +0.000 OA
ENDBRANCH  17  20
ENDBRANCH  12  14
ENDBRANCH  11  12
ENDBRANCH   8  11
ENDBRANCH   6   8
BRANCH   4  24
ATOM     24  O   UNL     1      51.807   6.499  18.699  0.00  0.00    +0.000 OA
BRANCH  24  25
ATOM     25  C   UNL     1      51.567   5.260  19.386  0.00  0.00    +0.000 C 
BRANCH  25  26
ATOM     26  C   UNL     1      51.216   4.120  18.450  0.00  0.00    +0.000 A 
ATOM     27  C   UNL     1      52.147   3.106  18.175  0.00  0.00    +0.000 A 
ATOM     28  C   UNL     1      51.772   1.960  17.472  0.00  0.00    +0.000 A 
ATOM     29  C   UNL     1      50.464   1.818  17.017  0.00  0.00    +0.000 A 
ATOM     30  C   UNL     1      49.541   2.848  17.217  0.00  0.00    +0.000 A 
ATOM     31  C   UNL     1      49.908   3.991  17.944  0.00  0.00    +0.000 A 
BRANCH  30  32
ATOM     32  C   UNL     1      48.181   2.677  16.651  0.00  0.00    +0.000 C 
ATOM     33  N   UNL     1      47.131   2.933  17.488  0.00  0.00    +0.000 N 
ATOM     34  O   UNL     1      47.996   2.393  15.474  0.00  0.00    +0.000 OA
ATOM     35  H   UNL     1      47.255   3.433  18.358  0.00  0.00    +0.000 HD
ATOM     36  H   UNL     1      46.223   2.996  17.042  0.00  0.00    +0.000 HD
ENDBRANCH  30  32
ENDBRANCH  25  26
ENDBRANCH  24  25
ENDBRANCH   4  24
TORSDOF 9
ENDMDL
MODEL 7
REMARK VINA RESULT:    -6.742      2.644      4.288
REMARK INTER + INTRA:         -11.915
REMARK INTER:                 -10.260
REMARK INTRA:                  -1.655
REMARK UNBOUND:                -1.626
REMARK  Name = 
REMARK  13 active torsions:
REMARK  status: ('A' for Active; 'I' for Inactive)
REMARK    1  A    between atoms: C_1  and  C_2
REMARK    2  A    between atoms: C_4  and  O_5
REMARK    3  A    between atoms: O_5  and  C_6
REMARK    4  A    between atoms: C_6  and  C_7
REMARK    5  A    between atoms: C_11  and  C_12
REMARK    6  A    between atoms: C_17  and  C_18
REMARK    7  A    between atoms: C_18  and  C_19
REMARK    8  A    between atoms: C_18  and  C_20
REMARK    9  A    between atoms: C_18  and  C_21
REMARK   10  A    between atoms: C_21  and  N_22
REMARK   11  A    between atoms: N_22  and  C_23
REMARK   12  A    between atoms: C_26  and  S_27
REMARK   13  A    between atoms: S_27  and  C_28
REMARK                            x       y       z     vdW  Elec       q    Type
REMARK                         _______ _______ _______ _____ _____    ______ ____
ROOT
ATOM      1  C   UNL     1      51.193   7.470  10.995  0.00  0.00    +0.000 C 
ATOM      2  C   UNL     1      50.251   7.800  12.113  0.00  0.00    +0.000 A 
ATOM      3  C   UNL     1      49.044   7.127  12.265  0.00  0.00    +0.000 A 
ATOM      4  C   UNL     1      48.186   7.473  13.308  0.00  0.00    +0.000 A 
ATOM      5  C   UNL     1      48.608   8.378  14.293  0.00  0.00    +0.000 A 
ATOM      6  C   UNL     1      49.859   9.023  14.205  0.00  0.00    +0.000 A 
ATOM      7  C   UNL     1      50.614   8.780  13.045  0.00  0.00    +0.000 A 
ENDROOT
BRANCH   6   8
ATOM      8  C   UNL     1      50.393   9.912  15.352  0.00  0.00    +0.000 C 
ATOM      9  C   UNL     1      51.889   9.600  15.591  0.00  0.00    +0.000 C 
ATOM     10  C   UNL     1      50.265  11.405  14.962  0.00  0.00    +0.000 C 
BRANCH   8  11
ATOM     11  C   UNL     1      49.669   9.720  16.733  0.00  0.00    +0.000 C 
BRANCH  11  12
ATOM     12  N   UNL     1      50.244   8.630  17.543  0.00  0.00    +0.000 N 
ATOM     13  H   UNL     1      50.442   8.901  18.503  0.00  0.00    +0.000 HD
BRANCH  12  14
ATOM     14  C   UNL     1      49.666   7.359  17.437  0.00  0.00    +0.000 A 
ATOM     15  C   UNL     1      48.410   7.062  17.972  0.00  0.00    +0.000 A 
ATOM     16  C   UNL     1      47.820   5.821  17.752  0.00  0.00    +0.000 A 
ATOM     17  C   UNL     1      48.522   4.904  16.990  0.00  0.00    +0.000 A 
ATOM     18  N   UNL     1      49.746   5.116  16.448  0.00  0.00    +0.000 NA
ATOM     19  C   UNL     1      50.271   6.346  16.678  0.00  0.00    +0.000 A 
BRANCH  17  20
ATOM     20  S   UNL     1      47.772   3.338  16.609  0.00  0.00    +0.000 S 
ATOM     21  C   UNL     1      49.001   2.117  16.977  0.00  0.00    +0.000 C 
ATOM     22  O   UNL     1      46.672   3.156  17.541  0.00  0.00    +0.000 OA
ATOM     23  O   UNL     1      47.539   3.315  15.175  0.00  0.00    +0.000 OA
ENDBRANCH  17  20
ENDBRANCH  12  14
ENDBRANCH  11  12
ENDBRANCH   8  11
ENDBRANCH   6   8
BRANCH   4  24
ATOM     24  O   UNL     1      46.944   6.915  13.459  0.00  0.00    +0.000 OA
BRANCH  24  25
ATOM     25  C   UNL     1      45.972   7.348  12.492  0.00  0.00    +0.000 C 
BRANCH  25  26
ATOM     26  C   UNL     1      45.130   6.210  11.948  0.00  0.00    +0.000 A 
ATOM     27  C   UNL     1      43.935   5.836  12.583  0.00  0.00    +0.000 A 
ATOM     28  C   UNL     1      43.061   4.926  11.987  0.00  0.00    +0.000 A 
ATOM     29  C   UNL     1      43.377   4.361  10.754  0.00  0.00    +0.000 A 
ATOM     30  C   UNL     1      44.594   4.665  10.140  0.00  0.00    +0.000 A 
ATOM     31  C   UNL     1      45.464   5.598  10.724  0.00  0.00    +0.000 A 
BRANCH  30  32
ATOM     32  C   UNL     1      44.914   3.983   8.862  0.00  0.00    +0.000 C 
ATOM     33  N   UNL     1      44.395   2.730   8.687  0.00  0.00    +0.000 N 
ATOM     34  O   UNL     1      45.549   4.534   7.971  0.00  0.00    +0.000 OA
ATOM     35  H   UNL     1      43.650   2.378   9.273  0.00  0.00    +0.000 HD
ATOM     36  H   UNL     1      44.462   2.358   7.748  0.00  0.00    +0.000 HD
ENDBRANCH  30  32
ENDBRANCH  25  26
ENDBRANCH  24  25
ENDBRANCH   4  24
TORSDOF 9
ENDMDL
MODEL 8
REMARK VINA RESULT:    -6.536      3.131      8.439
REMARK INTER + INTRA:         -11.600
REMARK INTER:                  -9.944
REMARK INTRA:                  -1.656
REMARK UNBOUND:                -1.626
REMARK  Name = 
REMARK  13 active torsions:
REMARK  status: ('A' for Active; 'I' for Inactive)
REMARK    1  A    between atoms: C_1  and  C_2
REMARK    2  A    between atoms: C_4  and  O_5
REMARK    3  A    between atoms: O_5  and  C_6
REMARK    4  A    between atoms: C_6  and  C_7
REMARK    5  A    between atoms: C_11  and  C_12
REMARK    6  A    between atoms: C_17  and  C_18
REMARK    7  A    between atoms: C_18  and  C_19
REMARK    8  A    between atoms: C_18  and  C_20
REMARK    9  A    between atoms: C_18  and  C_21
REMARK   10  A    between atoms: C_21  and  N_22
REMARK   11  A    between atoms: N_22  and  C_23
REMARK   12  A    between atoms: C_26  and  S_27
REMARK   13  A    between atoms: S_27  and  C_28
REMARK                            x       y       z     vdW  Elec       q    Type
REMARK                         _______ _______ _______ _____ _____    ______ ____
ROOT
ATOM      1  C   UNL     1      54.741   7.458  14.325  0.00  0.00    +0.000 C 
ATOM      2  C   UNL     1      53.413   7.374  15.016  0.00  0.00    +0.000 A 
ATOM      3  C   UNL     1      53.307   6.932  16.331  0.00  0.00    +0.000 A 
ATOM      4  C   UNL     1      52.053   6.851  16.934  0.00  0.00    +0.000 A 
ATOM      5  C   UNL     1      50.925   7.365  16.278  0.00  0.00    +0.000 A 
ATOM      6  C   UNL     1      51.013   7.886  14.971  0.00  0.00    +0.000 A 
ATOM      7  C   UNL     1      52.261   7.784  14.333  0.00  0.00    +0.000 A 
ENDROOT
BRANCH   6   8
ATOM      8  C   UNL     1      49.808   8.581  14.294  0.00  0.00    +0.000 C 
ATOM      9  C   UNL     1      48.815   9.062  15.379  0.00  0.00    +0.000 C 
ATOM     10  C   UNL     1      50.295   9.818  13.501  0.00  0.00    +0.000 C 
BRANCH   8  11
ATOM     11  C   UNL     1      48.989   7.676  13.305  0.00  0.00    +0.000 C 
BRANCH  11  12
ATOM     12  N   UNL     1      48.230   6.611  13.988  0.00  0.00    +0.000 N 
ATOM     13  H   UNL     1      47.920   6.872  14.922  0.00  0.00    +0.000 HD
BRANCH  12  14
ATOM     14  C   UNL     1      47.254   5.928  13.254  0.00  0.00    +0.000 A 
ATOM     15  C   UNL     1      46.609   4.790  13.747  0.00  0.00    +0.000 A 
ATOM     16  C   UNL     1      45.566   4.202  13.036  0.00  0.00    +0.000 A 
ATOM     17  C   UNL     1      45.201   4.784  11.836  0.00  0.00    +0.000 A 
ATOM     18  N   UNL     1      45.786   5.878  11.290  0.00  0.00    +0.000 NA
ATOM     19  C   UNL     1      46.786   6.423  12.028  0.00  0.00    +0.000 A 
BRANCH  17  20
ATOM     20  S   UNL     1      43.819   4.121  10.936  0.00  0.00    +0.000 S 
ATOM     21  C   UNL     1      44.500   3.434   9.452  0.00  0.00    +0.000 C 
ATOM     22  O   UNL     1      43.283   3.026  11.726  0.00  0.00    +0.000 OA
ATOM     23  O   UNL     1      42.977   5.243  10.559  0.00  0.00    +0.000 OA
ENDBRANCH  17  20
ENDBRANCH  12  14
ENDBRANCH  11  12
ENDBRANCH   8  11
ENDBRANCH   6   8
BRANCH   4  24
ATOM     24  O   UNL     1      51.870   6.339  18.191  0.00  0.00    +0.000 OA
BRANCH  24  25
ATOM     25  C   UNL     1      52.207   4.948  18.325  0.00  0.00    +0.000 C 
BRANCH  25  26
ATOM     26  C   UNL     1      51.141   4.023  17.770  0.00  0.00    +0.000 A 
ATOM     27  C   UNL     1      51.467   2.724  17.350  0.00  0.00    +0.000 A 
ATOM     28  C   UNL     1      50.470   1.806  17.021  0.00  0.00    +0.000 A 
ATOM     29  C   UNL     1      49.129   2.178  17.088  0.00  0.00    +0.000 A 
ATOM     30  C   UNL     1      48.787   3.487  17.433  0.00  0.00    +0.000 A 
ATOM     31  C   UNL     1      49.786   4.407  17.789  0.00  0.00    +0.000 A 
BRANCH  30  32
ATOM     32  C   UNL     1      47.349   3.852  17.421  0.00  0.00    +0.000 C 
ATOM     33  N   UNL     1      47.053   5.186  17.463  0.00  0.00    +0.000 N 
ATOM     34  O   UNL     1      46.465   3.012  17.306  0.00  0.00    +0.000 OA
ATOM     35  H   UNL     1      47.753   5.891  17.274  0.00  0.00    +0.000 HD
ATOM     36  H   UNL     1      46.089   5.425  17.266  0.00  0.00    +0.000 HD
ENDBRANCH  30  32
ENDBRANCH  25  26
ENDBRANCH  24  25
ENDBRANCH   4  24
TORSDOF 9
ENDMDL
MODEL 9
REMARK VINA RESULT:    -6.508      3.274      6.165
REMARK INTER + INTRA:         -11.557
REMARK INTER:                  -8.852
REMARK INTRA:                  -2.705
REMARK UNBOUND:                -1.626
REMARK  Name = 
REMARK  13 active torsions:
REMARK  status: ('A' for Active; 'I' for Inactive)
REMARK    1  A    between atoms: C_1  and  C_2
REMARK    2  A    between atoms: C_4  and  O_5
REMARK    3  A    between atoms: O_5  and  C_6
REMARK    4  A    between atoms: C_6  and  C_7
REMARK    5  A    between atoms: C_11  and  C_12
REMARK    6  A    between atoms: C_17  and  C_18
REMARK    7  A    between atoms: C_18  and  C_19
REMARK    8  A    between atoms: C_18  and  C_20
REMARK    9  A    between atoms: C_18  and  C_21
REMARK   10  A    between atoms: C_21  and  N_22
REMARK   11  A    between atoms: N_22  and  C_23
REMARK   12  A    between atoms: C_26  and  S_27
REMARK   13  A    between atoms: S_27  and  C_28
REMARK                            x       y       z     vdW  Elec       q    Type
REMARK                         _______ _______ _______ _____ _____    ______ ____
ROOT
ATOM      1  C   UNL     1      44.701   4.022  10.698  0.00  0.00    +0.000 C 
ATOM      2  C   UNL     1      45.533   4.535  11.834  0.00  0.00    +0.000 A 
ATOM      3  C   UNL     1      46.015   3.683  12.822  0.00  0.00    +0.000 A 
ATOM      4  C   UNL     1      46.771   4.201  13.873  0.00  0.00    +0.000 A 
ATOM      5  C   UNL     1      47.181   5.541  13.848  0.00  0.00    +0.000 A 
ATOM      6  C   UNL     1      46.768   6.413  12.820  0.00  0.00    +0.000 A 
ATOM      7  C   UNL     1      45.861   5.896  11.880  0.00  0.00    +0.000 A 
ENDROOT
BRANCH   6   8
ATOM      8  C   UNL     1      47.326   7.852  12.706  0.00  0.00    +0.000 C 
ATOM      9  C   UNL     1      48.426   7.892  11.619  0.00  0.00    +0.000 C 
ATOM     10  C   UNL     1      46.195   8.821  12.287  0.00  0.00    +0.000 C 
BRANCH   8  11
ATOM     11  C   UNL     1      47.973   8.419  14.021  0.00  0.00    +0.000 C 
BRANCH  11  12
ATOM     12  N   UNL     1      49.342   8.930  13.819  0.00  0.00    +0.000 N 
ATOM     13  H   UNL     1      49.396   9.946  13.805  0.00  0.00    +0.000 HD
BRANCH  12  14
ATOM     14  C   UNL     1      50.379   8.333  14.545  0.00  0.00    +0.000 A 
ATOM     15  C   UNL     1      50.158   7.276  15.432  0.00  0.00    +0.000 A 
ATOM     16  C   UNL     1      51.226   6.635  16.053  0.00  0.00    +0.000 A 
ATOM     17  C   UNL     1      52.501   7.084  15.758  0.00  0.00    +0.000 A 
ATOM     18  N   UNL     1      52.793   8.108  14.919  0.00  0.00    +0.000 NA
ATOM     19  C   UNL     1      51.719   8.689  14.328  0.00  0.00    +0.000 A 
BRANCH  17  20
ATOM     20  S   UNL     1      53.901   6.241  16.459  0.00  0.00    +0.000 S 
ATOM     21  C   UNL     1      54.746   7.451  17.438  0.00  0.00    +0.000 C 
ATOM     22  O   UNL     1      53.380   5.227  17.360  0.00  0.00    +0.000 OA
ATOM     23  O   UNL     1      54.773   5.875  15.357  0.00  0.00    +0.000 OA
ENDBRANCH  17  20
ENDBRANCH  12  14
ENDBRANCH  11  12
ENDBRANCH   8  11
ENDBRANCH   6   8
BRANCH   4  24
ATOM     24  O   UNL     1      47.197   3.432  14.923  0.00  0.00    +0.000 OA
BRANCH  24  25
ATOM     25  C   UNL     1      47.002   4.028  16.217  0.00  0.00    +0.000 C 
BRANCH  25  26
ATOM     26  C   UNL     1      48.279   4.110  17.031  0.00  0.00    +0.000 A 
ATOM     27  C   UNL     1      48.432   5.088  18.027  0.00  0.00    +0.000 A 
ATOM     28  C   UNL     1      49.515   5.052  18.906  0.00  0.00    +0.000 A 
ATOM     29  C   UNL     1      50.474   4.049  18.790  0.00  0.00    +0.000 A 
ATOM     30  C   UNL     1      50.379   3.110  17.760  0.00  0.00    +0.000 A 
ATOM     31  C   UNL     1      49.278   3.128  16.890  0.00  0.00    +0.000 A 
BRANCH  30  32
ATOM     32  C   UNL     1      51.463   2.106  17.637  0.00  0.00    +0.000 C 
ATOM     33  N   UNL     1      52.612   2.353  18.335  0.00  0.00    +0.000 N 
ATOM     34  O   UNL     1      51.320   1.067  17.003  0.00  0.00    +0.000 OA
ATOM     35  H   UNL     1      52.646   3.042  19.074  0.00  0.00    +0.000 HD
ATOM     36  H   UNL     1      53.262   1.578  18.393  0.00  0.00    +0.000 HD
ENDBRANCH  30  32
ENDBRANCH  25  26
ENDBRANCH  24  25
ENDBRANCH   4  24
TORSDOF 9
ENDMDL
