MODEL 1
REMARK VINA RESULT:    -7.030      0.000      0.000
REMARK INTER + INTRA:          -9.863
REMARK INTER:                  -9.291
REMARK INTRA:                  -0.572
REMARK UNBOUND:                -0.572
REMARK  Name = 
REMARK  6 active torsions:
REMARK  status: ('A' for Active; 'I' for Inactive)
REMARK    1  A    between atoms: N_1  and  C_2
REMARK    2  A    between atoms: C_2  and  C_3
REMARK    3  A    between atoms: C_3  and  C_4
REMARK    4  A    between atoms: N_6  and  C_7
REMARK    5  A    between atoms: C_7  and  C_8
REMARK    6  A    between atoms: C_12  and  C_13
REMARK                            x       y       z     vdW  Elec       q    Type
REMARK                         _______ _______ _______ _____ _____    ______ ____
ROOT
ATOM      1  C   UNL     1      46.439   5.988  12.879  0.00  0.00    +0.000 A 
ATOM      2  C   UNL     1      45.829   5.091  12.024  0.00  0.00    +0.000 A 
ATOM      3  N   UNL     1      44.961   5.775  11.210  0.00  0.00    +0.000 N 
ATOM      4  C   UNL     1      44.971   7.115  11.535  0.00  0.00    +0.000 A 
ATOM      5  C   UNL     1      44.246   8.189  11.021  0.00  0.00    +0.000 A 
ATOM      6  N   UNL     1      44.449   9.426  11.519  0.00  0.00    +0.000 NA
ATOM      7  C   UNL     1      45.368   9.598  12.493  0.00  0.00    +0.000 A 
ATOM      8  C   UNL     1      46.125   8.578  13.049  0.00  0.00    +0.000 A 
ATOM      9  C   UNL     1      45.910   7.281  12.560  0.00  0.00    +0.000 A 
ENDROOT
BRANCH   1  10
ATOM     10  C   UNL     1      47.458   5.648  13.926  0.00  0.00    +0.000 C 
BRANCH  10  11
ATOM     11  C   UNL     1      46.972   4.569  14.905  0.00  0.00    +0.000 C 
BRANCH  11  12
ATOM     12  N   UNL     1      47.495   3.248  14.551  0.00  0.00    +0.000 NA
ATOM     13  H   UNL     1      46.721   2.587  14.485  0.00  0.00    +0.000 HD
ATOM     14  H   UNL     1      48.098   2.904  15.297  0.00  0.00    +0.000 HD
ENDBRANCH  11  12
ENDBRANCH  10  11
ENDBRANCH   1  10
BRANCH   3  15
ATOM     15  C   UNL     1      44.078   5.151  10.231  0.00  0.00    +0.000 C 
BRANCH  15  16
ATOM     16  C   UNL     1      44.651   3.897   9.612  0.00  0.00    +0.000 A 
ATOM     17  C   UNL     1      44.211   2.637  10.010  0.00  0.00    +0.000 A 
ATOM     18  C   UNL     1      44.634   1.516   9.304  0.00  0.00    +0.000 A 
ATOM     19  C   UNL     1      45.489   1.673   8.221  0.00  0.00    +0.000 A 
ATOM     20  C   UNL     1      45.923   2.952   7.877  0.00  0.00    +0.000 A 
ATOM     21  N   UNL     1      45.506   4.059   8.566  0.00  0.00    +0.000 NA
BRANCH  20  22
ATOM     22  C   UNL     1      46.858   3.124   6.682  0.00  0.00    +0.000 C 
ATOM     23  F   UNL     1      48.163   2.831   6.973  0.00  0.00    +0.000 F 
ATOM     24  F   UNL     1      46.536   2.314   5.632  0.00  0.00    +0.000 F 
ATOM     25  F   UNL     1      46.877   4.394   6.188  0.00  0.00    +0.000 F 
ENDBRANCH  20  22
ENDBRANCH  15  16
ENDBRANCH   3  15
TORSDOF 6
ENDMDL
MODEL 2
REMARK VINA RESULT:    -7.020      0.729      3.395
REMARK INTER + INTRA:          -9.850
REMARK INTER:                  -9.514
REMARK INTRA:                  -0.336
REMARK UNBOUND:                -0.572
REMARK  Name = 
REMARK  6 active torsions:
REMARK  status: ('A' for Active; 'I' for Inactive)
REMARK    1  A    between atoms: N_1  and  C_2
REMARK    2  A    between atoms: C_2  and  C_3
REMARK    3  A    between atoms: C_3  and  C_4
REMARK    4  A    between atoms: N_6  and  C_7
REMARK    5  A    between atoms: C_7  and  C_8
REMARK    6  A    between atoms: C_12  and  C_13
REMARK                            x       y       z     vdW  Elec       q    Type
REMARK                         _______ _______ _______ _____ _____    ______ ____
ROOT
ATOM      1  C   UNL     1      45.634   7.287  12.345  0.00  0.00    +0.000 A 
ATOM      2  C   UNL     1      44.716   6.931  11.377  0.00  0.00    +0.000 A 
ATOM      3  N   UNL     1      44.560   5.567  11.394  0.00  0.00    +0.000 N 
ATOM      4  C   UNL     1      45.386   5.014  12.350  0.00  0.00    +0.000 A 
ATOM      5  C   UNL     1      45.605   3.686  12.715  0.00  0.00    +0.000 A 
ATOM      6  N   UNL     1      46.480   3.406  13.704  0.00  0.00    +0.000 NA
ATOM      7  C   UNL     1      47.109   4.423  14.331  0.00  0.00    +0.000 A 
ATOM      8  C   UNL     1      46.938   5.764  14.022  0.00  0.00    +0.000 A 
ATOM      9  C   UNL     1      46.051   6.073  12.981  0.00  0.00    +0.000 A 
ENDROOT
BRANCH   1  10
ATOM     10  C   UNL     1      46.085   8.685  12.654  0.00  0.00    +0.000 C 
BRANCH  10  11
ATOM     11  C   UNL     1      45.373   9.745  11.801  0.00  0.00    +0.000 C 
BRANCH  11  12
ATOM     12  N   UNL     1      44.207  10.297  12.493  0.00  0.00    +0.000 NA
ATOM     13  H   UNL     1      43.390   9.723  12.284  0.00  0.00    +0.000 HD
ATOM     14  H   UNL     1      43.999  11.227  12.133  0.00  0.00    +0.000 HD
ENDBRANCH  11  12
ENDBRANCH  10  11
ENDBRANCH   1  10
BRANCH   3  15
ATOM     15  C   UNL     1      43.731   4.816  10.459  0.00  0.00    +0.000 C 
BRANCH  15  16
ATOM     16  C   UNL     1      44.479   3.725   9.729  0.00  0.00    +0.000 A 
ATOM     17  C   UNL     1      44.104   2.389   9.859  0.00  0.00    +0.000 A 
ATOM     18  C   UNL     1      44.703   1.434   9.046  0.00  0.00    +0.000 A 
ATOM     19  C   UNL     1      45.664   1.827   8.123  0.00  0.00    +0.000 A 
ATOM     20  C   UNL     1      46.026   3.171   8.048  0.00  0.00    +0.000 A 
ATOM     21  N   UNL     1      45.436   4.116   8.844  0.00  0.00    +0.000 NA
BRANCH  20  22
ATOM     22  C   UNL     1      47.078   3.603   7.030  0.00  0.00    +0.000 C 
ATOM     23  F   UNL     1      46.589   3.688   5.755  0.00  0.00    +0.000 F 
ATOM     24  F   UNL     1      47.602   4.835   7.295  0.00  0.00    +0.000 F 
ATOM     25  F   UNL     1      48.138   2.749   6.952  0.00  0.00    +0.000 F 
ENDBRANCH  20  22
ENDBRANCH  15  16
ENDBRANCH   3  15
TORSDOF 6
ENDMDL
MODEL 3
REMARK VINA RESULT:    -6.865      1.656      3.642
REMARK INTER + INTRA:          -9.644
REMARK INTER:                  -9.165
REMARK INTRA:                  -0.479
REMARK UNBOUND:                -0.572
REMARK  Name = 
REMARK  6 active torsions:
REMARK  status: ('A' for Active; 'I' for Inactive)
REMARK    1  A    between atoms: N_1  and  C_2
REMARK    2  A    between atoms: C_2  and  C_3
REMARK    3  A    between atoms: C_3  and  C_4
REMARK    4  A    between atoms: N_6  and  C_7
REMARK    5  A    between atoms: C_7  and  C_8
REMARK    6  A    between atoms: C_12  and  C_13
REMARK                            x       y       z     vdW  Elec       q    Type
REMARK                         _______ _______ _______ _____ _____    ______ ____
ROOT
ATOM      1  C   UNL     1      45.232   6.646  12.481  0.00  0.00    +0.000 A 
ATOM      2  C   UNL     1      44.523   6.016  11.477  0.00  0.00    +0.000 A 
ATOM      3  N   UNL     1      44.771   4.668  11.537  0.00  0.00    +0.000 N 
ATOM      4  C   UNL     1      45.661   4.401  12.558  0.00  0.00    +0.000 A 
ATOM      5  C   UNL     1      46.234   3.204  12.984  0.00  0.00    +0.000 A 
ATOM      6  N   UNL     1      47.087   3.213  14.030  0.00  0.00    +0.000 NA
ATOM      7  C   UNL     1      47.350   4.382  14.652  0.00  0.00    +0.000 A 
ATOM      8  C   UNL     1      46.815   5.607  14.283  0.00  0.00    +0.000 A 
ATOM      9  C   UNL     1      45.945   5.621  13.184  0.00  0.00    +0.000 A 
ENDROOT
BRANCH   1  10
ATOM     10  C   UNL     1      45.235   8.120  12.761  0.00  0.00    +0.000 C 
BRANCH  10  11
ATOM     11  C   UNL     1      46.622   8.758  12.595  0.00  0.00    +0.000 C 
BRANCH  11  12
ATOM     12  N   UNL     1      47.182   9.168  13.884  0.00  0.00    +0.000 NA
ATOM     13  H   UNL     1      46.622   9.930  14.266  0.00  0.00    +0.000 HD
ATOM     14  H   UNL     1      48.119   9.544  13.750  0.00  0.00    +0.000 HD
ENDBRANCH  11  12
ENDBRANCH  10  11
ENDBRANCH   1  10
BRANCH   3  15
ATOM     15  C   UNL     1      44.259   3.688  10.587  0.00  0.00    +0.000 C 
BRANCH  15  16
ATOM     16  C   UNL     1      45.083   3.582   9.324  0.00  0.00    +0.000 A 
ATOM     17  C   UNL     1      45.548   4.725   8.676  0.00  0.00    +0.000 A 
ATOM     18  C   UNL     1      46.441   4.588   7.618  0.00  0.00    +0.000 A 
ATOM     19  C   UNL     1      46.848   3.320   7.226  0.00  0.00    +0.000 A 
ATOM     20  C   UNL     1      46.335   2.206   7.888  0.00  0.00    +0.000 A 
ATOM     21  N   UNL     1      45.459   2.335   8.933  0.00  0.00    +0.000 NA
BRANCH  20  22
ATOM     22  C   UNL     1      46.787   0.812   7.461  0.00  0.00    +0.000 C 
ATOM     23  F   UNL     1      46.632   0.584   6.120  0.00  0.00    +0.000 F 
ATOM     24  F   UNL     1      48.108   0.580   7.711  0.00  0.00    +0.000 F 
ATOM     25  F   UNL     1      46.103  -0.193   8.077  0.00  0.00    +0.000 F 
ENDBRANCH  20  22
ENDBRANCH  15  16
ENDBRANCH   3  15
TORSDOF 6
ENDMDL
MODEL 4
REMARK VINA RESULT:    -6.841      4.106      6.973
REMARK INTER + INTRA:          -9.612
REMARK INTER:                  -8.882
REMARK INTRA:                  -0.730
REMARK UNBOUND:                -0.572
REMARK  Name = 
REMARK  6 active torsions:
REMARK  status: ('A' for Active; 'I' for Inactive)
REMARK    1  A    between atoms: N_1  and  C_2
REMARK    2  A    between atoms: C_2  and  C_3
REMARK    3  A    between atoms: C_3  and  C_4
REMARK    4  A    between atoms: N_6  and  C_7
REMARK    5  A    between atoms: C_7  and  C_8
REMARK    6  A    between atoms: C_12  and  C_13
REMARK                            x       y       z     vdW  Elec       q    Type
REMARK                         _______ _______ _______ _____ _____    ______ ____
ROOT
ATOM      1  C   UNL     1      45.140   4.374   9.391  0.00  0.00    +0.000 A 
ATOM      2  C   UNL     1      45.714   5.601   9.663  0.00  0.00    +0.000 A 
ATOM      3  N   UNL     1      45.512   5.902  10.986  0.00  0.00    +0.000 N 
ATOM      4  C   UNL     1      44.786   4.896  11.590  0.00  0.00    +0.000 A 
ATOM      5  C   UNL     1      44.311   4.764  12.894  0.00  0.00    +0.000 A 
ATOM      6  N   UNL     1      43.617   3.659  13.238  0.00  0.00    +0.000 NA
ATOM      7  C   UNL     1      43.416   2.696  12.313  0.00  0.00    +0.000 A 
ATOM      8  C   UNL     1      43.860   2.761  11.001  0.00  0.00    +0.000 A 
ATOM      9  C   UNL     1      44.563   3.912  10.618  0.00  0.00    +0.000 A 
ENDROOT
BRANCH   1  10
ATOM     10  C   UNL     1      45.139   3.682   8.060  0.00  0.00    +0.000 C 
BRANCH  10  11
ATOM     11  C   UNL     1      46.552   3.360   7.553  0.00  0.00    +0.000 C 
BRANCH  11  12
ATOM     12  N   UNL     1      46.883   4.137   6.356  0.00  0.00    +0.000 NA
ATOM     13  H   UNL     1      47.757   3.790   5.962  0.00  0.00    +0.000 HD
ATOM     14  H   UNL     1      47.053   5.109   6.612  0.00  0.00    +0.000 HD
ENDBRANCH  11  12
ENDBRANCH  10  11
ENDBRANCH   1  10
BRANCH   3  15
ATOM     15  C   UNL     1      45.908   7.153  11.621  0.00  0.00    +0.000 C 
BRANCH  15  16
ATOM     16  C   UNL     1      47.305   7.124  12.196  0.00  0.00    +0.000 A 
ATOM     17  C   UNL     1      48.399   7.545  11.442  0.00  0.00    +0.000 A 
ATOM     18  C   UNL     1      49.641   7.665  12.055  0.00  0.00    +0.000 A 
ATOM     19  C   UNL     1      49.769   7.361  13.404  0.00  0.00    +0.000 A 
ATOM     20  C   UNL     1      48.652   6.918  14.111  0.00  0.00    +0.000 A 
ATOM     21  N   UNL     1      47.426   6.803  13.513  0.00  0.00    +0.000 NA
BRANCH  20  22
ATOM     22  C   UNL     1      48.792   6.590  15.595  0.00  0.00    +0.000 C 
ATOM     23  F   UNL     1      48.423   7.625  16.412  0.00  0.00    +0.000 F 
ATOM     24  F   UNL     1      48.018   5.535  15.983  0.00  0.00    +0.000 F 
ATOM     25  F   UNL     1      50.068   6.279  15.963  0.00  0.00    +0.000 F 
ENDBRANCH  20  22
ENDBRANCH  15  16
ENDBRANCH   3  15
TORSDOF 6
ENDMDL
MODEL 5
REMARK VINA RESULT:    -6.760      1.785      3.131
REMARK INTER + INTRA:          -9.506
REMARK INTER:                  -8.793
REMARK INTRA:                  -0.713
REMARK UNBOUND:                -0.572
REMARK  Name = 
REMARK  6 active torsions:
REMARK  status: ('A' for Active; 'I' for Inactive)
REMARK    1  A    between atoms: N_1  and  C_2
REMARK    2  A    between atoms: C_2  and  C_3
REMARK    3  A    between atoms: C_3  and  C_4
REMARK    4  A    between atoms: N_6  and  C_7
REMARK    5  A    between atoms: C_7  and  C_8
REMARK    6  A    between atoms: C_12  and  C_13
REMARK                            x       y       z     vdW  Elec       q    Type
REMARK                         _______ _______ _______ _____ _____    ______ ____
ROOT
ATOM      1  C   UNL     1      47.362   7.306  12.233  0.00  0.00    +0.000 A 
ATOM      2  C   UNL     1      46.328   7.147  11.331  0.00  0.00    +0.000 A 
ATOM      3  N   UNL     1      45.552   6.087  11.728  0.00  0.00    +0.000 N 
ATOM      4  C   UNL     1      46.078   5.525  12.873  0.00  0.00    +0.000 A 
ATOM      5  C   UNL     1      45.670   4.423  13.623  0.00  0.00    +0.000 A 
ATOM      6  N   UNL     1      46.369   4.076  14.725  0.00  0.00    +0.000 NA
ATOM      7  C   UNL     1      47.438   4.819  15.084  0.00  0.00    +0.000 A 
ATOM      8  C   UNL     1      47.897   5.925  14.387  0.00  0.00    +0.000 A 
ATOM      9  C   UNL     1      47.198   6.287  13.227  0.00  0.00    +0.000 A 
ENDROOT
BRANCH   1  10
ATOM     10  C   UNL     1      48.433   8.354  12.164  0.00  0.00    +0.000 C 
BRANCH  10  11
ATOM     11  C   UNL     1      49.800   7.786  11.754  0.00  0.00    +0.000 C 
BRANCH  11  12
ATOM     12  N   UNL     1      50.729   7.754  12.885  0.00  0.00    +0.000 NA
ATOM     13  H   UNL     1      51.101   6.810  12.987  0.00  0.00    +0.000 HD
ATOM     14  H   UNL     1      50.228   7.956  13.750  0.00  0.00    +0.000 HD
ENDBRANCH  11  12
ENDBRANCH  10  11
ENDBRANCH   1  10
BRANCH   3  15
ATOM     15  C   UNL     1      44.413   5.569  10.980  0.00  0.00    +0.000 C 
BRANCH  15  16
ATOM     16  C   UNL     1      44.705   4.276  10.253  0.00  0.00    +0.000 A 
ATOM     17  C   UNL     1      44.008   3.109  10.560  0.00  0.00    +0.000 A 
ATOM     18  C   UNL     1      44.181   1.985   9.760  0.00  0.00    +0.000 A 
ATOM     19  C   UNL     1      45.046   2.044   8.675  0.00  0.00    +0.000 A 
ATOM     20  C   UNL     1      45.742   3.226   8.424  0.00  0.00    +0.000 A 
ATOM     21  N   UNL     1      45.572   4.337   9.206  0.00  0.00    +0.000 NA
BRANCH  20  22
ATOM     22  C   UNL     1      46.688   3.292   7.228  0.00  0.00    +0.000 C 
ATOM     23  F   UNL     1      46.043   3.189   6.025  0.00  0.00    +0.000 F 
ATOM     24  F   UNL     1      47.382   4.466   7.162  0.00  0.00    +0.000 F 
ATOM     25  F   UNL     1      47.622   2.300   7.220  0.00  0.00    +0.000 F 
ENDBRANCH  20  22
ENDBRANCH  15  16
ENDBRANCH   3  15
TORSDOF 6
ENDMDL
MODEL 6
REMARK VINA RESULT:    -6.607      1.731      2.277
REMARK INTER + INTRA:          -9.303
REMARK INTER:                  -8.635
REMARK INTRA:                  -0.668
REMARK UNBOUND:                -0.572
REMARK  Name = 
REMARK  6 active torsions:
REMARK  status: ('A' for Active; 'I' for Inactive)
REMARK    1  A    between atoms: N_1  and  C_2
REMARK    2  A    between atoms: C_2  and  C_3
REMARK    3  A    between atoms: C_3  and  C_4
REMARK    4  A    between atoms: N_6  and  C_7
REMARK    5  A    between atoms: C_7  and  C_8
REMARK    6  A    between atoms: C_12  and  C_13
REMARK                            x       y       z     vdW  Elec       q    Type
REMARK                         _______ _______ _______ _____ _____    ______ ____
ROOT
ATOM      1  C   UNL     1      46.290   8.042  12.823  0.00  0.00    +0.000 A 
ATOM      2  C   UNL     1      45.461   6.962  12.587  0.00  0.00    +0.000 A 
ATOM      3  N   UNL     1      44.449   7.355  11.748  0.00  0.00    +0.000 N 
ATOM      4  C   UNL     1      44.585   8.694  11.446  0.00  0.00    +0.000 A 
ATOM      5  C   UNL     1      43.796   9.544  10.671  0.00  0.00    +0.000 A 
ATOM      6  N   UNL     1      44.158  10.836  10.527  0.00  0.00    +0.000 NA
ATOM      7  C   UNL     1      45.288  11.271  11.123  0.00  0.00    +0.000 A 
ATOM      8  C   UNL     1      46.119  10.483  11.905  0.00  0.00    +0.000 A 
ATOM      9  C   UNL     1      45.747   9.143  12.085  0.00  0.00    +0.000 A 
ENDROOT
BRANCH   1  10
ATOM     10  C   UNL     1      47.516   8.034  13.687  0.00  0.00    +0.000 C 
BRANCH  10  11
ATOM     11  C   UNL     1      48.186   6.653  13.762  0.00  0.00    +0.000 C 
BRANCH  11  12
ATOM     12  N   UNL     1      49.364   6.580  12.896  0.00  0.00    +0.000 NA
ATOM     13  H   UNL     1      49.696   5.617  12.863  0.00  0.00    +0.000 HD
ATOM     14  H   UNL     1      50.123   7.128  13.298  0.00  0.00    +0.000 HD
ENDBRANCH  11  12
ENDBRANCH  10  11
ENDBRANCH   1  10
BRANCH   3  15
ATOM     15  C   UNL     1      43.337   6.507  11.338  0.00  0.00    +0.000 C 
BRANCH  15  16
ATOM     16  C   UNL     1      43.748   5.092  11.000  0.00  0.00    +0.000 A 
ATOM     17  C   UNL     1      43.239   4.009  11.713  0.00  0.00    +0.000 A 
ATOM     18  C   UNL     1      43.504   2.718  11.268  0.00  0.00    +0.000 A 
ATOM     19  C   UNL     1      44.273   2.533  10.126  0.00  0.00    +0.000 A 
ATOM     20  C   UNL     1      44.783   3.648   9.462  0.00  0.00    +0.000 A 
ATOM     21  N   UNL     1      44.521   4.920   9.893  0.00  0.00    +0.000 NA
BRANCH  20  22
ATOM     22  C   UNL     1      45.623   3.444   8.204  0.00  0.00    +0.000 C 
ATOM     23  F   UNL     1      46.530   4.447   7.994  0.00  0.00    +0.000 F 
ATOM     24  F   UNL     1      46.361   2.297   8.236  0.00  0.00    +0.000 F 
ATOM     25  F   UNL     1      44.882   3.385   7.061  0.00  0.00    +0.000 F 
ENDBRANCH  20  22
ENDBRANCH  15  16
ENDBRANCH   3  15
TORSDOF 6
ENDMDL
MODEL 7
REMARK VINA RESULT:    -6.557      1.891      2.531
REMARK INTER + INTRA:          -9.238
REMARK INTER:                  -8.554
REMARK INTRA:                  -0.684
REMARK UNBOUND:                -0.572
REMARK  Name = 
REMARK  6 active torsions:
REMARK  status: ('A' for Active; 'I' for Inactive)
REMARK    1  A    between atoms: N_1  and  C_2
REMARK    2  A    between atoms: C_2  and  C_3
REMARK    3  A    between atoms: C_3  and  C_4
REMARK    4  A    between atoms: N_6  and  C_7
REMARK    5  A    between atoms: C_7  and  C_8
REMARK    6  A    between atoms: C_12  and  C_13
REMARK                            x       y       z     vdW  Elec       q    Type
REMARK                         _______ _______ _______ _____ _____    ______ ____
ROOT
ATOM      1  C   UNL     1      47.464   5.430  14.668  0.00  0.00    +0.000 A 
ATOM      2  C   UNL     1      46.283   5.111  14.027  0.00  0.00    +0.000 A 
ATOM      3  N   UNL     1      46.182   5.863  12.883  0.00  0.00    +0.000 N 
ATOM      4  C   UNL     1      47.275   6.697  12.773  0.00  0.00    +0.000 A 
ATOM      5  C   UNL     1      47.603   7.657  11.817  0.00  0.00    +0.000 A 
ATOM      6  N   UNL     1      48.757   8.348  11.939  0.00  0.00    +0.000 NA
ATOM      7  C   UNL     1      49.576   8.077  12.978  0.00  0.00    +0.000 A 
ATOM      8  C   UNL     1      49.314   7.137  13.962  0.00  0.00    +0.000 A 
ATOM      9  C   UNL     1      48.109   6.426  13.865  0.00  0.00    +0.000 A 
ENDROOT
BRANCH   1  10
ATOM     10  C   UNL     1      47.955   4.830  15.952  0.00  0.00    +0.000 C 
BRANCH  10  11
ATOM     11  C   UNL     1      47.472   3.388  16.162  0.00  0.00    +0.000 C 
BRANCH  11  12
ATOM     12  N   UNL     1      46.691   3.256  17.394  0.00  0.00    +0.000 NA
ATOM     13  H   UNL     1      45.883   3.875  17.346  0.00  0.00    +0.000 HD
ATOM     14  H   UNL     1      47.245   3.573  18.189  0.00  0.00    +0.000 HD
ENDBRANCH  11  12
ENDBRANCH  10  11
ENDBRANCH   1  10
BRANCH   3  15
ATOM     15  C   UNL     1      45.031   5.858  11.988  0.00  0.00    +0.000 C 
BRANCH  15  16
ATOM     16  C   UNL     1      44.901   4.589  11.177  0.00  0.00    +0.000 A 
ATOM     17  C   UNL     1      44.009   3.587  11.555  0.00  0.00    +0.000 A 
ATOM     18  C   UNL     1      43.793   2.514  10.698  0.00  0.00    +0.000 A 
ATOM     19  C   UNL     1      44.470   2.458   9.487  0.00  0.00    +0.000 A 
ATOM     20  C   UNL     1      45.373   3.470   9.165  0.00  0.00    +0.000 A 
ATOM     21  N   UNL     1      45.587   4.532  10.004  0.00  0.00    +0.000 NA
BRANCH  20  22
ATOM     22  C   UNL     1      46.113   3.411   7.832  0.00  0.00    +0.000 C 
ATOM     23  F   UNL     1      46.900   4.508   7.604  0.00  0.00    +0.000 F 
ATOM     24  F   UNL     1      46.956   2.342   7.736  0.00  0.00    +0.000 F 
ATOM     25  F   UNL     1      45.282   3.336   6.753  0.00  0.00    +0.000 F 
ENDBRANCH  20  22
ENDBRANCH  15  16
ENDBRANCH   3  15
TORSDOF 6
ENDMDL
MODEL 8
REMARK VINA RESULT:    -6.471      2.690      4.250
REMARK INTER + INTRA:          -9.123
REMARK INTER:                  -8.657
REMARK INTRA:                  -0.467
REMARK UNBOUND:                -0.572
REMARK  Name = 
REMARK  6 active torsions:
REMARK  status: ('A' for Active; 'I' for Inactive)
REMARK    1  A    between atoms: N_1  and  C_2
REMARK    2  A    between atoms: C_2  and  C_3
REMARK    3  A    between atoms: C_3  and  C_4
REMARK    4  A    between atoms: N_6  and  C_7
REMARK    5  A    between atoms: C_7  and  C_8
REMARK    6  A    between atoms: C_12  and  C_13
REMARK                            x       y       z     vdW  Elec       q    Type
REMARK                         _______ _______ _______ _____ _____    ______ ____
ROOT
ATOM      1  C   UNL     1      47.587   4.375  15.874  0.00  0.00    +0.000 A 
ATOM      2  C   UNL     1      46.924   4.378  14.663  0.00  0.00    +0.000 A 
ATOM      3  N   UNL     1      47.221   5.540  13.997  0.00  0.00    +0.000 N 
ATOM      4  C   UNL     1      48.057   6.321  14.769  0.00  0.00    +0.000 A 
ATOM      5  C   UNL     1      48.599   7.585  14.542  0.00  0.00    +0.000 A 
ATOM      6  N   UNL     1      49.406   8.137  15.473  0.00  0.00    +0.000 NA
ATOM      7  C   UNL     1      49.685   7.441  16.595  0.00  0.00    +0.000 A 
ATOM      8  C   UNL     1      49.184   6.181  16.884  0.00  0.00    +0.000 A 
ATOM      9  C   UNL     1      48.324   5.601  15.940  0.00  0.00    +0.000 A 
ENDROOT
BRANCH   1  10
ATOM     10  C   UNL     1      47.531   3.283  16.902  0.00  0.00    +0.000 C 
BRANCH  10  11
ATOM     11  C   UNL     1      48.899   2.635  17.161  0.00  0.00    +0.000 C 
BRANCH  11  12
ATOM     12  N   UNL     1      49.336   1.829  16.020  0.00  0.00    +0.000 NA
ATOM     13  H   UNL     1      50.304   1.541  16.163  0.00  0.00    +0.000 HD
ATOM     14  H   UNL     1      49.331   2.396  15.173  0.00  0.00    +0.000 HD
ENDBRANCH  11  12
ENDBRANCH  10  11
ENDBRANCH   1  10
BRANCH   3  15
ATOM     15  C   UNL     1      46.642   5.934  12.719  0.00  0.00    +0.000 C 
BRANCH  15  16
ATOM     16  C   UNL     1      45.430   5.121  12.327  0.00  0.00    +0.000 A 
ATOM     17  C   UNL     1      44.193   5.344  12.930  0.00  0.00    +0.000 A 
ATOM     18  C   UNL     1      43.068   4.698  12.429  0.00  0.00    +0.000 A 
ATOM     19  C   UNL     1      43.198   3.842  11.343  0.00  0.00    +0.000 A 
ATOM     20  C   UNL     1      44.460   3.629  10.792  0.00  0.00    +0.000 A 
ATOM     21  N   UNL     1      45.570   4.266  11.278  0.00  0.00    +0.000 NA
BRANCH  20  22
ATOM     22  C   UNL     1      44.601   2.692   9.595  0.00  0.00    +0.000 C 
ATOM     23  F   UNL     1      45.890   2.285   9.380  0.00  0.00    +0.000 F 
ATOM     24  F   UNL     1      43.881   1.541   9.732  0.00  0.00    +0.000 F 
ATOM     25  F   UNL     1      44.200   3.252   8.418  0.00  0.00    +0.000 F 
ENDBRANCH  20  22
ENDBRANCH  15  16
ENDBRANCH   3  15
TORSDOF 6
ENDMDL
MODEL 9
REMARK VINA RESULT:    -6.366      2.401      4.398
REMARK INTER + INTRA:          -8.985
REMARK INTER:                  -8.241
REMARK INTRA:                  -0.745
REMARK UNBOUND:                -0.572
REMARK  Name = 
REMARK  6 active torsions:
REMARK  status: ('A' for Active; 'I' for Inactive)
REMARK    1  A    between atoms: N_1  and  C_2
REMARK    2  A    between atoms: C_2  and  C_3
REMARK    3  A    between atoms: C_3  and  C_4
REMARK    4  A    between atoms: N_6  and  C_7
REMARK    5  A    between atoms: C_7  and  C_8
REMARK    6  A    between atoms: C_12  and  C_13
REMARK                            x       y       z     vdW  Elec       q    Type
REMARK                         _______ _______ _______ _____ _____    ______ ____
ROOT
ATOM      1  C   UNL     1      46.239   9.391  12.166  0.00  0.00    +0.000 A 
ATOM      2  C   UNL     1      45.629   8.260  12.671  0.00  0.00    +0.000 A 
ATOM      3  N   UNL     1      46.584   7.295  12.875  0.00  0.00    +0.000 N 
ATOM      4  C   UNL     1      47.819   7.769  12.485  0.00  0.00    +0.000 A 
ATOM      5  C   UNL     1      49.072   7.159  12.470  0.00  0.00    +0.000 A 
ATOM      6  N   UNL     1      50.144   7.856  12.037  0.00  0.00    +0.000 NA
ATOM      7  C   UNL     1      49.979   9.138  11.648  0.00  0.00    +0.000 A 
ATOM      8  C   UNL     1      48.765   9.807  11.639  0.00  0.00    +0.000 A 
ATOM      9  C   UNL     1      47.636   9.092  12.063  0.00  0.00    +0.000 A 
ENDROOT
BRANCH   1  10
ATOM     10  C   UNL     1      45.548  10.674  11.808  0.00  0.00    +0.000 C 
BRANCH  10  11
ATOM     11  C   UNL     1      44.153  10.454  11.205  0.00  0.00    +0.000 C 
BRANCH  11  12
ATOM     12  N   UNL     1      43.096  10.796  12.158  0.00  0.00    +0.000 NA
ATOM     13  H   UNL     1      43.509  11.266  12.963  0.00  0.00    +0.000 HD
ATOM     14  H   UNL     1      42.666   9.944  12.518  0.00  0.00    +0.000 HD
ENDBRANCH  11  12
ENDBRANCH  10  11
ENDBRANCH   1  10
BRANCH   3  15
ATOM     15  C   UNL     1      46.306   5.937  13.325  0.00  0.00    +0.000 C 
BRANCH  15  16
ATOM     16  C   UNL     1      45.299   5.208  12.464  0.00  0.00    +0.000 A 
ATOM     17  C   UNL     1      43.988   5.021  12.898  0.00  0.00    +0.000 A 
ATOM     18  C   UNL     1      43.049   4.500  12.016  0.00  0.00    +0.000 A 
ATOM     19  C   UNL     1      43.434   4.172  10.722  0.00  0.00    +0.000 A 
ATOM     20  C   UNL     1      44.764   4.352  10.342  0.00  0.00    +0.000 A 
ATOM     21  N   UNL     1      45.691   4.869  11.206  0.00  0.00    +0.000 NA
BRANCH  20  22
ATOM     22  C   UNL     1      45.185   3.997   8.919  0.00  0.00    +0.000 C 
ATOM     23  F   UNL     1      46.162   4.821   8.426  0.00  0.00    +0.000 F 
ATOM     24  F   UNL     1      45.695   2.736   8.812  0.00  0.00    +0.000 F 
ATOM     25  F   UNL     1      44.165   4.071   8.017  0.00  0.00    +0.000 F 
ENDBRANCH  20  22
ENDBRANCH  15  16
ENDBRANCH   3  15
TORSDOF 6
ENDMDL
