MODEL 1
REMARK VINA RESULT:    -7.527      0.000      0.000
REMARK INTER + INTRA:          -9.618
REMARK INTER:                  -9.287
REMARK INTRA:                  -0.330
REMARK UNBOUND:                -0.330
REMARK  Name = 
REMARK  4 active torsions:
REMARK  status: ('A' for Active; 'I' for Inactive)
REMARK    1  A    between atoms: C_2  and  C_4
REMARK    2  A    between atoms: C_7  and  N_8
REMARK    3  A    between atoms: N_8  and  C_9
REMARK    4  A    between atoms: C_9  and  C_10
REMARK                            x       y       z     vdW  Elec       q    Type
REMARK                         _______ _______ _______ _____ _____    ______ ____
ROOT
ATOM      1  C   UNL     1      46.500   2.545   7.672  0.00  0.00    +0.000 A 
ATOM      2  C   UNL     1      46.472   3.923   7.562  0.00  0.00    +0.000 A 
ATOM      3  N   UNL     1      45.618   4.691   8.291  0.00  0.00    +0.000 NA
ATOM      4  C   UNL     1      44.821   4.053   9.172  0.00  0.00    +0.000 A 
ATOM      5  C   UNL     1      44.851   2.654   9.247  0.00  0.00    +0.000 A 
ATOM      6  N   UNL     1      45.678   1.864   8.517  0.00  0.00    +0.000 NA
ENDROOT
BRANCH   1   8
ATOM      7  N   UNL     1      48.543   2.413   6.390  0.00  0.00    +0.000 N 
ATOM      8  C   UNL     1      47.435   1.742   6.840  0.00  0.00    +0.000 C 
ATOM      9  O   UNL     1      47.242   0.565   6.581  0.00  0.00    +0.000 OA
ATOM     10  H   UNL     1      49.234   1.923   5.846  0.00  0.00    +0.000 HD
ATOM     11  H   UNL     1      48.682   3.385   6.648  0.00  0.00    +0.000 HD
ENDBRANCH   1   8
BRANCH   4  12
ATOM     12  N   UNL     1      43.959   4.857   9.905  0.00  0.00    +0.000 N 
ATOM     13  H   UNL     1      43.072   4.917   9.413  0.00  0.00    +0.000 HD
BRANCH  12  14
ATOM     14  C   UNL     1      43.786   4.561  11.318  0.00  0.00    +0.000 C 
BRANCH  14  15
ATOM     15  C   UNL     1      45.092   4.747  12.043  0.00  0.00    +0.000 A 
ATOM     16  C   UNL     1      45.774   5.965  12.005  0.00  0.00    +0.000 A 
ATOM     17  C   UNL     1      46.943   6.093  12.740  0.00  0.00    +0.000 A 
ATOM     18  N   UNL     1      47.467   5.107  13.499  0.00  0.00    +0.000 NA
ATOM     19  C   UNL     1      46.795   3.937  13.521  0.00  0.00    +0.000 A 
ATOM     20  C   UNL     1      45.621   3.713  12.824  0.00  0.00    +0.000 A 
ENDBRANCH  14  15
ENDBRANCH  12  14
ENDBRANCH   4  12
TORSDOF 4
ENDMDL
MODEL 2
REMARK VINA RESULT:    -7.393      2.629      5.869
REMARK INTER + INTRA:          -9.452
REMARK INTER:                  -9.158
REMARK INTRA:                  -0.294
REMARK UNBOUND:                -0.330
REMARK  Name = 
REMARK  4 active torsions:
REMARK  status: ('A' for Active; 'I' for Inactive)
REMARK    1  A    between atoms: C_2  and  C_4
REMARK    2  A    between atoms: C_7  and  N_8
REMARK    3  A    between atoms: N_8  and  C_9
REMARK    4  A    between atoms: C_9  and  C_10
REMARK                            x       y       z     vdW  Elec       q    Type
REMARK                         _______ _______ _______ _____ _____    ______ ____
ROOT
ATOM      1  C   UNL     1      45.995   4.478  12.995  0.00  0.00    +0.000 A 
ATOM      2  C   UNL     1      45.946   5.376  11.945  0.00  0.00    +0.000 A 
ATOM      3  N   UNL     1      45.357   5.071  10.757  0.00  0.00    +0.000 NA
ATOM      4  C   UNL     1      44.772   3.859  10.658  0.00  0.00    +0.000 A 
ATOM      5  C   UNL     1      44.856   2.959  11.728  0.00  0.00    +0.000 A 
ATOM      6  N   UNL     1      45.456   3.231  12.914  0.00  0.00    +0.000 NA
ENDROOT
BRANCH   1   8
ATOM      7  N   UNL     1      47.196   6.110  14.309  0.00  0.00    +0.000 N 
ATOM      8  C   UNL     1      46.669   4.846  14.269  0.00  0.00    +0.000 C 
ATOM      9  O   UNL     1      46.741   4.084  15.219  0.00  0.00    +0.000 OA
ATOM     10  H   UNL     1      47.641   6.438  15.152  0.00  0.00    +0.000 HD
ATOM     11  H   UNL     1      47.094   6.725  13.507  0.00  0.00    +0.000 HD
ENDBRANCH   1   8
BRANCH   4  12
ATOM     12  N   UNL     1      44.176   3.571   9.438  0.00  0.00    +0.000 N 
ATOM     13  H   UNL     1      43.201   3.858   9.475  0.00  0.00    +0.000 HD
BRANCH  12  14
ATOM     14  C   UNL     1      44.839   4.032   8.229  0.00  0.00    +0.000 C 
BRANCH  14  15
ATOM     15  C   UNL     1      45.902   3.047   7.821  0.00  0.00    +0.000 A 
ATOM     16  C   UNL     1      45.833   1.706   8.207  0.00  0.00    +0.000 A 
ATOM     17  C   UNL     1      46.812   0.835   7.753  0.00  0.00    +0.000 A 
ATOM     18  N   UNL     1      47.835   1.202   6.952  0.00  0.00    +0.000 NA
ATOM     19  C   UNL     1      47.886   2.502   6.593  0.00  0.00    +0.000 A 
ATOM     20  C   UNL     1      46.956   3.447   6.992  0.00  0.00    +0.000 A 
ENDBRANCH  14  15
ENDBRANCH  12  14
ENDBRANCH   4  12
TORSDOF 4
ENDMDL
MODEL 3
REMARK VINA RESULT:    -7.212      0.819      1.674
REMARK INTER + INTRA:          -9.229
REMARK INTER:                  -8.780
REMARK INTRA:                  -0.449
REMARK UNBOUND:                -0.330
REMARK  Name = 
REMARK  4 active torsions:
REMARK  status: ('A' for Active; 'I' for Inactive)
REMARK    1  A    between atoms: C_2  and  C_4
REMARK    2  A    between atoms: C_7  and  N_8
REMARK    3  A    between atoms: N_8  and  C_9
REMARK    4  A    between atoms: C_9  and  C_10
REMARK                            x       y       z     vdW  Elec       q    Type
REMARK                         _______ _______ _______ _____ _____    ______ ____
ROOT
ATOM      1  C   UNL     1      46.486   2.582   7.666  0.00  0.00    +0.000 A 
ATOM      2  C   UNL     1      45.593   1.964   8.521  0.00  0.00    +0.000 A 
ATOM      3  N   UNL     1      44.699   2.667   9.269  0.00  0.00    +0.000 NA
ATOM      4  C   UNL     1      44.686   4.005   9.106  0.00  0.00    +0.000 A 
ATOM      5  C   UNL     1      45.618   4.610   8.252  0.00  0.00    +0.000 A 
ATOM      6  N   UNL     1      46.532   3.934   7.513  0.00  0.00    +0.000 NA
ENDROOT
BRANCH   1   8
ATOM      7  N   UNL     1      48.555   2.463   6.426  0.00  0.00    +0.000 N 
ATOM      8  C   UNL     1      47.461   1.776   6.884  0.00  0.00    +0.000 C 
ATOM      9  O   UNL     1      47.310   0.584   6.672  0.00  0.00    +0.000 OA
ATOM     10  H   UNL     1      49.272   1.973   5.914  0.00  0.00    +0.000 HD
ATOM     11  H   UNL     1      48.659   3.449   6.644  0.00  0.00    +0.000 HD
ENDBRANCH   1   8
BRANCH   4  12
ATOM     12  N   UNL     1      43.765   4.701   9.877  0.00  0.00    +0.000 N 
ATOM     13  H   UNL     1      42.879   4.731   9.380  0.00  0.00    +0.000 HD
BRANCH  12  14
ATOM     14  C   UNL     1      43.602   4.306  11.267  0.00  0.00    +0.000 C 
BRANCH  14  15
ATOM     15  C   UNL     1      44.726   4.870  12.094  0.00  0.00    +0.000 A 
ATOM     16  C   UNL     1      45.602   4.035  12.792  0.00  0.00    +0.000 A 
ATOM     17  C   UNL     1      46.652   4.611  13.490  0.00  0.00    +0.000 A 
ATOM     18  N   UNL     1      46.888   5.940  13.536  0.00  0.00    +0.000 NA
ATOM     19  C   UNL     1      46.030   6.731  12.858  0.00  0.00    +0.000 A 
ATOM     20  C   UNL     1      44.954   6.251  12.131  0.00  0.00    +0.000 A 
ENDBRANCH  14  15
ENDBRANCH  12  14
ENDBRANCH   4  12
TORSDOF 4
ENDMDL
MODEL 4
REMARK VINA RESULT:    -7.007      2.779      5.994
REMARK INTER + INTRA:          -8.976
REMARK INTER:                  -8.603
REMARK INTRA:                  -0.373
REMARK UNBOUND:                -0.330
REMARK  Name = 
REMARK  4 active torsions:
REMARK  status: ('A' for Active; 'I' for Inactive)
REMARK    1  A    between atoms: C_2  and  C_4
REMARK    2  A    between atoms: C_7  and  N_8
REMARK    3  A    between atoms: N_8  and  C_9
REMARK    4  A    between atoms: C_9  and  C_10
REMARK                            x       y       z     vdW  Elec       q    Type
REMARK                         _______ _______ _______ _____ _____    ______ ____
ROOT
ATOM      1  C   UNL     1      46.589   4.992  13.523  0.00  0.00    +0.000 A 
ATOM      2  C   UNL     1      46.857   5.991  12.605  0.00  0.00    +0.000 A 
ATOM      3  N   UNL     1      46.263   6.030  11.382  0.00  0.00    +0.000 NA
ATOM      4  C   UNL     1      45.354   5.071  11.113  0.00  0.00    +0.000 A 
ATOM      5  C   UNL     1      45.119   4.056  12.050  0.00  0.00    +0.000 A 
ATOM      6  N   UNL     1      45.713   3.983  13.267  0.00  0.00    +0.000 NA
ENDROOT
BRANCH   1   8
ATOM      7  N   UNL     1      46.693   4.188  15.798  0.00  0.00    +0.000 N 
ATOM      8  C   UNL     1      47.278   4.976  14.841  0.00  0.00    +0.000 C 
ATOM      9  O   UNL     1      48.298   5.609  15.058  0.00  0.00    +0.000 OA
ATOM     10  H   UNL     1      47.123   4.106  16.706  0.00  0.00    +0.000 HD
ATOM     11  H   UNL     1      45.858   3.656  15.573  0.00  0.00    +0.000 HD
ENDBRANCH   1   8
BRANCH   4  12
ATOM     12  N   UNL     1      44.760   5.132   9.860  0.00  0.00    +0.000 N 
ATOM     13  H   UNL     1      45.385   5.622   9.226  0.00  0.00    +0.000 HD
BRANCH  12  14
ATOM     14  C   UNL     1      44.253   3.896   9.284  0.00  0.00    +0.000 C 
BRANCH  14  15
ATOM     15  C   UNL     1      45.354   3.187   8.544  0.00  0.00    +0.000 A 
ATOM     16  C   UNL     1      45.550   1.810   8.681  0.00  0.00    +0.000 A 
ATOM     17  C   UNL     1      46.545   1.204   7.930  0.00  0.00    +0.000 A 
ATOM     18  N   UNL     1      47.343   1.864   7.063  0.00  0.00    +0.000 NA
ATOM     19  C   UNL     1      47.141   3.193   6.946  0.00  0.00    +0.000 A 
ATOM     20  C   UNL     1      46.173   3.888   7.651  0.00  0.00    +0.000 A 
ENDBRANCH  14  15
ENDBRANCH  12  14
ENDBRANCH   4  12
TORSDOF 4
ENDMDL
MODEL 5
REMARK VINA RESULT:    -5.883      3.440      5.625
REMARK INTER + INTRA:          -7.589
REMARK INTER:                  -7.292
REMARK INTRA:                  -0.297
REMARK UNBOUND:                -0.330
REMARK  Name = 
REMARK  4 active torsions:
REMARK  status: ('A' for Active; 'I' for Inactive)
REMARK    1  A    between atoms: C_2  and  C_4
REMARK    2  A    between atoms: C_7  and  N_8
REMARK    3  A    between atoms: N_8  and  C_9
REMARK    4  A    between atoms: C_9  and  C_10
REMARK                            x       y       z     vdW  Elec       q    Type
REMARK                         _______ _______ _______ _____ _____    ______ ____
ROOT
ATOM      1  C   UNL     1      44.910   4.222  11.782  0.00  0.00    +0.000 A 
ATOM      2  C   UNL     1      45.517   3.217  12.513  0.00  0.00    +0.000 A 
ATOM      3  N   UNL     1      46.271   3.476  13.616  0.00  0.00    +0.000 NA
ATOM      4  C   UNL     1      46.367   4.764  14.002  0.00  0.00    +0.000 A 
ATOM      5  C   UNL     1      45.763   5.766  13.231  0.00  0.00    +0.000 A 
ATOM      6  N   UNL     1      45.024   5.537  12.117  0.00  0.00    +0.000 NA
ENDROOT
BRANCH   1   8
ATOM      7  N   UNL     1      43.767   4.969   9.791  0.00  0.00    +0.000 N 
ATOM      8  C   UNL     1      44.113   3.896  10.570  0.00  0.00    +0.000 C 
ATOM      9  O   UNL     1      43.795   2.755  10.279  0.00  0.00    +0.000 OA
ATOM     10  H   UNL     1      43.251   4.819   8.938  0.00  0.00    +0.000 HD
ATOM     11  H   UNL     1      44.071   5.902  10.052  0.00  0.00    +0.000 HD
ENDBRANCH   1   8
BRANCH   4  12
ATOM     12  N   UNL     1      47.139   5.004  15.130  0.00  0.00    +0.000 N 
ATOM     13  H   UNL     1      46.953   5.947  15.459  0.00  0.00    +0.000 HD
BRANCH  12  14
ATOM     14  C   UNL     1      47.096   4.027  16.207  0.00  0.00    +0.000 C 
BRANCH  14  15
ATOM     15  C   UNL     1      48.491   3.748  16.700  0.00  0.00    +0.000 A 
ATOM     16  C   UNL     1      49.308   4.775  17.181  0.00  0.00    +0.000 A 
ATOM     17  C   UNL     1      50.562   4.447  17.674  0.00  0.00    +0.000 A 
ATOM     18  N   UNL     1      51.047   3.188  17.723  0.00  0.00    +0.000 NA
ATOM     19  C   UNL     1      50.244   2.211  17.252  0.00  0.00    +0.000 A 
ATOM     20  C   UNL     1      48.978   2.436  16.742  0.00  0.00    +0.000 A 
ENDBRANCH  14  15
ENDBRANCH  12  14
ENDBRANCH   4  12
TORSDOF 4
ENDMDL
MODEL 6
REMARK VINA RESULT:    -5.867      2.803      5.948
REMARK INTER + INTRA:          -7.569
REMARK INTER:                  -7.393
REMARK INTRA:                  -0.176
REMARK UNBOUND:                -0.330
REMARK  Name = 
REMARK  4 active torsions:
REMARK  status: ('A' for Active; 'I' for Inactive)
REMARK    1  A    between atoms: C_2  and  C_4
REMARK    2  A    between atoms: C_7  and  N_8
REMARK    3  A    between atoms: N_8  and  C_9
REMARK    4  A    between atoms: C_9  and  C_10
REMARK                            x       y       z     vdW  Elec       q    Type
REMARK                         _______ _______ _______ _____ _____    ______ ____
ROOT
ATOM      1  C   UNL     1      45.746   6.301  11.806  0.00  0.00    +0.000 A 
ATOM      2  C   UNL     1      46.150   6.242  10.485  0.00  0.00    +0.000 A 
ATOM      3  N   UNL     1      45.628   5.344   9.606  0.00  0.00    +0.000 NA
ATOM      4  C   UNL     1      44.655   4.532  10.067  0.00  0.00    +0.000 A 
ATOM      5  C   UNL     1      44.281   4.594  11.416  0.00  0.00    +0.000 A 
ATOM      6  N   UNL     1      44.800   5.466  12.317  0.00  0.00    +0.000 NA
ENDROOT
BRANCH   1   8
ATOM      7  N   UNL     1      46.749   6.778  13.951  0.00  0.00    +0.000 N 
ATOM      8  C   UNL     1      46.359   7.284  12.738  0.00  0.00    +0.000 C 
ATOM      9  O   UNL     1      46.517   8.458  12.445  0.00  0.00    +0.000 OA
ATOM     10  H   UNL     1      47.199   7.382  14.620  0.00  0.00    +0.000 HD
ATOM     11  H   UNL     1      46.624   5.790  14.149  0.00  0.00    +0.000 HD
ENDBRANCH   1   8
BRANCH   4  12
ATOM     12  N   UNL     1      44.137   3.626   9.153  0.00  0.00    +0.000 N 
ATOM     13  H   UNL     1      44.145   4.052   8.230  0.00  0.00    +0.000 HD
BRANCH  12  14
ATOM     14  C   UNL     1      44.685   2.279   9.142  0.00  0.00    +0.000 C 
BRANCH  14  15
ATOM     15  C   UNL     1      45.688   2.145   8.028  0.00  0.00    +0.000 A 
ATOM     16  C   UNL     1      45.837   3.144   7.063  0.00  0.00    +0.000 A 
ATOM     17  C   UNL     1      46.817   2.989   6.095  0.00  0.00    +0.000 A 
ATOM     18  N   UNL     1      47.648   1.926   6.026  0.00  0.00    +0.000 NA
ATOM     19  C   UNL     1      47.487   0.970   6.965  0.00  0.00    +0.000 A 
ATOM     20  C   UNL     1      46.539   1.034   7.972  0.00  0.00    +0.000 A 
ENDBRANCH  14  15
ENDBRANCH  12  14
ENDBRANCH   4  12
TORSDOF 4
ENDMDL
MODEL 7
REMARK VINA RESULT:    -5.675      4.880      8.449
REMARK INTER + INTRA:          -7.333
REMARK INTER:                  -7.090
REMARK INTRA:                  -0.242
REMARK UNBOUND:                -0.330
REMARK  Name = 
REMARK  4 active torsions:
REMARK  status: ('A' for Active; 'I' for Inactive)
REMARK    1  A    between atoms: C_2  and  C_4
REMARK    2  A    between atoms: C_7  and  N_8
REMARK    3  A    between atoms: N_8  and  C_9
REMARK    4  A    between atoms: C_9  and  C_10
REMARK                            x       y       z     vdW  Elec       q    Type
REMARK                         _______ _______ _______ _____ _____    ______ ____
ROOT
ATOM      1  C   UNL     1      48.394   4.557  18.189  0.00  0.00    +0.000 A 
ATOM      2  C   UNL     1      47.498   3.521  17.998  0.00  0.00    +0.000 A 
ATOM      3  N   UNL     1      46.884   3.304  16.803  0.00  0.00    +0.000 NA
ATOM      4  C   UNL     1      47.222   4.121  15.785  0.00  0.00    +0.000 A 
ATOM      5  C   UNL     1      48.113   5.179  16.011  0.00  0.00    +0.000 A 
ATOM      6  N   UNL     1      48.722   5.428  17.196  0.00  0.00    +0.000 NA
ENDROOT
BRANCH   1   8
ATOM      7  N   UNL     1      48.588   3.938  20.515  0.00  0.00    +0.000 N 
ATOM      8  C   UNL     1      49.026   4.770  19.518  0.00  0.00    +0.000 C 
ATOM      9  O   UNL     1      49.882   5.617  19.711  0.00  0.00    +0.000 OA
ATOM     10  H   UNL     1      48.995   4.006  21.435  0.00  0.00    +0.000 HD
ATOM     11  H   UNL     1      47.892   3.228  20.310  0.00  0.00    +0.000 HD
ENDBRANCH   1   8
BRANCH   4  12
ATOM     12  N   UNL     1      46.584   3.880  14.576  0.00  0.00    +0.000 N 
ATOM     13  H   UNL     1      45.799   3.255  14.740  0.00  0.00    +0.000 HD
BRANCH  12  14
ATOM     14  C   UNL     1      46.213   5.025  13.760  0.00  0.00    +0.000 C 
BRANCH  14  15
ATOM     15  C   UNL     1      45.074   4.656  12.848  0.00  0.00    +0.000 A 
ATOM     16  C   UNL     1      45.120   3.500  12.064  0.00  0.00    +0.000 A 
ATOM     17  C   UNL     1      44.016   3.183  11.287  0.00  0.00    +0.000 A 
ATOM     18  N   UNL     1      42.889   3.925  11.240  0.00  0.00    +0.000 NA
ATOM     19  C   UNL     1      42.865   5.039  12.002  0.00  0.00    +0.000 A 
ATOM     20  C   UNL     1      43.914   5.438  12.811  0.00  0.00    +0.000 A 
ENDBRANCH  14  15
ENDBRANCH  12  14
ENDBRANCH   4  12
TORSDOF 4
ENDMDL
MODEL 8
REMARK VINA RESULT:    -5.467      4.078      6.364
REMARK INTER + INTRA:          -7.076
REMARK INTER:                  -6.791
REMARK INTRA:                  -0.284
REMARK UNBOUND:                -0.330
REMARK  Name = 
REMARK  4 active torsions:
REMARK  status: ('A' for Active; 'I' for Inactive)
REMARK    1  A    between atoms: C_2  and  C_4
REMARK    2  A    between atoms: C_7  and  N_8
REMARK    3  A    between atoms: N_8  and  C_9
REMARK    4  A    between atoms: C_9  and  C_10
REMARK                            x       y       z     vdW  Elec       q    Type
REMARK                         _______ _______ _______ _____ _____    ______ ____
ROOT
ATOM      1  C   UNL     1      45.877   5.491  12.190  0.00  0.00    +0.000 A 
ATOM      2  C   UNL     1      45.562   4.154  12.350  0.00  0.00    +0.000 A 
ATOM      3  N   UNL     1      46.056   3.410  13.376  0.00  0.00    +0.000 NA
ATOM      4  C   UNL     1      46.838   4.047  14.272  0.00  0.00    +0.000 A 
ATOM      5  C   UNL     1      47.162   5.395  14.074  0.00  0.00    +0.000 A 
ATOM      6  N   UNL     1      46.700   6.153  13.049  0.00  0.00    +0.000 NA
ENDROOT
BRANCH   1   8
ATOM      7  N   UNL     1      45.376   5.618   9.831  0.00  0.00    +0.000 N 
ATOM      8  C   UNL     1      45.332   6.261  11.041  0.00  0.00    +0.000 C 
ATOM      9  O   UNL     1      44.867   7.383  11.161  0.00  0.00    +0.000 OA
ATOM     10  H   UNL     1      44.997   6.069   9.014  0.00  0.00    +0.000 HD
ATOM     11  H   UNL     1      45.748   4.675   9.775  0.00  0.00    +0.000 HD
ENDBRANCH   1   8
BRANCH   4  12
ATOM     12  N   UNL     1      47.329   3.268  15.311  0.00  0.00    +0.000 N 
ATOM     13  H   UNL     1      48.084   2.688  14.955  0.00  0.00    +0.000 HD
BRANCH  12  14
ATOM     14  C   UNL     1      47.685   3.934  16.553  0.00  0.00    +0.000 C 
BRANCH  14  15
ATOM     15  C   UNL     1      49.049   3.484  17.002  0.00  0.00    +0.000 A 
ATOM     16  C   UNL     1      49.477   2.168  16.812  0.00  0.00    +0.000 A 
ATOM     17  C   UNL     1      50.765   1.828  17.195  0.00  0.00    +0.000 A 
ATOM     18  N   UNL     1      51.643   2.697  17.741  0.00  0.00    +0.000 NA
ATOM     19  C   UNL     1      51.211   3.963  17.918  0.00  0.00    +0.000 A 
ATOM     20  C   UNL     1      49.945   4.399  17.568  0.00  0.00    +0.000 A 
ENDBRANCH  14  15
ENDBRANCH  12  14
ENDBRANCH   4  12
TORSDOF 4
ENDMDL
MODEL 9
REMARK VINA RESULT:    -4.839      3.099      4.937
REMARK INTER + INTRA:          -6.301
REMARK INTER:                  -5.971
REMARK INTRA:                  -0.330
REMARK UNBOUND:                -0.330
REMARK  Name = 
REMARK  4 active torsions:
REMARK  status: ('A' for Active; 'I' for Inactive)
REMARK    1  A    between atoms: C_2  and  C_4
REMARK    2  A    between atoms: C_7  and  N_8
REMARK    3  A    between atoms: N_8  and  C_9
REMARK    4  A    between atoms: C_9  and  C_10
REMARK                            x       y       z     vdW  Elec       q    Type
REMARK                         _______ _______ _______ _____ _____    ______ ____
ROOT
ATOM      1  C   UNL     1      44.622   4.290  11.306  0.00  0.00    +0.000 A 
ATOM      2  C   UNL     1      44.503   4.483  12.671  0.00  0.00    +0.000 A 
ATOM      3  N   UNL     1      44.962   5.606  13.287  0.00  0.00    +0.000 NA
ATOM      4  C   UNL     1      45.503   6.558  12.500  0.00  0.00    +0.000 A 
ATOM      5  C   UNL     1      45.635   6.327  11.124  0.00  0.00    +0.000 A 
ATOM      6  N   UNL     1      45.204   5.209  10.489  0.00  0.00    +0.000 NA
ENDROOT
BRANCH   1   8
ATOM      7  N   UNL     1      43.451   2.188  11.515  0.00  0.00    +0.000 N 
ATOM      8  C   UNL     1      44.125   3.038  10.677  0.00  0.00    +0.000 C 
ATOM      9  O   UNL     1      44.292   2.784   9.495  0.00  0.00    +0.000 OA
ATOM     10  H   UNL     1      43.061   1.334  11.150  0.00  0.00    +0.000 HD
ATOM     11  H   UNL     1      43.310   2.446  12.487  0.00  0.00    +0.000 HD
ENDBRANCH   1   8
BRANCH   4  12
ATOM     12  N   UNL     1      45.964   7.694  13.151  0.00  0.00    +0.000 N 
ATOM     13  H   UNL     1      45.684   7.647  14.127  0.00  0.00    +0.000 HD
BRANCH  12  14
ATOM     14  C   UNL     1      47.366   8.048  12.997  0.00  0.00    +0.000 C 
BRANCH  14  15
ATOM     15  C   UNL     1      48.071   7.931  14.322  0.00  0.00    +0.000 A 
ATOM     16  C   UNL     1      48.208   9.034  15.169  0.00  0.00    +0.000 A 
ATOM     17  C   UNL     1      48.817   8.851  16.401  0.00  0.00    +0.000 A 
ATOM     18  N   UNL     1      49.287   7.663  16.840  0.00  0.00    +0.000 NA
ATOM     19  C   UNL     1      49.148   6.611  16.007  0.00  0.00    +0.000 A 
ATOM     20  C   UNL     1      48.553   6.692  14.760  0.00  0.00    +0.000 A 
ENDBRANCH  14  15
ENDBRANCH  12  14
ENDBRANCH   4  12
TORSDOF 4
ENDMDL
