MODEL 1
REMARK VINA RESULT:    -8.735      0.000      0.000
REMARK INTER + INTRA:         -12.703
REMARK INTER:                 -11.799
REMARK INTRA:                  -0.904
REMARK UNBOUND:                -0.904
REMARK  Name = 
REMARK  7 active torsions:
REMARK  status: ('A' for Active; 'I' for Inactive)
REMARK    1  A    between atoms: C_1  and  O_2
REMARK    2  A    between atoms: O_2  and  C_3
REMARK    3  A    between atoms: C_6  and  C_7
REMARK    4  A    between atoms: C_11  and  C_12
REMARK    5  A    between atoms: C_12  and  N_13
REMARK    6  A    between atoms: N_13  and  C_14
REMARK    7  A    between atoms: C_17  and  C_18
REMARK                            x       y       z     vdW  Elec       q    Type
REMARK                         _______ _______ _______ _____ _____    ______ ____
ROOT
ATOM      1  C   UNL     1      43.895   4.941  11.448  0.00  0.00    +0.000 C 
ATOM      2  C   UNL     1      43.017   6.171  11.329  0.00  0.00    +0.000 C 
ATOM      3  C   UNL     1      42.636   5.107  12.304  0.00  0.00    +0.000 C 
ENDROOT
BRANCH   1   8
ATOM      4  C   UNL     1      47.181   6.250  12.577  0.00  0.00    +0.000 A 
ATOM      5  N   UNL     1      47.675   5.333  13.426  0.00  0.00    +0.000 NA
ATOM      6  C   UNL     1      46.896   4.262  13.654  0.00  0.00    +0.000 A 
ATOM      7  C   UNL     1      45.672   4.068  13.057  0.00  0.00    +0.000 A 
ATOM      8  C   UNL     1      45.232   5.054  12.196  0.00  0.00    +0.000 A 
ATOM      9  N   UNL     1      45.982   6.157  11.974  0.00  0.00    +0.000 NA
BRANCH   4  13
ATOM     10  C   UNL     1      49.440   9.677  11.544  0.00  0.00    +0.000 A 
ATOM     11  C   UNL     1      50.102   8.462  11.589  0.00  0.00    +0.000 A 
ATOM     12  C   UNL     1      49.376   7.320  11.940  0.00  0.00    +0.000 A 
ATOM     13  C   UNL     1      48.008   7.411  12.235  0.00  0.00    +0.000 A 
ATOM     14  C   UNL     1      47.457   8.692  12.161  0.00  0.00    +0.000 A 
ATOM     15  N   UNL     1      48.132   9.819  11.826  0.00  0.00    +0.000 NA
BRANCH  10  17
ATOM     16  C   UNL     1      51.442  10.430  10.615  0.00  0.00    +0.000 C 
ATOM     17  O   UNL     1      50.187  10.782  11.193  0.00  0.00    +0.000 OA
ENDBRANCH  10  17
ENDBRANCH   4  13
ENDBRANCH   1   8
BRANCH   1  18
ATOM     18  N   UNL     1      43.821   3.815  10.495  0.00  0.00    +0.000 N 
ATOM     19  H   UNL     1      43.393   2.980  10.892  0.00  0.00    +0.000 HD
BRANCH  18  20
ATOM     20  C   UNL     1      44.792   3.501   9.524  0.00  0.00    +0.000 A 
ATOM     21  C   UNL     1      45.379   4.437   8.671  0.00  0.00    +0.000 A 
ATOM     22  C   UNL     1      46.269   4.035   7.664  0.00  0.00    +0.000 A 
ATOM     23  C   UNL     1      46.569   2.680   7.479  0.00  0.00    +0.000 A 
ATOM     24  C   UNL     1      45.957   1.731   8.298  0.00  0.00    +0.000 A 
ATOM     25  C   UNL     1      45.075   2.143   9.303  0.00  0.00    +0.000 A 
BRANCH  23  26
ATOM     26  C   UNL     1      47.486   2.291   6.374  0.00  0.00    +0.000 C 
ATOM     27  N   UNL     1      47.430   3.022   5.219  0.00  0.00    +0.000 N 
ATOM     28  O   UNL     1      48.246   1.338   6.478  0.00  0.00    +0.000 OA
ATOM     29  H   UNL     1      46.685   3.667   5.008  0.00  0.00    +0.000 HD
ATOM     30  H   UNL     1      48.003   2.695   4.451  0.00  0.00    +0.000 HD
ENDBRANCH  23  26
ENDBRANCH  18  20
ENDBRANCH   1  18
TORSDOF 6
ENDMDL
MODEL 2
REMARK VINA RESULT:    -8.601      2.829      4.286
REMARK INTER + INTRA:         -12.522
REMARK INTER:                 -12.396
REMARK INTRA:                  -0.126
REMARK UNBOUND:                -0.904
REMARK  Name = 
REMARK  7 active torsions:
REMARK  status: ('A' for Active; 'I' for Inactive)
REMARK    1  A    between atoms: C_1  and  O_2
REMARK    2  A    between atoms: O_2  and  C_3
REMARK    3  A    between atoms: C_6  and  C_7
REMARK    4  A    between atoms: C_11  and  C_12
REMARK    5  A    between atoms: C_12  and  N_13
REMARK    6  A    between atoms: N_13  and  C_14
REMARK    7  A    between atoms: C_17  and  C_18
REMARK                            x       y       z     vdW  Elec       q    Type
REMARK                         _______ _______ _______ _____ _____    ______ ____
ROOT
ATOM      1  C   UNL     1      43.929   4.977  11.537  0.00  0.00    +0.000 C 
ATOM      2  C   UNL     1      42.734   5.162  12.452  0.00  0.00    +0.000 C 
ATOM      3  C   UNL     1      43.385   3.820  12.381  0.00  0.00    +0.000 C 
ENDROOT
BRANCH   1   8
ATOM      4  C   UNL     1      47.002   5.570  13.535  0.00  0.00    +0.000 A 
ATOM      5  N   UNL     1      47.690   6.523  12.883  0.00  0.00    +0.000 NA
ATOM      6  C   UNL     1      47.141   6.970  11.741  0.00  0.00    +0.000 A 
ATOM      7  C   UNL     1      45.939   6.521  11.246  0.00  0.00    +0.000 A 
ATOM      8  C   UNL     1      45.290   5.540  11.972  0.00  0.00    +0.000 A 
ATOM      9  N   UNL     1      45.836   5.052  13.107  0.00  0.00    +0.000 NA
BRANCH   4  13
ATOM     10  C   UNL     1      48.605   4.261  17.226  0.00  0.00    +0.000 A 
ATOM     11  C   UNL     1      47.661   3.453  16.614  0.00  0.00    +0.000 A 
ATOM     12  C   UNL     1      47.111   3.874  15.400  0.00  0.00    +0.000 A 
ATOM     13  C   UNL     1      47.513   5.086  14.820  0.00  0.00    +0.000 A 
ATOM     14  C   UNL     1      48.466   5.813  15.537  0.00  0.00    +0.000 A 
ATOM     15  N   UNL     1      49.019   5.436  16.716  0.00  0.00    +0.000 NA
BRANCH  10  17
ATOM     16  C   UNL     1      49.802   4.846  19.140  0.00  0.00    +0.000 C 
ATOM     17  O   UNL     1      49.128   3.814  18.422  0.00  0.00    +0.000 OA
ENDBRANCH  10  17
ENDBRANCH   4  13
ENDBRANCH   1   8
BRANCH   1  18
ATOM     18  N   UNL     1      43.791   4.767  10.082  0.00  0.00    +0.000 N 
ATOM     19  H   UNL     1      42.824   4.797   9.761  0.00  0.00    +0.000 HD
BRANCH  18  20
ATOM     20  C   UNL     1      44.579   3.897   9.303  0.00  0.00    +0.000 A 
ATOM     21  C   UNL     1      44.625   2.513   9.479  0.00  0.00    +0.000 A 
ATOM     22  C   UNL     1      45.506   1.722   8.727  0.00  0.00    +0.000 A 
ATOM     23  C   UNL     1      46.375   2.308   7.799  0.00  0.00    +0.000 A 
ATOM     24  C   UNL     1      46.367   3.694   7.643  0.00  0.00    +0.000 A 
ATOM     25  C   UNL     1      45.482   4.475   8.394  0.00  0.00    +0.000 A 
BRANCH  23  26
ATOM     26  C   UNL     1      47.322   1.438   7.051  0.00  0.00    +0.000 C 
ATOM     27  N   UNL     1      48.433   2.029   6.512  0.00  0.00    +0.000 N 
ATOM     28  O   UNL     1      47.109   0.244   6.896  0.00  0.00    +0.000 OA
ATOM     29  H   UNL     1      48.542   3.028   6.428  0.00  0.00    +0.000 HD
ATOM     30  H   UNL     1      49.024   1.440   5.940  0.00  0.00    +0.000 HD
ENDBRANCH  23  26
ENDBRANCH  18  20
ENDBRANCH   1  18
TORSDOF 6
ENDMDL
MODEL 3
REMARK VINA RESULT:    -7.600      2.299      3.304
REMARK INTER + INTRA:         -11.170
REMARK INTER:                 -11.334
REMARK INTRA:                   0.164
REMARK UNBOUND:                -0.904
REMARK  Name = 
REMARK  7 active torsions:
REMARK  status: ('A' for Active; 'I' for Inactive)
REMARK    1  A    between atoms: C_1  and  O_2
REMARK    2  A    between atoms: O_2  and  C_3
REMARK    3  A    between atoms: C_6  and  C_7
REMARK    4  A    between atoms: C_11  and  C_12
REMARK    5  A    between atoms: C_12  and  N_13
REMARK    6  A    between atoms: N_13  and  C_14
REMARK    7  A    between atoms: C_17  and  C_18
REMARK                            x       y       z     vdW  Elec       q    Type
REMARK                         _______ _______ _______ _____ _____    ______ ____
ROOT
ATOM      1  C   UNL     1      44.013   4.919  11.612  0.00  0.00    +0.000 C 
ATOM      2  C   UNL     1      43.142   4.368  12.724  0.00  0.00    +0.000 C 
ATOM      3  C   UNL     1      44.435   3.688  12.418  0.00  0.00    +0.000 C 
ENDROOT
BRANCH   1   8
ATOM      4  C   UNL     1      46.656   7.201  12.873  0.00  0.00    +0.000 A 
ATOM      5  N   UNL     1      46.319   8.431  12.450  0.00  0.00    +0.000 NA
ATOM      6  C   UNL     1      45.201   8.512  11.708  0.00  0.00    +0.000 A 
ATOM      7  C   UNL     1      44.411   7.429  11.397  0.00  0.00    +0.000 A 
ATOM      8  C   UNL     1      44.823   6.198  11.869  0.00  0.00    +0.000 A 
ATOM      9  N   UNL     1      45.960   6.084  12.591  0.00  0.00    +0.000 NA
BRANCH   4  13
ATOM     10  C   UNL     1      49.951   6.691  15.480  0.00  0.00    +0.000 A 
ATOM     11  C   UNL     1      50.004   7.738  14.576  0.00  0.00    +0.000 A 
ATOM     12  C   UNL     1      48.931   7.916  13.699  0.00  0.00    +0.000 A 
ATOM     13  C   UNL     1      47.828   7.051  13.741  0.00  0.00    +0.000 A 
ATOM     14  C   UNL     1      47.896   6.030  14.691  0.00  0.00    +0.000 A 
ATOM     15  N   UNL     1      48.920   5.828  15.556  0.00  0.00    +0.000 NA
BRANCH  10  17
ATOM     16  C   UNL     1      50.675   5.874  17.540  0.00  0.00    +0.000 C 
ATOM     17  O   UNL     1      51.026   6.546  16.332  0.00  0.00    +0.000 OA
ENDBRANCH  10  17
ENDBRANCH   4  13
ENDBRANCH   1   8
BRANCH   1  18
ATOM     18  N   UNL     1      43.755   4.635  10.185  0.00  0.00    +0.000 N 
ATOM     19  H   UNL     1      42.767   4.508   9.972  0.00  0.00    +0.000 HD
BRANCH  18  20
ATOM     20  C   UNL     1      44.580   3.863   9.344  0.00  0.00    +0.000 A 
ATOM     21  C   UNL     1      44.666   2.471   9.394  0.00  0.00    +0.000 A 
ATOM     22  C   UNL     1      45.582   1.778   8.588  0.00  0.00    +0.000 A 
ATOM     23  C   UNL     1      46.445   2.471   7.732  0.00  0.00    +0.000 A 
ATOM     24  C   UNL     1      46.396   3.865   7.702  0.00  0.00    +0.000 A 
ATOM     25  C   UNL     1      45.477   4.547   8.506  0.00  0.00    +0.000 A 
BRANCH  23  26
ATOM     26  C   UNL     1      47.428   1.701   6.922  0.00  0.00    +0.000 C 
ATOM     27  N   UNL     1      48.516   2.377   6.439  0.00  0.00    +0.000 N 
ATOM     28  O   UNL     1      47.263   0.515   6.673  0.00  0.00    +0.000 OA
ATOM     29  H   UNL     1      48.585   3.383   6.434  0.00  0.00    +0.000 HD
ATOM     30  H   UNL     1      49.132   1.858   5.826  0.00  0.00    +0.000 HD
ENDBRANCH  23  26
ENDBRANCH  18  20
ENDBRANCH   1  18
TORSDOF 6
ENDMDL
MODEL 4
REMARK VINA RESULT:    -7.519      2.984      7.662
REMARK INTER + INTRA:         -11.060
REMARK INTER:                 -10.202
REMARK INTRA:                  -0.858
REMARK UNBOUND:                -0.904
REMARK  Name = 
REMARK  7 active torsions:
REMARK  status: ('A' for Active; 'I' for Inactive)
REMARK    1  A    between atoms: C_1  and  O_2
REMARK    2  A    between atoms: O_2  and  C_3
REMARK    3  A    between atoms: C_6  and  C_7
REMARK    4  A    between atoms: C_11  and  C_12
REMARK    5  A    between atoms: C_12  and  N_13
REMARK    6  A    between atoms: N_13  and  C_14
REMARK    7  A    between atoms: C_17  and  C_18
REMARK                            x       y       z     vdW  Elec       q    Type
REMARK                         _______ _______ _______ _____ _____    ______ ____
ROOT
ATOM      1  C   UNL     1      46.194   7.312  12.495  0.00  0.00    +0.000 C 
ATOM      2  C   UNL     1      45.665   8.561  13.171  0.00  0.00    +0.000 C 
ATOM      3  C   UNL     1      46.402   8.699  11.881  0.00  0.00    +0.000 C 
ENDROOT
BRANCH   1   8
ATOM      4  C   UNL     1      44.868   4.742  10.167  0.00  0.00    +0.000 A 
ATOM      5  N   UNL     1      43.534   4.748  10.329  0.00  0.00    +0.000 NA
ATOM      6  C   UNL     1      43.055   5.605  11.246  0.00  0.00    +0.000 A 
ATOM      7  C   UNL     1      43.847   6.457  11.981  0.00  0.00    +0.000 A 
ATOM      8  C   UNL     1      45.209   6.394  11.758  0.00  0.00    +0.000 A 
ATOM      9  N   UNL     1      45.719   5.518  10.864  0.00  0.00    +0.000 NA
BRANCH   4  13
ATOM     10  C   UNL     1      46.559   2.131   7.298  0.00  0.00    +0.000 A 
ATOM     11  C   UNL     1      46.653   3.492   7.061  0.00  0.00    +0.000 A 
ATOM     12  C   UNL     1      46.090   4.370   7.991  0.00  0.00    +0.000 A 
ATOM     13  C   UNL     1      45.449   3.877   9.136  0.00  0.00    +0.000 A 
ATOM     14  C   UNL     1      45.414   2.487   9.258  0.00  0.00    +0.000 A 
ATOM     15  N   UNL     1      45.947   1.607   8.376  0.00  0.00    +0.000 NA
BRANCH  10  17
ATOM     16  C   UNL     1      47.894   2.003   5.390  0.00  0.00    +0.000 C 
ATOM     17  O   UNL     1      47.126   1.294   6.360  0.00  0.00    +0.000 OA
ENDBRANCH  10  17
ENDBRANCH   4  13
ENDBRANCH   1   8
BRANCH   1  18
ATOM     18  N   UNL     1      47.449   6.653  12.912  0.00  0.00    +0.000 N 
ATOM     19  H   UNL     1      47.962   6.238  12.135  0.00  0.00    +0.000 HD
BRANCH  18  20
ATOM     20  C   UNL     1      47.640   5.941  14.111  0.00  0.00    +0.000 A 
ATOM     21  C   UNL     1      46.963   4.766  14.441  0.00  0.00    +0.000 A 
ATOM     22  C   UNL     1      47.136   4.163  15.696  0.00  0.00    +0.000 A 
ATOM     23  C   UNL     1      47.974   4.744  16.655  0.00  0.00    +0.000 A 
ATOM     24  C   UNL     1      48.625   5.940  16.353  0.00  0.00    +0.000 A 
ATOM     25  C   UNL     1      48.450   6.530  15.096  0.00  0.00    +0.000 A 
BRANCH  23  26
ATOM     26  C   UNL     1      48.099   4.095  17.988  0.00  0.00    +0.000 C 
ATOM     27  N   UNL     1      47.796   4.850  19.089  0.00  0.00    +0.000 N 
ATOM     28  O   UNL     1      48.484   2.940  18.105  0.00  0.00    +0.000 OA
ATOM     29  H   UNL     1      47.685   5.852  19.060  0.00  0.00    +0.000 HD
ATOM     30  H   UNL     1      47.962   4.420  19.990  0.00  0.00    +0.000 HD
ENDBRANCH  23  26
ENDBRANCH  18  20
ENDBRANCH   1  18
TORSDOF 6
ENDMDL
MODEL 5
REMARK VINA RESULT:    -6.940      5.216      8.670
REMARK INTER + INTRA:         -10.277
REMARK INTER:                  -9.700
REMARK INTRA:                  -0.578
REMARK UNBOUND:                -0.904
REMARK  Name = 
REMARK  7 active torsions:
REMARK  status: ('A' for Active; 'I' for Inactive)
REMARK    1  A    between atoms: C_1  and  O_2
REMARK    2  A    between atoms: O_2  and  C_3
REMARK    3  A    between atoms: C_6  and  C_7
REMARK    4  A    between atoms: C_11  and  C_12
REMARK    5  A    between atoms: C_12  and  N_13
REMARK    6  A    between atoms: N_13  and  C_14
REMARK    7  A    between atoms: C_17  and  C_18
REMARK                            x       y       z     vdW  Elec       q    Type
REMARK                         _______ _______ _______ _____ _____    ______ ____
ROOT
ATOM      1  C   UNL     1      48.369   4.813  17.172  0.00  0.00    +0.000 C 
ATOM      2  C   UNL     1      47.305   3.787  17.509  0.00  0.00    +0.000 C 
ATOM      3  C   UNL     1      47.261   5.118  18.184  0.00  0.00    +0.000 C 
ENDROOT
BRANCH   1   8
ATOM      4  C   UNL     1      47.324   5.727  13.728  0.00  0.00    +0.000 A 
ATOM      5  N   UNL     1      48.077   6.785  13.380  0.00  0.00    +0.000 NA
ATOM      6  C   UNL     1      48.939   7.227  14.311  0.00  0.00    +0.000 A 
ATOM      7  C   UNL     1      49.087   6.646  15.550  0.00  0.00    +0.000 A 
ATOM      8  C   UNL     1      48.278   5.563  15.835  0.00  0.00    +0.000 A 
ATOM      9  N   UNL     1      47.381   5.118  14.927  0.00  0.00    +0.000 NA
BRANCH   4  13
ATOM     10  C   UNL     1      44.726   3.933  10.910  0.00  0.00    +0.000 A 
ATOM     11  C   UNL     1      45.160   5.222  10.652  0.00  0.00    +0.000 A 
ATOM     12  C   UNL     1      46.009   5.836  11.577  0.00  0.00    +0.000 A 
ATOM     13  C   UNL     1      46.410   5.155  12.735  0.00  0.00    +0.000 A 
ATOM     14  C   UNL     1      45.900   3.864  12.884  0.00  0.00    +0.000 A 
ATOM     15  N   UNL     1      45.074   3.239  12.009  0.00  0.00    +0.000 NA
BRANCH  10  17
ATOM     16  C   UNL     1      44.540   2.332   9.224  0.00  0.00    +0.000 C 
ATOM     17  O   UNL     1      43.891   3.357   9.976  0.00  0.00    +0.000 OA
ENDBRANCH  10  17
ENDBRANCH   4  13
ENDBRANCH   1   8
BRANCH   1  18
ATOM     18  N   UNL     1      49.721   4.780  17.764  0.00  0.00    +0.000 N 
ATOM     19  H   UNL     1      50.191   5.685  17.745  0.00  0.00    +0.000 HD
BRANCH  18  20
ATOM     20  C   UNL     1      50.632   3.710  17.666  0.00  0.00    +0.000 A 
ATOM     21  C   UNL     1      50.274   2.407  17.318  0.00  0.00    +0.000 A 
ATOM     22  C   UNL     1      51.221   1.373  17.332  0.00  0.00    +0.000 A 
ATOM     23  C   UNL     1      52.543   1.623  17.720  0.00  0.00    +0.000 A 
ATOM     24  C   UNL     1      52.904   2.913  18.109  0.00  0.00    +0.000 A 
ATOM     25  C   UNL     1      51.953   3.939  18.086  0.00  0.00    +0.000 A 
BRANCH  23  26
ATOM     26  C   UNL     1      53.507   0.490  17.761  0.00  0.00    +0.000 C 
ATOM     27  N   UNL     1      53.128  -0.639  18.434  0.00  0.00    +0.000 N 
ATOM     28  O   UNL     1      54.610   0.569  17.237  0.00  0.00    +0.000 OA
ATOM     29  H   UNL     1      52.334  -0.673  19.054  0.00  0.00    +0.000 HD
ATOM     30  H   UNL     1      53.826  -1.368  18.519  0.00  0.00    +0.000 HD
ENDBRANCH  23  26
ENDBRANCH  18  20
ENDBRANCH   1  18
TORSDOF 6
ENDMDL
MODEL 6
REMARK VINA RESULT:    -6.653      4.528      6.871
REMARK INTER + INTRA:          -9.891
REMARK INTER:                  -9.100
REMARK INTRA:                  -0.791
REMARK UNBOUND:                -0.904
REMARK  Name = 
REMARK  7 active torsions:
REMARK  status: ('A' for Active; 'I' for Inactive)
REMARK    1  A    between atoms: C_1  and  O_2
REMARK    2  A    between atoms: O_2  and  C_3
REMARK    3  A    between atoms: C_6  and  C_7
REMARK    4  A    between atoms: C_11  and  C_12
REMARK    5  A    between atoms: C_12  and  N_13
REMARK    6  A    between atoms: N_13  and  C_14
REMARK    7  A    between atoms: C_17  and  C_18
REMARK                            x       y       z     vdW  Elec       q    Type
REMARK                         _______ _______ _______ _____ _____    ______ ____
ROOT
ATOM      1  C   UNL     1      48.228   7.696  13.732  0.00  0.00    +0.000 C 
ATOM      2  C   UNL     1      49.261   7.510  12.638  0.00  0.00    +0.000 C 
ATOM      3  C   UNL     1      48.916   8.895  13.073  0.00  0.00    +0.000 C 
ENDROOT
BRANCH   1   8
ATOM      4  C   UNL     1      49.452   5.903  16.744  0.00  0.00    +0.000 A 
ATOM      5  N   UNL     1      49.318   6.763  17.768  0.00  0.00    +0.000 NA
ATOM      6  C   UNL     1      48.832   7.977  17.458  0.00  0.00    +0.000 A 
ATOM      7  C   UNL     1      48.462   8.349  16.186  0.00  0.00    +0.000 A 
ATOM      8  C   UNL     1      48.629   7.410  15.186  0.00  0.00    +0.000 A 
ATOM      9  N   UNL     1      49.145   6.193  15.466  0.00  0.00    +0.000 NA
BRANCH   4  13
ATOM     10  C   UNL     1      50.936   2.018  17.527  0.00  0.00    +0.000 A 
ATOM     11  C   UNL     1      49.614   2.132  17.131  0.00  0.00    +0.000 A 
ATOM     12  C   UNL     1      49.102   3.407  16.879  0.00  0.00    +0.000 A 
ATOM     13  C   UNL     1      49.915   4.541  17.024  0.00  0.00    +0.000 A 
ATOM     14  C   UNL     1      51.227   4.296  17.435  0.00  0.00    +0.000 A 
ATOM     15  N   UNL     1      51.755   3.074  17.689  0.00  0.00    +0.000 NA
BRANCH  10  17
ATOM     16  C   UNL     1      52.834   0.686  17.776  0.00  0.00    +0.000 C 
ATOM     17  O   UNL     1      51.409   0.745  17.766  0.00  0.00    +0.000 OA
ENDBRANCH  10  17
ENDBRANCH   4  13
ENDBRANCH   1   8
BRANCH   1  18
ATOM     18  N   UNL     1      46.775   7.629  13.473  0.00  0.00    +0.000 N 
ATOM     19  H   UNL     1      46.220   8.125  14.170  0.00  0.00    +0.000 HD
BRANCH  18  20
ATOM     20  C   UNL     1      46.089   6.520  12.943  0.00  0.00    +0.000 A 
ATOM     21  C   UNL     1      45.976   5.287  13.588  0.00  0.00    +0.000 A 
ATOM     22  C   UNL     1      45.358   4.198  12.955  0.00  0.00    +0.000 A 
ATOM     23  C   UNL     1      44.862   4.319  11.652  0.00  0.00    +0.000 A 
ATOM     24  C   UNL     1      45.005   5.534  10.981  0.00  0.00    +0.000 A 
ATOM     25  C   UNL     1      45.618   6.616  11.622  0.00  0.00    +0.000 A 
BRANCH  23  26
ATOM     26  C   UNL     1      44.249   3.130  11.001  0.00  0.00    +0.000 C 
ATOM     27  N   UNL     1      44.992   2.472  10.058  0.00  0.00    +0.000 N 
ATOM     28  O   UNL     1      43.115   2.763  11.274  0.00  0.00    +0.000 OA
ATOM     29  H   UNL     1      45.831   2.854   9.649  0.00  0.00    +0.000 HD
ATOM     30  H   UNL     1      44.531   1.715   9.570  0.00  0.00    +0.000 HD
ENDBRANCH  23  26
ENDBRANCH  18  20
ENDBRANCH   1  18
TORSDOF 6
ENDMDL
MODEL 7
REMARK VINA RESULT:    -6.323      1.643      6.899
REMARK INTER + INTRA:          -9.445
REMARK INTER:                  -8.702
REMARK INTRA:                  -0.742
REMARK UNBOUND:                -0.904
REMARK  Name = 
REMARK  7 active torsions:
REMARK  status: ('A' for Active; 'I' for Inactive)
REMARK    1  A    between atoms: C_1  and  O_2
REMARK    2  A    between atoms: O_2  and  C_3
REMARK    3  A    between atoms: C_6  and  C_7
REMARK    4  A    between atoms: C_11  and  C_12
REMARK    5  A    between atoms: C_12  and  N_13
REMARK    6  A    between atoms: N_13  and  C_14
REMARK    7  A    between atoms: C_17  and  C_18
REMARK                            x       y       z     vdW  Elec       q    Type
REMARK                         _______ _______ _______ _____ _____    ______ ____
ROOT
ATOM      1  C   UNL     1      46.443   4.942  13.968  0.00  0.00    +0.000 C 
ATOM      2  C   UNL     1      47.391   3.844  14.406  0.00  0.00    +0.000 C 
ATOM      3  C   UNL     1      46.301   4.265  15.334  0.00  0.00    +0.000 C 
ENDROOT
BRANCH   1   8
ATOM      4  C   UNL     1      44.807   3.935  10.791  0.00  0.00    +0.000 A 
ATOM      5  N   UNL     1      43.485   4.057  10.998  0.00  0.00    +0.000 NA
ATOM      6  C   UNL     1      43.116   4.462  12.226  0.00  0.00    +0.000 A 
ATOM      7  C   UNL     1      44.008   4.762  13.230  0.00  0.00    +0.000 A 
ATOM      8  C   UNL     1      45.350   4.613  12.941  0.00  0.00    +0.000 A 
ATOM      9  N   UNL     1      45.746   4.178  11.724  0.00  0.00    +0.000 NA
BRANCH   4  13
ATOM     10  C   UNL     1      46.133   2.998   6.882  0.00  0.00    +0.000 A 
ATOM     11  C   UNL     1      45.771   1.946   7.706  0.00  0.00    +0.000 A 
ATOM     12  C   UNL     1      45.342   2.234   9.005  0.00  0.00    +0.000 A 
ATOM     13  C   UNL     1      45.279   3.561   9.454  0.00  0.00    +0.000 A 
ATOM     14  C   UNL     1      45.676   4.531   8.532  0.00  0.00    +0.000 A 
ATOM     15  N   UNL     1      46.099   4.288   7.268  0.00  0.00    +0.000 NA
BRANCH  10  17
ATOM     16  C   UNL     1      47.911   2.254   5.570  0.00  0.00    +0.000 C 
ATOM     17  O   UNL     1      46.549   2.678   5.607  0.00  0.00    +0.000 OA
ENDBRANCH  10  17
ENDBRANCH   4  13
ENDBRANCH   1   8
BRANCH   1  18
ATOM     18  N   UNL     1      46.793   6.375  14.049  0.00  0.00    +0.000 N 
ATOM     19  H   UNL     1      45.979   6.987  14.073  0.00  0.00    +0.000 HD
BRANCH  18  20
ATOM     20  C   UNL     1      47.894   6.985  13.417  0.00  0.00    +0.000 A 
ATOM     21  C   UNL     1      47.985   7.203  12.042  0.00  0.00    +0.000 A 
ATOM     22  C   UNL     1      49.155   7.730  11.473  0.00  0.00    +0.000 A 
ATOM     23  C   UNL     1      50.265   8.026  12.273  0.00  0.00    +0.000 A 
ATOM     24  C   UNL     1      50.200   7.775  13.644  0.00  0.00    +0.000 A 
ATOM     25  C   UNL     1      49.028   7.254  14.202  0.00  0.00    +0.000 A 
BRANCH  23  26
ATOM     26  C   UNL     1      51.500   8.546  11.626  0.00  0.00    +0.000 C 
ATOM     27  N   UNL     1      52.311   7.643  10.994  0.00  0.00    +0.000 N 
ATOM     28  O   UNL     1      51.799   9.731  11.676  0.00  0.00    +0.000 OA
ATOM     29  H   UNL     1      52.222   6.645  11.109  0.00  0.00    +0.000 HD
ATOM     30  H   UNL     1      53.184   8.000  10.629  0.00  0.00    +0.000 HD
ENDBRANCH  23  26
ENDBRANCH  18  20
ENDBRANCH   1  18
TORSDOF 6
ENDMDL
MODEL 8
REMARK VINA RESULT:    -6.252      4.575      8.301
REMARK INTER + INTRA:          -9.349
REMARK INTER:                  -8.546
REMARK INTRA:                  -0.803
REMARK UNBOUND:                -0.904
REMARK  Name = 
REMARK  7 active torsions:
REMARK  status: ('A' for Active; 'I' for Inactive)
REMARK    1  A    between atoms: C_1  and  O_2
REMARK    2  A    between atoms: O_2  and  C_3
REMARK    3  A    between atoms: C_6  and  C_7
REMARK    4  A    between atoms: C_11  and  C_12
REMARK    5  A    between atoms: C_12  and  N_13
REMARK    6  A    between atoms: N_13  and  C_14
REMARK    7  A    between atoms: C_17  and  C_18
REMARK                            x       y       z     vdW  Elec       q    Type
REMARK                         _______ _______ _______ _____ _____    ______ ____
ROOT
ATOM      1  C   UNL     1      49.005   8.522  17.171  0.00  0.00    +0.000 C 
ATOM      2  C   UNL     1      47.874   9.474  17.510  0.00  0.00    +0.000 C 
ATOM      3  C   UNL     1      49.269  10.004  17.455  0.00  0.00    +0.000 C 
ENDROOT
BRANCH   1   8
ATOM      4  C   UNL     1      48.362   6.904  13.892  0.00  0.00    +0.000 A 
ATOM      5  N   UNL     1      49.437   7.167  13.130  0.00  0.00    +0.000 NA
ATOM      6  C   UNL     1      50.394   7.919  13.702  0.00  0.00    +0.000 A 
ATOM      7  C   UNL     1      50.325   8.390  14.992  0.00  0.00    +0.000 A 
ATOM      8  C   UNL     1      49.188   8.077  15.713  0.00  0.00    +0.000 A 
ATOM      9  N   UNL     1      48.198   7.350  15.151  0.00  0.00    +0.000 NA
BRANCH   4  13
ATOM     10  C   UNL     1      45.392   4.277  12.412  0.00  0.00    +0.000 A 
ATOM     11  C   UNL     1      45.652   5.426  11.685  0.00  0.00    +0.000 A 
ATOM     12  C   UNL     1      46.621   6.312  12.164  0.00  0.00    +0.000 A 
ATOM     13  C   UNL     1      47.312   6.035  13.352  0.00  0.00    +0.000 A 
ATOM     14  C   UNL     1      46.955   4.849  13.996  0.00  0.00    +0.000 A 
ATOM     15  N   UNL     1      46.021   3.969  13.562  0.00  0.00    +0.000 NA
BRANCH  10  17
ATOM     16  C   UNL     1      44.667   3.083  10.545  0.00  0.00    +0.000 C 
ATOM     17  O   UNL     1      44.431   3.424  11.910  0.00  0.00    +0.000 OA
ENDBRANCH  10  17
ENDBRANCH   4  13
ENDBRANCH   1   8
BRANCH   1  18
ATOM     18  N   UNL     1      49.603   7.611  18.168  0.00  0.00    +0.000 N 
ATOM     19  H   UNL     1      50.322   8.055  18.738  0.00  0.00    +0.000 HD
BRANCH  18  20
ATOM     20  C   UNL     1      49.854   6.239  17.975  0.00  0.00    +0.000 A 
ATOM     21  C   UNL     1      51.113   5.704  17.698  0.00  0.00    +0.000 A 
ATOM     22  C   UNL     1      51.270   4.338  17.423  0.00  0.00    +0.000 A 
ATOM     23  C   UNL     1      50.161   3.484  17.398  0.00  0.00    +0.000 A 
ATOM     24  C   UNL     1      48.892   4.013  17.633  0.00  0.00    +0.000 A 
ATOM     25  C   UNL     1      48.746   5.377  17.911  0.00  0.00    +0.000 A 
BRANCH  23  26
ATOM     26  C   UNL     1      50.365   2.049  17.063  0.00  0.00    +0.000 C 
ATOM     27  N   UNL     1      51.242   1.338  17.836  0.00  0.00    +0.000 N 
ATOM     28  O   UNL     1      49.793   1.524  16.118  0.00  0.00    +0.000 OA
ATOM     29  H   UNL     1      51.889   1.769  18.479  0.00  0.00    +0.000 HD
ATOM     30  H   UNL     1      51.429   0.386  17.547  0.00  0.00    +0.000 HD
ENDBRANCH  23  26
ENDBRANCH  18  20
ENDBRANCH   1  18
TORSDOF 6
ENDMDL
MODEL 9
REMARK VINA RESULT:    -5.804      3.550      8.611
REMARK INTER + INTRA:          -8.744
REMARK INTER:                  -7.892
REMARK INTRA:                  -0.852
REMARK UNBOUND:                -0.904
REMARK  Name = 
REMARK  7 active torsions:
REMARK  status: ('A' for Active; 'I' for Inactive)
REMARK    1  A    between atoms: C_1  and  O_2
REMARK    2  A    between atoms: O_2  and  C_3
REMARK    3  A    between atoms: C_6  and  C_7
REMARK    4  A    between atoms: C_11  and  C_12
REMARK    5  A    between atoms: C_12  and  N_13
REMARK    6  A    between atoms: N_13  and  C_14
REMARK    7  A    between atoms: C_17  and  C_18
REMARK                            x       y       z     vdW  Elec       q    Type
REMARK                         _______ _______ _______ _____ _____    ______ ____
ROOT
ATOM      1  C   UNL     1      49.689   8.165  12.477  0.00  0.00    +0.000 C 
ATOM      2  C   UNL     1      50.362   9.332  11.782  0.00  0.00    +0.000 C 
ATOM      3  C   UNL     1      50.406   7.987  11.136  0.00  0.00    +0.000 C 
ENDROOT
BRANCH   1   8
ATOM      4  C   UNL     1      46.281   6.844  11.827  0.00  0.00    +0.000 A 
ATOM      5  N   UNL     1      45.428   7.792  12.250  0.00  0.00    +0.000 NA
ATOM      6  C   UNL     1      45.986   8.891  12.786  0.00  0.00    +0.000 A 
ATOM      7  C   UNL     1      47.345   9.081  12.894  0.00  0.00    +0.000 A 
ATOM      8  C   UNL     1      48.158   8.061  12.436  0.00  0.00    +0.000 A 
ATOM      9  N   UNL     1      47.620   6.933  11.921  0.00  0.00    +0.000 NA
BRANCH   4  13
ATOM     10  C   UNL     1      44.742   3.315  10.069  0.00  0.00    +0.000 A 
ATOM     11  C   UNL     1      45.203   4.306   9.220  0.00  0.00    +0.000 A 
ATOM     12  C   UNL     1      45.704   5.484   9.780  0.00  0.00    +0.000 A 
ATOM     13  C   UNL     1      45.739   5.650  11.173  0.00  0.00    +0.000 A 
ATOM     14  C   UNL     1      45.239   4.582  11.921  0.00  0.00    +0.000 A 
ATOM     15  N   UNL     1      44.746   3.427  11.411  0.00  0.00    +0.000 NA
BRANCH  10  17
ATOM     16  C   UNL     1      45.237   1.506   8.683  0.00  0.00    +0.000 C 
ATOM     17  O   UNL     1      44.257   2.165   9.482  0.00  0.00    +0.000 OA
ENDBRANCH  10  17
ENDBRANCH   4  13
ENDBRANCH   1   8
BRANCH   1  18
ATOM     18  N   UNL     1      50.322   7.430  13.591  0.00  0.00    +0.000 N 
ATOM     19  H   UNL     1      50.724   6.537  13.307  0.00  0.00    +0.000 HD
BRANCH  18  20
ATOM     20  C   UNL     1      49.859   7.402  14.920  0.00  0.00    +0.000 A 
ATOM     21  C   UNL     1      49.131   6.348  15.474  0.00  0.00    +0.000 A 
ATOM     22  C   UNL     1      48.620   6.432  16.778  0.00  0.00    +0.000 A 
ATOM     23  C   UNL     1      48.812   7.588  17.544  0.00  0.00    +0.000 A 
ATOM     24  C   UNL     1      49.503   8.665  16.988  0.00  0.00    +0.000 A 
ATOM     25  C   UNL     1      50.012   8.569  15.688  0.00  0.00    +0.000 A 
BRANCH  23  26
ATOM     26  C   UNL     1      48.221   7.654  18.908  0.00  0.00    +0.000 C 
ATOM     27  N   UNL     1      46.989   8.238  19.036  0.00  0.00    +0.000 N 
ATOM     28  O   UNL     1      48.819   7.228  19.886  0.00  0.00    +0.000 OA
ATOM     29  H   UNL     1      46.559   8.787  18.308  0.00  0.00    +0.000 HD
ATOM     30  H   UNL     1      46.638   8.345  19.979  0.00  0.00    +0.000 HD
ENDBRANCH  23  26
ENDBRANCH  18  20
ENDBRANCH   1  18
TORSDOF 6
ENDMDL
