MODEL 1
REMARK VINA RESULT:    -7.341      0.000      0.000
REMARK INTER + INTRA:         -12.439
REMARK INTER:                 -10.989
REMARK INTRA:                  -1.450
REMARK UNBOUND:                -1.450
REMARK  Name = 
REMARK  10 active torsions:
REMARK  status: ('A' for Active; 'I' for Inactive)
REMARK    1  A    between atoms: C_1  and  O_2
REMARK    2  A    between atoms: O_2  and  C_3
REMARK    3  A    between atoms: C_8  and  C_9
REMARK    4  A    between atoms: N_11  and  C_12
REMARK    5  A    between atoms: C_12  and  C_13
REMARK    6  A    between atoms: C_16  and  CA_17
REMARK    7  A    between atoms: CA_17  and  C_18
REMARK    8  A    between atoms: CA_17  and  N_20
REMARK    9  A    between atoms: C_18  and  O_19
REMARK   10  A    between atoms: C_21  and  C_23
REMARK                            x       y       z     vdW  Elec       q    Type
REMARK                         _______ _______ _______ _____ _____    ______ ____
ROOT
ATOM      1  C   UNL     1      47.405   5.954  14.290  0.00  0.00    +0.000 A 
ATOM      2  C   UNL     1      46.892   4.750  14.762  0.00  0.00    +0.000 A 
ATOM      3  C   UNL     1      47.471   4.162  15.883  0.00  0.00    +0.000 A 
ATOM      4  C   UNL     1      48.521   4.804  16.549  0.00  0.00    +0.000 A 
ATOM      5  C   UNL     1      48.985   5.990  15.987  0.00  0.00    +0.000 A 
ATOM      6  N   UNL     1      48.450   6.580  14.891  0.00  0.00    +0.000 NA
ENDROOT
BRANCH   1   7
ATOM      7  C   UNL     1      46.781   6.626  13.089  0.00  0.00    +0.000 C 
BRANCH   7  10
ATOM      8  C   UNL     1      45.473   5.945  11.098  0.00  0.00    +0.000 C 
ATOM      9  O   UNL     1      44.828   6.991  11.093  0.00  0.00    +0.000 OA
ATOM     10  N   UNL     1      46.415   5.677  12.060  0.00  0.00    +0.000 N 
ATOM     11  H   UNL     1      47.002   4.857  11.947  0.00  0.00    +0.000 HD
BRANCH   8  17
ATOM     12  C   UNL     1      44.332   3.860  10.074  0.00  0.00    +0.000 A 
ATOM     13  C   UNL     1      44.283   2.938   9.017  0.00  0.00    +0.000 A 
ATOM     14  C   UNL     1      45.119   3.072   7.906  0.00  0.00    +0.000 A 
ATOM     15  C   UNL     1      46.014   4.132   7.832  0.00  0.00    +0.000 A 
ATOM     16  C   UNL     1      46.088   5.046   8.881  0.00  0.00    +0.000 A 
ATOM     17  C   UNL     1      45.265   4.919  10.018  0.00  0.00    +0.000 A 
BRANCH  12  19
ATOM     18  C   UNL     1      43.833   2.817  12.174  0.00  0.00    +0.000 C 
ATOM     19  O   UNL     1      43.514   3.780  11.174  0.00  0.00    +0.000 OA
ENDBRANCH  12  19
ENDBRANCH   8  17
ENDBRANCH   7  10
ENDBRANCH   1   7
BRANCH   4  20
ATOM     20  CA  UNL     1      49.137   4.275  17.825  0.00  0.00    +0.000 C 
BRANCH  20  21
ATOM     21  N   UNL     1      50.513   3.870  17.612  0.00  0.00    +0.000 N 
ATOM     22  C   UNL     1      51.490   4.027  18.561  0.00  0.00    +0.000 C 
ATOM     23  O   UNL     1      51.253   4.508  19.666  0.00  0.00    +0.000 OA
ATOM     24  H   UNL     1      50.753   3.589  16.667  0.00  0.00    +0.000 HD
BRANCH  22  25
ATOM     25  C   UNL     1      52.823   3.519  18.216  0.00  0.00    +0.000 A 
ATOM     26  C   UNL     1      53.923   4.362  18.310  0.00  0.00    +0.000 A 
ATOM     27  S   UNL     1      55.398   3.608  17.909  0.00  0.00    +0.000 S 
ATOM     28  C   UNL     1      54.614   2.144  17.546  0.00  0.00    +0.000 A 
ATOM     29  N   UNL     1      55.318   1.065  17.104  0.00  0.00    +0.000 NA
ATOM     30  C   UNL     1      54.596   0.029  16.843  0.00  0.00    +0.000 A 
ATOM     31  N   UNL     1      53.234  -0.034  16.994  0.00  0.00    +0.000 N 
ATOM     32  C   UNL     1      52.487   1.013  17.475  0.00  0.00    +0.000 A 
ATOM     33  O   UNL     1      51.280   0.898  17.660  0.00  0.00    +0.000 OA
ATOM     34  C   UNL     1      53.249   2.216  17.760  0.00  0.00    +0.000 A 
ATOM     35  H   UNL     1      52.730  -0.883  16.792  0.00  0.00    +0.000 HD
ENDBRANCH  22  25
ENDBRANCH  20  21
BRANCH  20  36
ATOM     36  C   UNL     1      48.326   3.117  18.460  0.00  0.00    +0.000 C 
BRANCH  36  37
ATOM     37  O   UNL     1      48.411   3.077  19.886  0.00  0.00    +0.000 OA
ATOM     38  H   UNL     1      47.527   3.304  20.227  0.00  0.00    +0.000 HD
ENDBRANCH  36  37
ENDBRANCH  20  36
ENDBRANCH   4  20
TORSDOF 9
ENDMDL
MODEL 2
REMARK VINA RESULT:    -7.136      4.032      5.577
REMARK INTER + INTRA:         -12.132
REMARK INTER:                 -11.479
REMARK INTRA:                  -0.653
REMARK UNBOUND:                -1.450
REMARK  Name = 
REMARK  10 active torsions:
REMARK  status: ('A' for Active; 'I' for Inactive)
REMARK    1  A    between atoms: C_1  and  O_2
REMARK    2  A    between atoms: O_2  and  C_3
REMARK    3  A    between atoms: C_8  and  C_9
REMARK    4  A    between atoms: N_11  and  C_12
REMARK    5  A    between atoms: C_12  and  C_13
REMARK    6  A    between atoms: C_16  and  CA_17
REMARK    7  A    between atoms: CA_17  and  C_18
REMARK    8  A    between atoms: CA_17  and  N_20
REMARK    9  A    between atoms: C_18  and  O_19
REMARK   10  A    between atoms: C_21  and  C_23
REMARK                            x       y       z     vdW  Elec       q    Type
REMARK                         _______ _______ _______ _____ _____    ______ ____
ROOT
ATOM      1  C   UNL     1      44.842   5.873  11.364  0.00  0.00    +0.000 A 
ATOM      2  C   UNL     1      45.026   7.249  11.455  0.00  0.00    +0.000 A 
ATOM      3  C   UNL     1      45.992   7.745  12.326  0.00  0.00    +0.000 A 
ATOM      4  C   UNL     1      46.795   6.864  13.058  0.00  0.00    +0.000 A 
ATOM      5  C   UNL     1      46.518   5.507  12.923  0.00  0.00    +0.000 A 
ATOM      6  N   UNL     1      45.577   4.995  12.094  0.00  0.00    +0.000 NA
ENDROOT
BRANCH   1   7
ATOM      7  C   UNL     1      43.816   5.306  10.410  0.00  0.00    +0.000 C 
BRANCH   7  10
ATOM      8  C   UNL     1      45.517   4.602   8.752  0.00  0.00    +0.000 C 
ATOM      9  O   UNL     1      46.068   5.701   8.767  0.00  0.00    +0.000 OA
ATOM     10  N   UNL     1      44.393   4.344   9.496  0.00  0.00    +0.000 N 
ATOM     11  H   UNL     1      44.052   3.390   9.542  0.00  0.00    +0.000 HD
BRANCH   8  17
ATOM     12  C   UNL     1      46.078   2.118   8.297  0.00  0.00    +0.000 A 
ATOM     13  C   UNL     1      46.692   1.179   7.453  0.00  0.00    +0.000 A 
ATOM     14  C   UNL     1      47.276   1.570   6.246  0.00  0.00    +0.000 A 
ATOM     15  C   UNL     1      47.251   2.905   5.860  0.00  0.00    +0.000 A 
ATOM     16  C   UNL     1      46.661   3.852   6.696  0.00  0.00    +0.000 A 
ATOM     17  C   UNL     1      46.081   3.481   7.925  0.00  0.00    +0.000 A 
BRANCH  12  19
ATOM     18  C   UNL     1      44.098   1.402   9.443  0.00  0.00    +0.000 C 
ATOM     19  O   UNL     1      45.473   1.775   9.480  0.00  0.00    +0.000 OA
ENDBRANCH  12  19
ENDBRANCH   8  17
ENDBRANCH   7  10
ENDBRANCH   1   7
BRANCH   4  20
ATOM     20  CA  UNL     1      47.927   7.325  13.952  0.00  0.00    +0.000 C 
BRANCH  20  21
ATOM     21  N   UNL     1      47.881   6.657  15.238  0.00  0.00    +0.000 N 
ATOM     22  C   UNL     1      49.010   6.285  15.923  0.00  0.00    +0.000 C 
ATOM     23  O   UNL     1      50.137   6.515  15.493  0.00  0.00    +0.000 OA
ATOM     24  H   UNL     1      46.966   6.348  15.547  0.00  0.00    +0.000 HD
BRANCH  22  25
ATOM     25  C   UNL     1      48.802   5.666  17.237  0.00  0.00    +0.000 A 
ATOM     26  C   UNL     1      49.055   4.311  17.403  0.00  0.00    +0.000 A 
ATOM     27  S   UNL     1      48.797   3.758  18.995  0.00  0.00    +0.000 S 
ATOM     28  C   UNL     1      48.290   5.298  19.506  0.00  0.00    +0.000 A 
ATOM     29  N   UNL     1      47.890   5.511  20.790  0.00  0.00    +0.000 NA
ATOM     30  C   UNL     1      47.507   6.718  21.035  0.00  0.00    +0.000 A 
ATOM     31  N   UNL     1      47.498   7.737  20.117  0.00  0.00    +0.000 N 
ATOM     32  C   UNL     1      47.929   7.580  18.823  0.00  0.00    +0.000 A 
ATOM     33  O   UNL     1      47.969   8.531  18.049  0.00  0.00    +0.000 OA
ATOM     34  C   UNL     1      48.347   6.231  18.487  0.00  0.00    +0.000 A 
ATOM     35  H   UNL     1      47.205   8.666  20.379  0.00  0.00    +0.000 HD
ENDBRANCH  22  25
ENDBRANCH  20  21
BRANCH  20  36
ATOM     36  C   UNL     1      47.966   8.862  14.143  0.00  0.00    +0.000 C 
BRANCH  36  37
ATOM     37  O   UNL     1      47.440   9.293  15.399  0.00  0.00    +0.000 OA
ATOM     38  H   UNL     1      47.822   8.711  16.080  0.00  0.00    +0.000 HD
ENDBRANCH  36  37
ENDBRANCH  20  36
ENDBRANCH   4  20
TORSDOF 9
ENDMDL
MODEL 3
REMARK VINA RESULT:    -6.852      1.820      2.169
REMARK INTER + INTRA:         -11.707
REMARK INTER:                 -10.504
REMARK INTRA:                  -1.203
REMARK UNBOUND:                -1.450
REMARK  Name = 
REMARK  10 active torsions:
REMARK  status: ('A' for Active; 'I' for Inactive)
REMARK    1  A    between atoms: C_1  and  O_2
REMARK    2  A    between atoms: O_2  and  C_3
REMARK    3  A    between atoms: C_8  and  C_9
REMARK    4  A    between atoms: N_11  and  C_12
REMARK    5  A    between atoms: C_12  and  C_13
REMARK    6  A    between atoms: C_16  and  CA_17
REMARK    7  A    between atoms: CA_17  and  C_18
REMARK    8  A    between atoms: CA_17  and  N_20
REMARK    9  A    between atoms: C_18  and  O_19
REMARK   10  A    between atoms: C_21  and  C_23
REMARK                            x       y       z     vdW  Elec       q    Type
REMARK                         _______ _______ _______ _____ _____    ______ ____
ROOT
ATOM      1  C   UNL     1      47.979   7.598  13.713  0.00  0.00    +0.000 A 
ATOM      2  C   UNL     1      48.162   6.308  14.203  0.00  0.00    +0.000 A 
ATOM      3  C   UNL     1      48.564   6.139  15.524  0.00  0.00    +0.000 A 
ATOM      4  C   UNL     1      48.730   7.251  16.356  0.00  0.00    +0.000 A 
ATOM      5  C   UNL     1      48.552   8.501  15.770  0.00  0.00    +0.000 A 
ATOM      6  N   UNL     1      48.173   8.699  14.484  0.00  0.00    +0.000 NA
ENDROOT
BRANCH   1   7
ATOM      7  C   UNL     1      47.521   7.811  12.289  0.00  0.00    +0.000 C 
BRANCH   7  10
ATOM      8  C   UNL     1      45.681   6.504  11.268  0.00  0.00    +0.000 C 
ATOM      9  O   UNL     1      44.873   7.419  11.414  0.00  0.00    +0.000 OA
ATOM     10  N   UNL     1      46.979   6.605  11.703  0.00  0.00    +0.000 N 
ATOM     11  H   UNL     1      47.632   5.871  11.449  0.00  0.00    +0.000 HD
BRANCH   8  17
ATOM     12  C   UNL     1      44.605   4.152  11.191  0.00  0.00    +0.000 A 
ATOM     13  C   UNL     1      44.334   2.999  10.437  0.00  0.00    +0.000 A 
ATOM     14  C   UNL     1      44.686   2.922   9.087  0.00  0.00    +0.000 A 
ATOM     15  C   UNL     1      45.311   3.998   8.469  0.00  0.00    +0.000 A 
ATOM     16  C   UNL     1      45.604   5.143   9.208  0.00  0.00    +0.000 A 
ATOM     17  C   UNL     1      45.272   5.234  10.575  0.00  0.00    +0.000 A 
BRANCH  12  19
ATOM     18  C   UNL     1      42.953   4.767  12.815  0.00  0.00    +0.000 C 
ATOM     19  O   UNL     1      44.256   4.279  12.513  0.00  0.00    +0.000 OA
ENDBRANCH  12  19
ENDBRANCH   8  17
ENDBRANCH   7  10
ENDBRANCH   1   7
BRANCH   4  20
ATOM     20  CA  UNL     1      49.072   7.141  17.826  0.00  0.00    +0.000 C 
BRANCH  20  21
ATOM     21  N   UNL     1      49.988   6.044  18.068  0.00  0.00    +0.000 N 
ATOM     22  C   UNL     1      51.320   6.103  17.746  0.00  0.00    +0.000 C 
ATOM     23  O   UNL     1      51.826   7.104  17.247  0.00  0.00    +0.000 OA
ATOM     24  H   UNL     1      49.568   5.169  18.360  0.00  0.00    +0.000 HD
BRANCH  22  25
ATOM     25  C   UNL     1      52.130   4.931  18.101  0.00  0.00    +0.000 A 
ATOM     26  C   UNL     1      53.354   5.111  18.731  0.00  0.00    +0.000 A 
ATOM     27  S   UNL     1      54.151   3.652  19.107  0.00  0.00    +0.000 S 
ATOM     28  C   UNL     1      52.913   2.730  18.395  0.00  0.00    +0.000 A 
ATOM     29  N   UNL     1      52.990   1.371  18.352  0.00  0.00    +0.000 NA
ATOM     30  C   UNL     1      51.995   0.799  17.762  0.00  0.00    +0.000 A 
ATOM     31  N   UNL     1      50.922   1.460  17.221  0.00  0.00    +0.000 N 
ATOM     32  C   UNL     1      50.781   2.825  17.276  0.00  0.00    +0.000 A 
ATOM     33  O   UNL     1      49.775   3.375  16.840  0.00  0.00    +0.000 OA
ATOM     34  C   UNL     1      51.887   3.520  17.907  0.00  0.00    +0.000 A 
ATOM     35  H   UNL     1      50.166   0.951  16.791  0.00  0.00    +0.000 HD
ENDBRANCH  22  25
ENDBRANCH  20  21
BRANCH  20  36
ATOM     36  C   UNL     1      47.824   7.013  18.735  0.00  0.00    +0.000 C 
BRANCH  36  37
ATOM     37  O   UNL     1      47.037   5.853  18.461  0.00  0.00    +0.000 OA
ATOM     38  H   UNL     1      47.417   5.434  17.668  0.00  0.00    +0.000 HD
ENDBRANCH  36  37
ENDBRANCH  20  36
ENDBRANCH   4  20
TORSDOF 9
ENDMDL
MODEL 4
REMARK VINA RESULT:    -6.844      3.187      9.784
REMARK INTER + INTRA:         -11.695
REMARK INTER:                 -10.429
REMARK INTRA:                  -1.266
REMARK UNBOUND:                -1.450
REMARK  Name = 
REMARK  10 active torsions:
REMARK  status: ('A' for Active; 'I' for Inactive)
REMARK    1  A    between atoms: C_1  and  O_2
REMARK    2  A    between atoms: O_2  and  C_3
REMARK    3  A    between atoms: C_8  and  C_9
REMARK    4  A    between atoms: N_11  and  C_12
REMARK    5  A    between atoms: C_12  and  C_13
REMARK    6  A    between atoms: C_16  and  CA_17
REMARK    7  A    between atoms: CA_17  and  C_18
REMARK    8  A    between atoms: CA_17  and  N_20
REMARK    9  A    between atoms: C_18  and  O_19
REMARK   10  A    between atoms: C_21  and  C_23
REMARK                            x       y       z     vdW  Elec       q    Type
REMARK                         _______ _______ _______ _____ _____    ______ ____
ROOT
ATOM      1  C   UNL     1      49.752   7.385  15.987  0.00  0.00    +0.000 A 
ATOM      2  C   UNL     1      49.333   8.692  15.757  0.00  0.00    +0.000 A 
ATOM      3  C   UNL     1      48.350   8.928  14.801  0.00  0.00    +0.000 A 
ATOM      4  C   UNL     1      47.761   7.857  14.121  0.00  0.00    +0.000 A 
ATOM      5  C   UNL     1      48.265   6.590  14.396  0.00  0.00    +0.000 A 
ATOM      6  N   UNL     1      49.228   6.329  15.313  0.00  0.00    +0.000 NA
ENDROOT
BRANCH   1   7
ATOM      7  C   UNL     1      50.801   7.097  17.036  0.00  0.00    +0.000 C 
BRANCH   7  10
ATOM      8  C   UNL     1      51.411   4.963  18.137  0.00  0.00    +0.000 C 
ATOM      9  O   UNL     1      51.262   5.436  19.262  0.00  0.00    +0.000 OA
ATOM     10  N   UNL     1      51.242   5.720  17.004  0.00  0.00    +0.000 N 
ATOM     11  H   UNL     1      51.257   5.251  16.104  0.00  0.00    +0.000 HD
BRANCH   8  17
ATOM     12  C   UNL     1      50.943   2.547  17.340  0.00  0.00    +0.000 A 
ATOM     13  C   UNL     1      51.373   1.212  17.297  0.00  0.00    +0.000 A 
ATOM     14  C   UNL     1      52.607   0.834  17.834  0.00  0.00    +0.000 A 
ATOM     15  C   UNL     1      53.432   1.788  18.418  0.00  0.00    +0.000 A 
ATOM     16  C   UNL     1      53.012   3.115  18.485  0.00  0.00    +0.000 A 
ATOM     17  C   UNL     1      51.764   3.512  17.964  0.00  0.00    +0.000 A 
BRANCH  12  19
ATOM     18  C   UNL     1      48.589   2.893  17.626  0.00  0.00    +0.000 C 
ATOM     19  O   UNL     1      49.751   2.965  16.805  0.00  0.00    +0.000 OA
ENDBRANCH  12  19
ENDBRANCH   8  17
ENDBRANCH   7  10
ENDBRANCH   1   7
BRANCH   4  20
ATOM     20  CA  UNL     1      46.623   8.027  13.137  0.00  0.00    +0.000 C 
BRANCH  20  21
ATOM     21  N   UNL     1      46.099   6.742  12.719  0.00  0.00    +0.000 N 
ATOM     22  C   UNL     1      44.947   6.612  11.985  0.00  0.00    +0.000 C 
ATOM     23  O   UNL     1      44.296   7.586  11.618  0.00  0.00    +0.000 OA
ATOM     24  H   UNL     1      46.551   5.926  13.116  0.00  0.00    +0.000 HD
BRANCH  22  25
ATOM     25  C   UNL     1      44.574   5.249  11.592  0.00  0.00    +0.000 A 
ATOM     26  C   UNL     1      43.811   4.472  12.453  0.00  0.00    +0.000 A 
ATOM     27  S   UNL     1      43.435   2.930  11.833  0.00  0.00    +0.000 S 
ATOM     28  C   UNL     1      44.322   3.225  10.413  0.00  0.00    +0.000 A 
ATOM     29  N   UNL     1      44.432   2.272   9.447  0.00  0.00    +0.000 NA
ATOM     30  C   UNL     1      45.153   2.619   8.435  0.00  0.00    +0.000 A 
ATOM     31  N   UNL     1      45.767   3.838   8.294  0.00  0.00    +0.000 N 
ATOM     32  C   UNL     1      45.652   4.844   9.222  0.00  0.00    +0.000 A 
ATOM     33  O   UNL     1      46.159   5.944   9.029  0.00  0.00    +0.000 OA
ATOM     34  C   UNL     1      44.870   4.495  10.394  0.00  0.00    +0.000 A 
ATOM     35  H   UNL     1      46.301   4.055   7.467  0.00  0.00    +0.000 HD
ENDBRANCH  22  25
ENDBRANCH  20  21
BRANCH  20  36
ATOM     36  C   UNL     1      47.006   8.882  11.903  0.00  0.00    +0.000 C 
BRANCH  36  37
ATOM     37  O   UNL     1      46.180  10.034  11.730  0.00  0.00    +0.000 OA
ATOM     38  H   UNL     1      46.567  10.744  12.274  0.00  0.00    +0.000 HD
ENDBRANCH  36  37
ENDBRANCH  20  36
ENDBRANCH   4  20
TORSDOF 9
ENDMDL
MODEL 5
REMARK VINA RESULT:    -6.829      3.049      9.821
REMARK INTER + INTRA:         -11.672
REMARK INTER:                 -10.202
REMARK INTRA:                  -1.471
REMARK UNBOUND:                -1.450
REMARK  Name = 
REMARK  10 active torsions:
REMARK  status: ('A' for Active; 'I' for Inactive)
REMARK    1  A    between atoms: C_1  and  O_2
REMARK    2  A    between atoms: O_2  and  C_3
REMARK    3  A    between atoms: C_8  and  C_9
REMARK    4  A    between atoms: N_11  and  C_12
REMARK    5  A    between atoms: C_12  and  C_13
REMARK    6  A    between atoms: C_16  and  CA_17
REMARK    7  A    between atoms: CA_17  and  C_18
REMARK    8  A    between atoms: CA_17  and  N_20
REMARK    9  A    between atoms: C_18  and  O_19
REMARK   10  A    between atoms: C_21  and  C_23
REMARK                            x       y       z     vdW  Elec       q    Type
REMARK                         _______ _______ _______ _____ _____    ______ ____
ROOT
ATOM      1  C   UNL     1      49.004   4.812  17.264  0.00  0.00    +0.000 A 
ATOM      2  C   UNL     1      49.685   5.990  16.969  0.00  0.00    +0.000 A 
ATOM      3  C   UNL     1      49.368   6.679  15.802  0.00  0.00    +0.000 A 
ATOM      4  C   UNL     1      48.345   6.215  14.969  0.00  0.00    +0.000 A 
ATOM      5  C   UNL     1      47.741   5.015  15.330  0.00  0.00    +0.000 A 
ATOM      6  N   UNL     1      48.035   4.315  16.452  0.00  0.00    +0.000 NA
ENDROOT
BRANCH   1   7
ATOM      7  C   UNL     1      49.310   4.056  18.535  0.00  0.00    +0.000 C 
BRANCH   7  10
ATOM      8  C   UNL     1      50.981   2.416  17.723  0.00  0.00    +0.000 C 
ATOM      9  O   UNL     1      50.157   1.842  17.015  0.00  0.00    +0.000 OA
ATOM     10  N   UNL     1      50.637   3.479  18.522  0.00  0.00    +0.000 N 
ATOM     11  H   UNL     1      51.377   3.991  18.989  0.00  0.00    +0.000 HD
BRANCH   8  17
ATOM     12  C   UNL     1      53.531   2.856  17.684  0.00  0.00    +0.000 A 
ATOM     13  C   UNL     1      54.824   2.313  17.624  0.00  0.00    +0.000 A 
ATOM     14  C   UNL     1      55.025   0.931  17.628  0.00  0.00    +0.000 A 
ATOM     15  C   UNL     1      53.937   0.069  17.696  0.00  0.00    +0.000 A 
ATOM     16  C   UNL     1      52.646   0.592  17.738  0.00  0.00    +0.000 A 
ATOM     17  C   UNL     1      52.421   1.983  17.718  0.00  0.00    +0.000 A 
BRANCH  12  19
ATOM     18  C   UNL     1      54.385   5.086  17.475  0.00  0.00    +0.000 C 
ATOM     19  O   UNL     1      53.288   4.207  17.705  0.00  0.00    +0.000 OA
ENDBRANCH  12  19
ENDBRANCH   8  17
ENDBRANCH   7  10
ENDBRANCH   1   7
BRANCH   4  20
ATOM     20  CA  UNL     1      47.882   6.960  13.735  0.00  0.00    +0.000 C 
BRANCH  20  21
ATOM     21  N   UNL     1      47.205   6.070  12.812  0.00  0.00    +0.000 N 
ATOM     22  C   UNL     1      46.273   6.507  11.906  0.00  0.00    +0.000 C 
ATOM     23  O   UNL     1      45.966   7.692  11.809  0.00  0.00    +0.000 OA
ATOM     24  H   UNL     1      47.352   5.078  12.961  0.00  0.00    +0.000 HD
BRANCH  22  25
ATOM     25  C   UNL     1      45.715   5.494  11.003  0.00  0.00    +0.000 A 
ATOM     26  C   UNL     1      45.873   5.639   9.631  0.00  0.00    +0.000 A 
ATOM     27  S   UNL     1      45.200   4.362   8.726  0.00  0.00    +0.000 S 
ATOM     28  C   UNL     1      44.628   3.596  10.131  0.00  0.00    +0.000 A 
ATOM     29  N   UNL     1      43.920   2.435  10.056  0.00  0.00    +0.000 NA
ATOM     30  C   UNL     1      43.526   1.976  11.195  0.00  0.00    +0.000 A 
ATOM     31  N   UNL     1      43.785   2.564  12.407  0.00  0.00    +0.000 N 
ATOM     32  C   UNL     1      44.528   3.712  12.536  0.00  0.00    +0.000 A 
ATOM     33  O   UNL     1      44.795   4.172  13.642  0.00  0.00    +0.000 OA
ATOM     34  C   UNL     1      44.974   4.285  11.280  0.00  0.00    +0.000 A 
ATOM     35  H   UNL     1      43.465   2.142  13.265  0.00  0.00    +0.000 HD
ENDBRANCH  22  25
ENDBRANCH  20  21
BRANCH  20  36
ATOM     36  C   UNL     1      49.025   7.717  13.015  0.00  0.00    +0.000 C 
BRANCH  36  37
ATOM     37  O   UNL     1      49.891   6.863  12.266  0.00  0.00    +0.000 OA
ATOM     38  H   UNL     1      49.331   6.375  11.635  0.00  0.00    +0.000 HD
ENDBRANCH  36  37
ENDBRANCH  20  36
ENDBRANCH   4  20
TORSDOF 9
ENDMDL
MODEL 6
REMARK VINA RESULT:    -6.561      3.350      9.598
REMARK INTER + INTRA:         -11.271
REMARK INTER:                  -9.861
REMARK INTRA:                  -1.410
REMARK UNBOUND:                -1.450
REMARK  Name = 
REMARK  10 active torsions:
REMARK  status: ('A' for Active; 'I' for Inactive)
REMARK    1  A    between atoms: C_1  and  O_2
REMARK    2  A    between atoms: O_2  and  C_3
REMARK    3  A    between atoms: C_8  and  C_9
REMARK    4  A    between atoms: N_11  and  C_12
REMARK    5  A    between atoms: C_12  and  C_13
REMARK    6  A    between atoms: C_16  and  CA_17
REMARK    7  A    between atoms: CA_17  and  C_18
REMARK    8  A    between atoms: CA_17  and  N_20
REMARK    9  A    between atoms: C_18  and  O_19
REMARK   10  A    between atoms: C_21  and  C_23
REMARK                            x       y       z     vdW  Elec       q    Type
REMARK                         _______ _______ _______ _____ _____    ______ ____
ROOT
ATOM      1  C   UNL     1      49.164   7.243  16.477  0.00  0.00    +0.000 A 
ATOM      2  C   UNL     1      48.887   8.589  16.254  0.00  0.00    +0.000 A 
ATOM      3  C   UNL     1      48.367   8.976  15.023  0.00  0.00    +0.000 A 
ATOM      4  C   UNL     1      48.082   8.015  14.047  0.00  0.00    +0.000 A 
ATOM      5  C   UNL     1      48.419   6.699  14.350  0.00  0.00    +0.000 A 
ATOM      6  N   UNL     1      48.937   6.293  15.534  0.00  0.00    +0.000 NA
ENDROOT
BRANCH   1   7
ATOM      7  C   UNL     1      49.708   6.792  17.812  0.00  0.00    +0.000 C 
BRANCH   7  10
ATOM      8  C   UNL     1      51.500   5.094  17.603  0.00  0.00    +0.000 C 
ATOM      9  O   UNL     1      52.362   5.946  17.398  0.00  0.00    +0.000 OA
ATOM     10  N   UNL     1      50.179   5.424  17.777  0.00  0.00    +0.000 N 
ATOM     11  H   UNL     1      49.533   4.697  18.064  0.00  0.00    +0.000 HD
BRANCH   8  17
ATOM     12  C   UNL     1      51.030   2.561  17.362  0.00  0.00    +0.000 A 
ATOM     13  C   UNL     1      51.491   1.249  17.554  0.00  0.00    +0.000 A 
ATOM     14  C   UNL     1      52.777   1.001  18.040  0.00  0.00    +0.000 A 
ATOM     15  C   UNL     1      53.624   2.061  18.338  0.00  0.00    +0.000 A 
ATOM     16  C   UNL     1      53.176   3.370  18.171  0.00  0.00    +0.000 A 
ATOM     17  C   UNL     1      51.876   3.641  17.698  0.00  0.00    +0.000 A 
BRANCH  12  19
ATOM     18  C   UNL     1      48.978   1.765  16.412  0.00  0.00    +0.000 C 
ATOM     19  O   UNL     1      49.783   2.850  16.866  0.00  0.00    +0.000 OA
ENDBRANCH  12  19
ENDBRANCH   8  17
ENDBRANCH   7  10
ENDBRANCH   1   7
BRANCH   4  20
ATOM     20  CA  UNL     1      47.429   8.348  12.723  0.00  0.00    +0.000 C 
BRANCH  20  21
ATOM     21  N   UNL     1      46.912   7.155  12.082  0.00  0.00    +0.000 N 
ATOM     22  C   UNL     1      45.684   7.111  11.472  0.00  0.00    +0.000 C 
ATOM     23  O   UNL     1      44.950   8.094  11.416  0.00  0.00    +0.000 OA
ATOM     24  H   UNL     1      47.445   6.304  12.226  0.00  0.00    +0.000 HD
BRANCH  22  25
ATOM     25  C   UNL     1      45.324   5.847  10.820  0.00  0.00    +0.000 A 
ATOM     26  C   UNL     1      45.657   5.645   9.487  0.00  0.00    +0.000 A 
ATOM     27  S   UNL     1      45.199   4.115   8.892  0.00  0.00    +0.000 S 
ATOM     28  C   UNL     1      44.495   3.687  10.379  0.00  0.00    +0.000 A 
ATOM     29  N   UNL     1      43.883   2.481  10.542  0.00  0.00    +0.000 NA
ATOM     30  C   UNL     1      43.370   2.297  11.710  0.00  0.00    +0.000 A 
ATOM     31  N   UNL     1      43.422   3.204  12.739  0.00  0.00    +0.000 N 
ATOM     32  C   UNL     1      44.061   4.414  12.635  0.00  0.00    +0.000 A 
ATOM     33  O   UNL     1      44.145   5.171  13.597  0.00  0.00    +0.000 OA
ATOM     34  C   UNL     1      44.635   4.683  11.329  0.00  0.00    +0.000 A 
ATOM     35  H   UNL     1      43.018   2.989  13.637  0.00  0.00    +0.000 HD
ENDBRANCH  22  25
ENDBRANCH  20  21
BRANCH  20  36
ATOM     36  C   UNL     1      48.365   9.117  11.758  0.00  0.00    +0.000 C 
BRANCH  36  37
ATOM     37  O   UNL     1      49.544   8.391  11.408  0.00  0.00    +0.000 OA
ATOM     38  H   UNL     1      50.132   8.415  12.184  0.00  0.00    +0.000 HD
ENDBRANCH  36  37
ENDBRANCH  20  36
ENDBRANCH   4  20
TORSDOF 9
ENDMDL
MODEL 7
REMARK VINA RESULT:    -6.483      3.941      5.287
REMARK INTER + INTRA:         -11.154
REMARK INTER:                  -9.734
REMARK INTRA:                  -1.420
REMARK UNBOUND:                -1.450
REMARK  Name = 
REMARK  10 active torsions:
REMARK  status: ('A' for Active; 'I' for Inactive)
REMARK    1  A    between atoms: C_1  and  O_2
REMARK    2  A    between atoms: O_2  and  C_3
REMARK    3  A    between atoms: C_8  and  C_9
REMARK    4  A    between atoms: N_11  and  C_12
REMARK    5  A    between atoms: C_12  and  C_13
REMARK    6  A    between atoms: C_16  and  CA_17
REMARK    7  A    between atoms: CA_17  and  C_18
REMARK    8  A    between atoms: CA_17  and  N_20
REMARK    9  A    between atoms: C_18  and  O_19
REMARK   10  A    between atoms: C_21  and  C_23
REMARK                            x       y       z     vdW  Elec       q    Type
REMARK                         _______ _______ _______ _____ _____    ______ ____
ROOT
ATOM      1  C   UNL     1      45.995   4.289  13.153  0.00  0.00    +0.000 A 
ATOM      2  C   UNL     1      46.395   5.526  12.656  0.00  0.00    +0.000 A 
ATOM      3  C   UNL     1      47.221   6.332  13.435  0.00  0.00    +0.000 A 
ATOM      4  C   UNL     1      47.678   5.876  14.676  0.00  0.00    +0.000 A 
ATOM      5  C   UNL     1      47.202   4.639  15.101  0.00  0.00    +0.000 A 
ATOM      6  N   UNL     1      46.389   3.838  14.372  0.00  0.00    +0.000 NA
ENDROOT
BRANCH   1   7
ATOM      7  C   UNL     1      45.118   3.385  12.319  0.00  0.00    +0.000 C 
BRANCH   7  10
ATOM      8  C   UNL     1      44.976   2.648   9.958  0.00  0.00    +0.000 C 
ATOM      9  O   UNL     1      43.771   2.422  10.041  0.00  0.00    +0.000 OA
ATOM     10  N   UNL     1      45.710   3.083  11.034  0.00  0.00    +0.000 N 
ATOM     11  H   UNL     1      46.670   3.369  10.880  0.00  0.00    +0.000 HD
BRANCH   8  17
ATOM     12  C   UNL     1      45.922   3.508   7.708  0.00  0.00    +0.000 A 
ATOM     13  C   UNL     1      46.554   3.196   6.495  0.00  0.00    +0.000 A 
ATOM     14  C   UNL     1      46.981   1.894   6.219  0.00  0.00    +0.000 A 
ATOM     15  C   UNL     1      46.787   0.885   7.154  0.00  0.00    +0.000 A 
ATOM     16  C   UNL     1      46.145   1.175   8.357  0.00  0.00    +0.000 A 
ATOM     17  C   UNL     1      45.692   2.477   8.647  0.00  0.00    +0.000 A 
BRANCH  12  19
ATOM     18  C   UNL     1      46.327   5.544   8.905  0.00  0.00    +0.000 C 
ATOM     19  O   UNL     1      45.507   4.776   8.030  0.00  0.00    +0.000 OA
ENDBRANCH  12  19
ENDBRANCH   8  17
ENDBRANCH   7  10
ENDBRANCH   1   7
BRANCH   4  20
ATOM     20  CA  UNL     1      48.651   6.653  15.536  0.00  0.00    +0.000 C 
BRANCH  20  21
ATOM     21  N   UNL     1      49.810   7.067  14.768  0.00  0.00    +0.000 N 
ATOM     22  C   UNL     1      50.071   8.379  14.465  0.00  0.00    +0.000 C 
ATOM     23  O   UNL     1      49.343   9.292  14.845  0.00  0.00    +0.000 OA
ATOM     24  H   UNL     1      50.350   6.322  14.341  0.00  0.00    +0.000 HD
BRANCH  22  25
ATOM     25  C   UNL     1      51.311   8.643  13.727  0.00  0.00    +0.000 A 
ATOM     26  C   UNL     1      51.265   9.386  12.554  0.00  0.00    +0.000 A 
ATOM     27  S   UNL     1      52.792   9.632  11.840  0.00  0.00    +0.000 S 
ATOM     28  C   UNL     1      53.564   8.713  13.043  0.00  0.00    +0.000 A 
ATOM     29  N   UNL     1      54.909   8.502  13.007  0.00  0.00    +0.000 NA
ATOM     30  C   UNL     1      55.359   7.767  13.967  0.00  0.00    +0.000 A 
ATOM     31  N   UNL     1      54.590   7.232  14.969  0.00  0.00    +0.000 N 
ATOM     32  C   UNL     1      53.238   7.450  15.070  0.00  0.00    +0.000 A 
ATOM     33  O   UNL     1      52.595   7.011  16.017  0.00  0.00    +0.000 OA
ATOM     34  C   UNL     1      52.676   8.251  13.998  0.00  0.00    +0.000 A 
ATOM     35  H   UNL     1      55.008   6.682  15.703  0.00  0.00    +0.000 HD
ENDBRANCH  22  25
ENDBRANCH  20  21
BRANCH  20  36
ATOM     36  C   UNL     1      49.093   5.884  16.806  0.00  0.00    +0.000 C 
BRANCH  36  37
ATOM     37  O   UNL     1      50.342   5.207  16.657  0.00  0.00    +0.000 OA
ATOM     38  H   UNL     1      51.032   5.893  16.620  0.00  0.00    +0.000 HD
ENDBRANCH  36  37
ENDBRANCH  20  36
ENDBRANCH   4  20
TORSDOF 9
ENDMDL
MODEL 8
REMARK VINA RESULT:    -6.477      4.222      6.402
REMARK INTER + INTRA:         -11.146
REMARK INTER:                 -10.425
REMARK INTRA:                  -0.721
REMARK UNBOUND:                -1.450
REMARK  Name = 
REMARK  10 active torsions:
REMARK  status: ('A' for Active; 'I' for Inactive)
REMARK    1  A    between atoms: C_1  and  O_2
REMARK    2  A    between atoms: O_2  and  C_3
REMARK    3  A    between atoms: C_8  and  C_9
REMARK    4  A    between atoms: N_11  and  C_12
REMARK    5  A    between atoms: C_12  and  C_13
REMARK    6  A    between atoms: C_16  and  CA_17
REMARK    7  A    between atoms: CA_17  and  C_18
REMARK    8  A    between atoms: CA_17  and  N_20
REMARK    9  A    between atoms: C_18  and  O_19
REMARK   10  A    between atoms: C_21  and  C_23
REMARK                            x       y       z     vdW  Elec       q    Type
REMARK                         _______ _______ _______ _____ _____    ______ ____
ROOT
ATOM      1  C   UNL     1      44.454   4.681  11.853  0.00  0.00    +0.000 A 
ATOM      2  C   UNL     1      43.645   5.782  11.582  0.00  0.00    +0.000 A 
ATOM      3  C   UNL     1      44.121   7.057  11.874  0.00  0.00    +0.000 A 
ATOM      4  C   UNL     1      45.412   7.224  12.385  0.00  0.00    +0.000 A 
ATOM      5  C   UNL     1      46.135   6.065  12.649  0.00  0.00    +0.000 A 
ATOM      6  N   UNL     1      45.695   4.810  12.388  0.00  0.00    +0.000 NA
ENDROOT
BRANCH   1   7
ATOM      7  C   UNL     1      43.972   3.287  11.525  0.00  0.00    +0.000 C 
BRANCH   7  10
ATOM      8  C   UNL     1      44.769   3.049   9.192  0.00  0.00    +0.000 C 
ATOM      9  O   UNL     1      44.012   3.927   8.783  0.00  0.00    +0.000 OA
ATOM     10  N   UNL     1      44.782   2.655  10.507  0.00  0.00    +0.000 N 
ATOM     11  H   UNL     1      45.508   2.016  10.812  0.00  0.00    +0.000 HD
BRANCH   8  17
ATOM     12  C   UNL     1      46.502   3.056   7.271  0.00  0.00    +0.000 A 
ATOM     13  C   UNL     1      47.330   2.304   6.421  0.00  0.00    +0.000 A 
ATOM     14  C   UNL     1      47.429   0.917   6.555  0.00  0.00    +0.000 A 
ATOM     15  C   UNL     1      46.706   0.260   7.543  0.00  0.00    +0.000 A 
ATOM     16  C   UNL     1      45.866   0.989   8.383  0.00  0.00    +0.000 A 
ATOM     17  C   UNL     1      45.740   2.387   8.253  0.00  0.00    +0.000 A 
BRANCH  12  19
ATOM     18  C   UNL     1      47.080   5.205   8.161  0.00  0.00    +0.000 C 
ATOM     19  O   UNL     1      46.393   4.422   7.190  0.00  0.00    +0.000 OA
ENDBRANCH  12  19
ENDBRANCH   8  17
ENDBRANCH   7  10
ENDBRANCH   1   7
BRANCH   4  20
ATOM     20  CA  UNL     1      46.032   8.582  12.637  0.00  0.00    +0.000 C 
BRANCH  20  21
ATOM     21  N   UNL     1      46.604   8.655  13.967  0.00  0.00    +0.000 N 
ATOM     22  C   UNL     1      47.957   8.682  14.194  0.00  0.00    +0.000 C 
ATOM     23  O   UNL     1      48.771   8.665  13.275  0.00  0.00    +0.000 OA
ATOM     24  H   UNL     1      45.955   8.543  14.739  0.00  0.00    +0.000 HD
BRANCH  22  25
ATOM     25  C   UNL     1      48.382   8.811  15.593  0.00  0.00    +0.000 A 
ATOM     26  C   UNL     1      48.478  10.072  16.165  0.00  0.00    +0.000 A 
ATOM     27  S   UNL     1      48.949  10.046  17.803  0.00  0.00    +0.000 S 
ATOM     28  C   UNL     1      49.091   8.352  17.791  0.00  0.00    +0.000 A 
ATOM     29  N   UNL     1      49.496   7.677  18.902  0.00  0.00    +0.000 NA
ATOM     30  C   UNL     1      49.585   6.399  18.747  0.00  0.00    +0.000 A 
ATOM     31  N   UNL     1      49.294   5.731  17.585  0.00  0.00    +0.000 N 
ATOM     32  C   UNL     1      48.845   6.364  16.452  0.00  0.00    +0.000 A 
ATOM     33  O   UNL     1      48.531   5.726  15.452  0.00  0.00    +0.000 OA
ATOM     34  C   UNL     1      48.752   7.808  16.565  0.00  0.00    +0.000 A 
ATOM     35  H   UNL     1      49.364   4.727  17.535  0.00  0.00    +0.000 HD
ENDBRANCH  22  25
ENDBRANCH  20  21
BRANCH  20  36
ATOM     36  C   UNL     1      45.045   9.755  12.410  0.00  0.00    +0.000 C 
BRANCH  36  37
ATOM     37  O   UNL     1      45.676  11.036  12.401  0.00  0.00    +0.000 OA
ATOM     38  H   UNL     1      46.262  11.068  13.179  0.00  0.00    +0.000 HD
ENDBRANCH  36  37
ENDBRANCH  20  36
ENDBRANCH   4  20
TORSDOF 9
ENDMDL
MODEL 9
REMARK VINA RESULT:    -6.385      6.143      7.785
REMARK INTER + INTRA:         -11.008
REMARK INTER:                  -9.577
REMARK INTRA:                  -1.432
REMARK UNBOUND:                -1.450
REMARK  Name = 
REMARK  10 active torsions:
REMARK  status: ('A' for Active; 'I' for Inactive)
REMARK    1  A    between atoms: C_1  and  O_2
REMARK    2  A    between atoms: O_2  and  C_3
REMARK    3  A    between atoms: C_8  and  C_9
REMARK    4  A    between atoms: N_11  and  C_12
REMARK    5  A    between atoms: C_12  and  C_13
REMARK    6  A    between atoms: C_16  and  CA_17
REMARK    7  A    between atoms: CA_17  and  C_18
REMARK    8  A    between atoms: CA_17  and  N_20
REMARK    9  A    between atoms: C_18  and  O_19
REMARK   10  A    between atoms: C_21  and  C_23
REMARK                            x       y       z     vdW  Elec       q    Type
REMARK                         _______ _______ _______ _____ _____    ______ ____
ROOT
ATOM      1  C   UNL     1      48.535   7.533  12.861  0.00  0.00    +0.000 A 
ATOM      2  C   UNL     1      48.744   7.541  11.485  0.00  0.00    +0.000 A 
ATOM      3  C   UNL     1      49.980   7.950  10.993  0.00  0.00    +0.000 A 
ATOM      4  C   UNL     1      51.007   8.298  11.876  0.00  0.00    +0.000 A 
ATOM      5  C   UNL     1      50.696   8.287  13.232  0.00  0.00    +0.000 A 
ATOM      6  N   UNL     1      49.500   7.906  13.742  0.00  0.00    +0.000 NA
ENDROOT
BRANCH   1   7
ATOM      7  C   UNL     1      47.211   7.072  13.425  0.00  0.00    +0.000 C 
BRANCH   7  10
ATOM      8  C   UNL     1      45.671   6.246  11.669  0.00  0.00    +0.000 C 
ATOM      9  O   UNL     1      45.214   7.368  11.462  0.00  0.00    +0.000 OA
ATOM     10  N   UNL     1      46.619   6.015  12.635  0.00  0.00    +0.000 N 
ATOM     11  H   UNL     1      47.049   5.097  12.680  0.00  0.00    +0.000 HD
BRANCH   8  17
ATOM     12  C   UNL     1      44.510   3.958  11.334  0.00  0.00    +0.000 A 
ATOM     13  C   UNL     1      44.199   2.907  10.457  0.00  0.00    +0.000 A 
ATOM     14  C   UNL     1      44.551   2.967   9.106  0.00  0.00    +0.000 A 
ATOM     15  C   UNL     1      45.216   4.081   8.610  0.00  0.00    +0.000 A 
ATOM     16  C   UNL     1      45.549   5.126   9.471  0.00  0.00    +0.000 A 
ATOM     17  C   UNL     1      45.218   5.076  10.840  0.00  0.00    +0.000 A 
BRANCH  12  19
ATOM     18  C   UNL     1      42.977   4.639  13.045  0.00  0.00    +0.000 C 
ATOM     19  O   UNL     1      44.163   3.951  12.662  0.00  0.00    +0.000 OA
ENDBRANCH  12  19
ENDBRANCH   8  17
ENDBRANCH   7  10
ENDBRANCH   1   7
BRANCH   4  20
ATOM     20  CA  UNL     1      52.403   8.661  11.418  0.00  0.00    +0.000 C 
BRANCH  20  21
ATOM     21  N   UNL     1      52.663   8.155  10.085  0.00  0.00    +0.000 N 
ATOM     22  C   UNL     1      53.530   8.765   9.214  0.00  0.00    +0.000 C 
ATOM     23  O   UNL     1      54.158   9.775   9.520  0.00  0.00    +0.000 OA
ATOM     24  H   UNL     1      52.064   7.400   9.770  0.00  0.00    +0.000 HD
BRANCH  22  25
ATOM     25  C   UNL     1      53.728   8.103   7.919  0.00  0.00    +0.000 A 
ATOM     26  C   UNL     1      53.848   8.871   6.768  0.00  0.00    +0.000 A 
ATOM     27  S   UNL     1      54.109   7.951   5.357  0.00  0.00    +0.000 S 
ATOM     28  C   UNL     1      54.020   6.493   6.225  0.00  0.00    +0.000 A 
ATOM     29  N   UNL     1      54.137   5.293   5.591  0.00  0.00    +0.000 NA
ATOM     30  C   UNL     1      54.025   4.268   6.365  0.00  0.00    +0.000 A 
ATOM     31  N   UNL     1      53.819   4.329   7.720  0.00  0.00    +0.000 N 
ATOM     32  C   UNL     1      53.734   5.514   8.409  0.00  0.00    +0.000 A 
ATOM     33  O   UNL     1      53.616   5.530   9.630  0.00  0.00    +0.000 OA
ATOM     34  C   UNL     1      53.828   6.702   7.579  0.00  0.00    +0.000 A 
ATOM     35  H   UNL     1      53.761   3.488   8.272  0.00  0.00    +0.000 HD
ENDBRANCH  22  25
ENDBRANCH  20  21
BRANCH  20  36
ATOM     36  C   UNL     1      53.508   8.193  12.398  0.00  0.00    +0.000 C 
BRANCH  36  37
ATOM     37  O   UNL     1      54.001   6.882  12.116  0.00  0.00    +0.000 OA
ATOM     38  H   UNL     1      53.772   6.687  11.189  0.00  0.00    +0.000 HD
ENDBRANCH  36  37
ENDBRANCH  20  36
ENDBRANCH   4  20
TORSDOF 9
ENDMDL
