MODEL 1
REMARK VINA RESULT:    -7.414      0.000      0.000
REMARK INTER + INTRA:         -10.957
REMARK INTER:                 -10.014
REMARK INTRA:                  -0.943
REMARK UNBOUND:                -0.943
REMARK  Name = 
REMARK  8 active torsions:
REMARK  status: ('A' for Active; 'I' for Inactive)
REMARK    1  A    between atoms: C_1  and  C_2
REMARK    2  A    between atoms: C_2  and  N_3
REMARK    3  A    between atoms: C_2  and  C_9
REMARK    4  A    between atoms: N_3  and  C_4
REMARK    5  A    between atoms: C_12  and  N_13
REMARK    6  A    between atoms: N_13  and  C_14
REMARK    7  A    between atoms: C_14  and  C_15
REMARK    8  A    between atoms: C_14  and  C_16
REMARK                            x       y       z     vdW  Elec       q    Type
REMARK                         _______ _______ _______ _____ _____    ______ ____
ROOT
ATOM      1  C   UNL     1      45.091   4.436  11.754  0.00  0.00    +0.000 A 
ATOM      2  C   UNL     1      45.589   5.575  11.126  0.00  0.00    +0.000 A 
ATOM      3  C   UNL     1      46.360   6.483  11.856  0.00  0.00    +0.000 A 
ATOM      4  C   UNL     1      46.611   6.277  13.210  0.00  0.00    +0.000 A 
ATOM      5  C   UNL     1      46.000   5.153  13.765  0.00  0.00    +0.000 A 
ATOM      6  N   UNL     1      45.267   4.238  13.083  0.00  0.00    +0.000 NA
ENDROOT
BRANCH   1   8
ATOM      7  C   UNL     1      43.365   2.582  11.834  0.00  0.00    +0.000 C 
ATOM      8  C   UNL     1      44.321   3.384  10.936  0.00  0.00    +0.000 C 
BRANCH   8   9
ATOM      9  N   UNL     1      45.250   2.489  10.192  0.00  0.00    +0.000 NA
ATOM     10  H   UNL     1      46.189   2.871  10.256  0.00  0.00    +0.000 HD
BRANCH   9  11
ATOM     11  C   UNL     1      44.912   2.292   8.772  0.00  0.00    +0.000 C 
ATOM     12  C   UNL     1      46.115   1.758   8.013  0.00  0.00    +0.000 C 
ATOM     13  C   UNL     1      46.862   3.006   7.609  0.00  0.00    +0.000 C 
ATOM     14  O   UNL     1      45.890   4.050   7.465  0.00  0.00    +0.000 OA
ATOM     15  C   UNL     1      44.640   3.587   8.000  0.00  0.00    +0.000 C 
ENDBRANCH   9  11
ENDBRANCH   8   9
ENDBRANCH   1   8
BRANCH   4  16
ATOM     16  N   UNL     1      47.365   7.125  14.016  0.00  0.00    +0.000 N 
ATOM     17  H   UNL     1      47.364   8.085  13.681  0.00  0.00    +0.000 HD
BRANCH  16  18
ATOM     18  C   UNL     1      48.648   6.691  14.586  0.00  0.00    +0.000 C 
ATOM     19  C   UNL     1      49.817   7.415  13.898  0.00  0.00    +0.000 C 
BRANCH  18  20
ATOM     20  C   UNL     1      48.754   6.915  16.089  0.00  0.00    +0.000 A 
ATOM     21  C   UNL     1      48.964   8.139  16.704  0.00  0.00    +0.000 A 
ATOM     22  S   UNL     1      49.114   8.020  18.404  0.00  0.00    +0.000 S 
ATOM     23  C   UNL     1      48.898   6.331  18.368  0.00  0.00    +0.000 A 
ATOM     24  N   UNL     1      48.948   5.583  19.502  0.00  0.00    +0.000 NA
ATOM     25  C   UNL     1      48.764   4.317  19.311  0.00  0.00    +0.000 A 
ATOM     26  N   UNL     1      48.525   3.734  18.092  0.00  0.00    +0.000 N 
ATOM     27  C   UNL     1      48.478   4.445  16.917  0.00  0.00    +0.000 A 
ATOM     28  O   UNL     1      48.286   3.893  15.839  0.00  0.00    +0.000 OA
ATOM     29  C   UNL     1      48.691   5.871  17.082  0.00  0.00    +0.000 A 
ATOM     30  H   UNL     1      48.383   2.735  18.015  0.00  0.00    +0.000 HD
ENDBRANCH  18  20
ENDBRANCH  16  18
ENDBRANCH   4  16
TORSDOF 6
ENDMDL
MODEL 2
REMARK VINA RESULT:    -6.804      3.018      7.889
REMARK INTER + INTRA:         -10.133
REMARK INTER:                  -9.036
REMARK INTRA:                  -1.097
REMARK UNBOUND:                -0.943
REMARK  Name = 
REMARK  8 active torsions:
REMARK  status: ('A' for Active; 'I' for Inactive)
REMARK    1  A    between atoms: C_1  and  C_2
REMARK    2  A    between atoms: C_2  and  N_3
REMARK    3  A    between atoms: C_2  and  C_9
REMARK    4  A    between atoms: N_3  and  C_4
REMARK    5  A    between atoms: C_12  and  N_13
REMARK    6  A    between atoms: N_13  and  C_14
REMARK    7  A    between atoms: C_14  and  C_15
REMARK    8  A    between atoms: C_14  and  C_16
REMARK                            x       y       z     vdW  Elec       q    Type
REMARK                         _______ _______ _______ _____ _____    ______ ____
ROOT
ATOM      1  C   UNL     1      49.161   6.366  15.379  0.00  0.00    +0.000 A 
ATOM      2  C   UNL     1      49.639   7.340  14.504  0.00  0.00    +0.000 A 
ATOM      3  C   UNL     1      48.957   7.588  13.310  0.00  0.00    +0.000 A 
ATOM      4  C   UNL     1      47.824   6.854  12.972  0.00  0.00    +0.000 A 
ATOM      5  C   UNL     1      47.474   5.848  13.871  0.00  0.00    +0.000 A 
ATOM      6  N   UNL     1      48.097   5.595  15.050  0.00  0.00    +0.000 NA
ENDROOT
BRANCH   1   8
ATOM      7  C   UNL     1      51.232   6.826  16.766  0.00  0.00    +0.000 C 
ATOM      8  C   UNL     1      49.851   6.151  16.738  0.00  0.00    +0.000 C 
BRANCH   8   9
ATOM      9  N   UNL     1      49.943   4.704  17.075  0.00  0.00    +0.000 NA
ATOM     10  H   UNL     1      49.586   4.164  16.291  0.00  0.00    +0.000 HD
BRANCH   9  11
ATOM     11  C   UNL     1      49.220   4.306  18.295  0.00  0.00    +0.000 C 
ATOM     12  C   UNL     1      48.487   2.995  18.069  0.00  0.00    +0.000 C 
ATOM     13  C   UNL     1      47.162   3.425  17.486  0.00  0.00    +0.000 C 
ATOM     14  O   UNL     1      46.875   4.728  18.008  0.00  0.00    +0.000 OA
ATOM     15  C   UNL     1      48.051   5.225  18.666  0.00  0.00    +0.000 C 
ENDBRANCH   9  11
ENDBRANCH   8   9
ENDBRANCH   1   8
BRANCH   4  16
ATOM     16  N   UNL     1      47.083   7.030  11.807  0.00  0.00    +0.000 N 
ATOM     17  H   UNL     1      47.306   7.900  11.330  0.00  0.00    +0.000 HD
BRANCH  16  18
ATOM     18  C   UNL     1      45.661   6.663  11.748  0.00  0.00    +0.000 C 
ATOM     19  C   UNL     1      44.809   7.867  11.316  0.00  0.00    +0.000 C 
BRANCH  18  20
ATOM     20  C   UNL     1      45.371   5.499  10.807  0.00  0.00    +0.000 A 
ATOM     21  C   UNL     1      45.651   5.476   9.451  0.00  0.00    +0.000 A 
ATOM     22  S   UNL     1      45.119   4.046   8.678  0.00  0.00    +0.000 S 
ATOM     23  C   UNL     1      44.504   3.414  10.135  0.00  0.00    +0.000 A 
ATOM     24  N   UNL     1      43.872   2.210  10.179  0.00  0.00    +0.000 NA
ATOM     25  C   UNL     1      43.464   1.867  11.357  0.00  0.00    +0.000 A 
ATOM     26  N   UNL     1      43.638   2.613  12.495  0.00  0.00    +0.000 N 
ATOM     27  C   UNL     1      44.257   3.839  12.502  0.00  0.00    +0.000 A 
ATOM     28  O   UNL     1      44.377   4.494  13.531  0.00  0.00    +0.000 OA
ATOM     29  C   UNL     1      44.723   4.271  11.196  0.00  0.00    +0.000 A 
ATOM     30  H   UNL     1      43.297   2.281  13.389  0.00  0.00    +0.000 HD
ENDBRANCH  18  20
ENDBRANCH  16  18
ENDBRANCH   4  16
TORSDOF 6
ENDMDL
MODEL 3
REMARK VINA RESULT:    -6.799      2.993      4.911
REMARK INTER + INTRA:         -10.126
REMARK INTER:                  -9.135
REMARK INTRA:                  -0.991
REMARK UNBOUND:                -0.943
REMARK  Name = 
REMARK  8 active torsions:
REMARK  status: ('A' for Active; 'I' for Inactive)
REMARK    1  A    between atoms: C_1  and  C_2
REMARK    2  A    between atoms: C_2  and  N_3
REMARK    3  A    between atoms: C_2  and  C_9
REMARK    4  A    between atoms: N_3  and  C_4
REMARK    5  A    between atoms: C_12  and  N_13
REMARK    6  A    between atoms: N_13  and  C_14
REMARK    7  A    between atoms: C_14  and  C_15
REMARK    8  A    between atoms: C_14  and  C_16
REMARK                            x       y       z     vdW  Elec       q    Type
REMARK                         _______ _______ _______ _____ _____    ______ ____
ROOT
ATOM      1  C   UNL     1      45.321   4.422  11.934  0.00  0.00    +0.000 A 
ATOM      2  C   UNL     1      45.760   5.644  11.427  0.00  0.00    +0.000 A 
ATOM      3  C   UNL     1      46.626   6.434  12.188  0.00  0.00    +0.000 A 
ATOM      4  C   UNL     1      47.028   6.029  13.458  0.00  0.00    +0.000 A 
ATOM      5  C   UNL     1      46.469   4.834  13.909  0.00  0.00    +0.000 A 
ATOM      6  N   UNL     1      45.647   4.030  13.189  0.00  0.00    +0.000 NA
ENDROOT
BRANCH   1   8
ATOM      7  C   UNL     1      43.376   2.797  11.918  0.00  0.00    +0.000 C 
ATOM      8  C   UNL     1      44.444   3.502  11.066  0.00  0.00    +0.000 C 
BRANCH   8   9
ATOM      9  N   UNL     1      45.271   2.524  10.308  0.00  0.00    +0.000 NA
ATOM     10  H   UNL     1      46.239   2.831  10.330  0.00  0.00    +0.000 HD
BRANCH   9  11
ATOM     11  C   UNL     1      44.865   2.329   8.905  0.00  0.00    +0.000 C 
ATOM     12  C   UNL     1      46.024   1.775   8.093  0.00  0.00    +0.000 C 
ATOM     13  C   UNL     1      46.771   3.011   7.652  0.00  0.00    +0.000 C 
ATOM     14  O   UNL     1      45.810   4.069   7.549  0.00  0.00    +0.000 OA
ATOM     15  C   UNL     1      44.579   3.627   8.142  0.00  0.00    +0.000 C 
ENDBRANCH   9  11
ENDBRANCH   8   9
ENDBRANCH   1   8
BRANCH   4  16
ATOM     16  N   UNL     1      47.884   6.750  14.286  0.00  0.00    +0.000 N 
ATOM     17  H   UNL     1      47.868   6.418  15.247  0.00  0.00    +0.000 HD
BRANCH  16  18
ATOM     18  C   UNL     1      48.017   8.208  14.159  0.00  0.00    +0.000 C 
ATOM     19  C   UNL     1      48.204   8.856  15.540  0.00  0.00    +0.000 C 
BRANCH  18  20
ATOM     20  C   UNL     1      49.170   8.638  13.260  0.00  0.00    +0.000 A 
ATOM     21  C   UNL     1      50.471   8.171  13.346  0.00  0.00    +0.000 A 
ATOM     22  S   UNL     1      51.531   8.926  12.236  0.00  0.00    +0.000 S 
ATOM     23  C   UNL     1      50.281   9.895  11.604  0.00  0.00    +0.000 A 
ATOM     24  N   UNL     1      50.515  10.811  10.627  0.00  0.00    +0.000 NA
ATOM     25  C   UNL     1      49.465  11.466  10.252  0.00  0.00    +0.000 A 
ATOM     26  N   UNL     1      48.203  11.283  10.758  0.00  0.00    +0.000 N 
ATOM     27  C   UNL     1      47.918  10.380  11.755  0.00  0.00    +0.000 A 
ATOM     28  O   UNL     1      46.785  10.255  12.204  0.00  0.00    +0.000 OA
ATOM     29  C   UNL     1      49.071   9.628  12.215  0.00  0.00    +0.000 A 
ATOM     30  H   UNL     1      47.423  11.828  10.414  0.00  0.00    +0.000 HD
ENDBRANCH  18  20
ENDBRANCH  16  18
ENDBRANCH   4  16
TORSDOF 6
ENDMDL
MODEL 4
REMARK VINA RESULT:    -6.783      2.576      8.167
REMARK INTER + INTRA:         -10.105
REMARK INTER:                  -9.339
REMARK INTRA:                  -0.767
REMARK UNBOUND:                -0.943
REMARK  Name = 
REMARK  8 active torsions:
REMARK  status: ('A' for Active; 'I' for Inactive)
REMARK    1  A    between atoms: C_1  and  C_2
REMARK    2  A    between atoms: C_2  and  N_3
REMARK    3  A    between atoms: C_2  and  C_9
REMARK    4  A    between atoms: N_3  and  C_4
REMARK    5  A    between atoms: C_12  and  N_13
REMARK    6  A    between atoms: N_13  and  C_14
REMARK    7  A    between atoms: C_14  and  C_15
REMARK    8  A    between atoms: C_14  and  C_16
REMARK                            x       y       z     vdW  Elec       q    Type
REMARK                         _______ _______ _______ _____ _____    ______ ____
ROOT
ATOM      1  C   UNL     1      48.840   6.352  15.276  0.00  0.00    +0.000 A 
ATOM      2  C   UNL     1      48.997   7.456  14.440  0.00  0.00    +0.000 A 
ATOM      3  C   UNL     1      48.206   7.570  13.294  0.00  0.00    +0.000 A 
ATOM      4  C   UNL     1      47.286   6.580  12.962  0.00  0.00    +0.000 A 
ATOM      5  C   UNL     1      47.262   5.477  13.815  0.00  0.00    +0.000 A 
ATOM      6  N   UNL     1      47.996   5.344  14.948  0.00  0.00    +0.000 NA
ENDROOT
BRANCH   1   8
ATOM      7  C   UNL     1      50.943   7.071  16.493  0.00  0.00    +0.000 C 
ATOM      8  C   UNL     1      49.639   6.263  16.588  0.00  0.00    +0.000 C 
BRANCH   8   9
ATOM      9  N   UNL     1      49.899   4.848  16.969  0.00  0.00    +0.000 NA
ATOM     10  H   UNL     1      49.582   4.245  16.215  0.00  0.00    +0.000 HD
BRANCH   9  11
ATOM     11  C   UNL     1      49.259   4.419  18.224  0.00  0.00    +0.000 C 
ATOM     12  C   UNL     1      48.674   3.025  18.067  0.00  0.00    +0.000 C 
ATOM     13  C   UNL     1      47.294   3.280  17.510  0.00  0.00    +0.000 C 
ATOM     14  O   UNL     1      46.874   4.561  17.995  0.00  0.00    +0.000 OA
ATOM     15  C   UNL     1      48.003   5.213  18.598  0.00  0.00    +0.000 C 
ENDBRANCH   9  11
ENDBRANCH   8   9
ENDBRANCH   1   8
BRANCH   4  16
ATOM     16  N   UNL     1      46.458   6.608  11.843  0.00  0.00    +0.000 N 
ATOM     17  H   UNL     1      46.749   7.302  11.159  0.00  0.00    +0.000 HD
BRANCH  16  18
ATOM     18  C   UNL     1      45.001   6.468  11.971  0.00  0.00    +0.000 C 
ATOM     19  C   UNL     1      44.280   7.501  11.089  0.00  0.00    +0.000 C 
BRANCH  18  20
ATOM     20  C   UNL     1      44.488   5.079  11.612  0.00  0.00    +0.000 A 
ATOM     21  C   UNL     1      43.678   4.292  12.414  0.00  0.00    +0.000 A 
ATOM     22  S   UNL     1      43.356   2.753  11.741  0.00  0.00    +0.000 S 
ATOM     23  C   UNL     1      44.286   3.096  10.355  0.00  0.00    +0.000 A 
ATOM     24  N   UNL     1      44.460   2.176   9.369  0.00  0.00    +0.000 NA
ATOM     25  C   UNL     1      45.189   2.587   8.383  0.00  0.00    +0.000 A 
ATOM     26  N   UNL     1      45.751   3.835   8.289  0.00  0.00    +0.000 N 
ATOM     27  C   UNL     1      45.615   4.794   9.264  0.00  0.00    +0.000 A 
ATOM     28  O   UNL     1      46.148   5.893   9.163  0.00  0.00    +0.000 OA
ATOM     29  C   UNL     1      44.812   4.373  10.397  0.00  0.00    +0.000 A 
ATOM     30  H   UNL     1      46.307   4.093   7.484  0.00  0.00    +0.000 HD
ENDBRANCH  18  20
ENDBRANCH  16  18
ENDBRANCH   4  16
TORSDOF 6
ENDMDL
MODEL 5
REMARK VINA RESULT:    -6.605      1.782      2.421
REMARK INTER + INTRA:          -9.864
REMARK INTER:                  -9.224
REMARK INTRA:                  -0.640
REMARK UNBOUND:                -0.943
REMARK  Name = 
REMARK  8 active torsions:
REMARK  status: ('A' for Active; 'I' for Inactive)
REMARK    1  A    between atoms: C_1  and  C_2
REMARK    2  A    between atoms: C_2  and  N_3
REMARK    3  A    between atoms: C_2  and  C_9
REMARK    4  A    between atoms: N_3  and  C_4
REMARK    5  A    between atoms: C_12  and  N_13
REMARK    6  A    between atoms: N_13  and  C_14
REMARK    7  A    between atoms: C_14  and  C_15
REMARK    8  A    between atoms: C_14  and  C_16
REMARK                            x       y       z     vdW  Elec       q    Type
REMARK                         _______ _______ _______ _____ _____    ______ ____
ROOT
ATOM      1  C   UNL     1      45.145   4.460  11.817  0.00  0.00    +0.000 A 
ATOM      2  C   UNL     1      45.437   5.698  11.250  0.00  0.00    +0.000 A 
ATOM      3  C   UNL     1      46.228   6.610  11.955  0.00  0.00    +0.000 A 
ATOM      4  C   UNL     1      46.701   6.307  13.228  0.00  0.00    +0.000 A 
ATOM      5  C   UNL     1      46.286   5.078  13.742  0.00  0.00    +0.000 A 
ATOM      6  N   UNL     1      45.541   4.160  13.078  0.00  0.00    +0.000 NA
ENDROOT
BRANCH   1   8
ATOM      7  C   UNL     1      43.390   2.635  11.919  0.00  0.00    +0.000 C 
ATOM      8  C   UNL     1      44.355   3.413  11.011  0.00  0.00    +0.000 C 
BRANCH   8   9
ATOM      9  N   UNL     1      45.267   2.498  10.272  0.00  0.00    +0.000 NA
ATOM     10  H   UNL     1      46.206   2.886  10.295  0.00  0.00    +0.000 HD
BRANCH   9  11
ATOM     11  C   UNL     1      44.889   2.249   8.871  0.00  0.00    +0.000 C 
ATOM     12  C   UNL     1      46.073   1.697   8.095  0.00  0.00    +0.000 C 
ATOM     13  C   UNL     1      46.798   2.936   7.625  0.00  0.00    +0.000 C 
ATOM     14  O   UNL     1      45.814   3.967   7.474  0.00  0.00    +0.000 OA
ATOM     15  C   UNL     1      44.584   3.515   8.062  0.00  0.00    +0.000 C 
ENDBRANCH   9  11
ENDBRANCH   8   9
ENDBRANCH   1   8
BRANCH   4  16
ATOM     16  N   UNL     1      47.491   7.150  14.003  0.00  0.00    +0.000 N 
ATOM     17  H   UNL     1      47.527   8.098  13.637  0.00  0.00    +0.000 HD
BRANCH  16  18
ATOM     18  C   UNL     1      48.758   6.684  14.584  0.00  0.00    +0.000 C 
ATOM     19  C   UNL     1      49.942   7.473  14.000  0.00  0.00    +0.000 C 
BRANCH  18  20
ATOM     20  C   UNL     1      48.808   6.788  16.103  0.00  0.00    +0.000 A 
ATOM     21  C   UNL     1      49.124   5.752  16.967  0.00  0.00    +0.000 A 
ATOM     22  S   UNL     1      49.004   6.191  18.616  0.00  0.00    +0.000 S 
ATOM     23  C   UNL     1      48.531   7.779  18.223  0.00  0.00    +0.000 A 
ATOM     24  N   UNL     1      48.231   8.692  19.186  0.00  0.00    +0.000 NA
ATOM     25  C   UNL     1      47.892   9.853  18.729  0.00  0.00    +0.000 A 
ATOM     26  N   UNL     1      47.833  10.187  17.400  0.00  0.00    +0.000 N 
ATOM     27  C   UNL     1      48.113   9.298  16.390  0.00  0.00    +0.000 A 
ATOM     28  O   UNL     1      48.029   9.618  15.209  0.00  0.00    +0.000 OA
ATOM     29  C   UNL     1      48.489   7.976  16.856  0.00  0.00    +0.000 A 
ATOM     30  H   UNL     1      47.564  11.119  17.111  0.00  0.00    +0.000 HD
ENDBRANCH  18  20
ENDBRANCH  16  18
ENDBRANCH   4  16
TORSDOF 6
ENDMDL
MODEL 6
REMARK VINA RESULT:    -6.412      1.391      1.583
REMARK INTER + INTRA:          -9.604
REMARK INTER:                  -8.688
REMARK INTRA:                  -0.916
REMARK UNBOUND:                -0.943
REMARK  Name = 
REMARK  8 active torsions:
REMARK  status: ('A' for Active; 'I' for Inactive)
REMARK    1  A    between atoms: C_1  and  C_2
REMARK    2  A    between atoms: C_2  and  N_3
REMARK    3  A    between atoms: C_2  and  C_9
REMARK    4  A    between atoms: N_3  and  C_4
REMARK    5  A    between atoms: C_12  and  N_13
REMARK    6  A    between atoms: N_13  and  C_14
REMARK    7  A    between atoms: C_14  and  C_15
REMARK    8  A    between atoms: C_14  and  C_16
REMARK                            x       y       z     vdW  Elec       q    Type
REMARK                         _______ _______ _______ _____ _____    ______ ____
ROOT
ATOM      1  C   UNL     1      45.643   4.942  12.592  0.00  0.00    +0.000 A 
ATOM      2  C   UNL     1      45.776   6.303  12.325  0.00  0.00    +0.000 A 
ATOM      3  C   UNL     1      46.789   7.032  12.952  0.00  0.00    +0.000 A 
ATOM      4  C   UNL     1      47.647   6.422  13.863  0.00  0.00    +0.000 A 
ATOM      5  C   UNL     1      47.381   5.078  14.125  0.00  0.00    +0.000 A 
ATOM      6  N   UNL     1      46.424   4.333  13.518  0.00  0.00    +0.000 NA
ENDROOT
BRANCH   1   8
ATOM      7  C   UNL     1      43.566   3.506  12.809  0.00  0.00    +0.000 C 
ATOM      8  C   UNL     1      44.592   4.110  11.836  0.00  0.00    +0.000 C 
BRANCH   8   9
ATOM      9  N   UNL     1      45.233   3.060  10.997  0.00  0.00    +0.000 NA
ATOM     10  H   UNL     1      46.192   3.337  10.807  0.00  0.00    +0.000 HD
BRANCH   9  11
ATOM     11  C   UNL     1      44.552   2.792   9.718  0.00  0.00    +0.000 C 
ATOM     12  C   UNL     1      45.448   1.970   8.807  0.00  0.00    +0.000 C 
ATOM     13  C   UNL     1      46.274   3.011   8.089  0.00  0.00    +0.000 C 
ATOM     14  O   UNL     1      45.476   4.199   8.008  0.00  0.00    +0.000 OA
ATOM     15  C   UNL     1      44.324   4.033   8.849  0.00  0.00    +0.000 C 
ENDBRANCH   9  11
ENDBRANCH   8   9
ENDBRANCH   1   8
BRANCH   4  16
ATOM     16  N   UNL     1      48.681   7.067  14.535  0.00  0.00    +0.000 N 
ATOM     17  H   UNL     1      49.419   7.379  13.910  0.00  0.00    +0.000 HD
BRANCH  16  18
ATOM     18  C   UNL     1      49.163   6.579  15.835  0.00  0.00    +0.000 C 
ATOM     19  C   UNL     1      50.697   6.661  15.907  0.00  0.00    +0.000 C 
BRANCH  18  20
ATOM     20  C   UNL     1      48.580   7.333  17.024  0.00  0.00    +0.000 A 
ATOM     21  C   UNL     1      48.392   8.704  17.089  0.00  0.00    +0.000 A 
ATOM     22  S   UNL     1      47.791   9.229  18.602  0.00  0.00    +0.000 S 
ATOM     23  C   UNL     1      47.761   7.639  19.212  0.00  0.00    +0.000 A 
ATOM     24  N   UNL     1      47.374   7.373  20.488  0.00  0.00    +0.000 NA
ATOM     25  C   UNL     1      47.403   6.119  20.801  0.00  0.00    +0.000 A 
ATOM     26  N   UNL     1      47.774   5.107  19.952  0.00  0.00    +0.000 N 
ATOM     27  C   UNL     1      48.185   5.325  18.659  0.00  0.00    +0.000 A 
ATOM     28  O   UNL     1      48.534   4.403  17.931  0.00  0.00    +0.000 OA
ATOM     29  C   UNL     1      48.179   6.723  18.267  0.00  0.00    +0.000 A 
ATOM     30  H   UNL     1      47.768   4.143  20.262  0.00  0.00    +0.000 HD
ENDBRANCH  18  20
ENDBRANCH  16  18
ENDBRANCH   4  16
TORSDOF 6
ENDMDL
MODEL 7
REMARK VINA RESULT:    -6.378      3.037      8.353
REMARK INTER + INTRA:          -9.558
REMARK INTER:                  -8.513
REMARK INTRA:                  -1.045
REMARK UNBOUND:                -0.943
REMARK  Name = 
REMARK  8 active torsions:
REMARK  status: ('A' for Active; 'I' for Inactive)
REMARK    1  A    between atoms: C_1  and  C_2
REMARK    2  A    between atoms: C_2  and  N_3
REMARK    3  A    between atoms: C_2  and  C_9
REMARK    4  A    between atoms: N_3  and  C_4
REMARK    5  A    between atoms: C_12  and  N_13
REMARK    6  A    between atoms: N_13  and  C_14
REMARK    7  A    between atoms: C_14  and  C_15
REMARK    8  A    between atoms: C_14  and  C_16
REMARK                            x       y       z     vdW  Elec       q    Type
REMARK                         _______ _______ _______ _____ _____    ______ ____
ROOT
ATOM      1  C   UNL     1      48.504   5.080  16.645  0.00  0.00    +0.000 A 
ATOM      2  C   UNL     1      48.927   6.376  16.357  0.00  0.00    +0.000 A 
ATOM      3  C   UNL     1      48.550   6.971  15.150  0.00  0.00    +0.000 A 
ATOM      4  C   UNL     1      47.783   6.275  14.221  0.00  0.00    +0.000 A 
ATOM      5  C   UNL     1      47.480   4.958  14.565  0.00  0.00    +0.000 A 
ATOM      6  N   UNL     1      47.807   4.356  15.736  0.00  0.00    +0.000 NA
ENDROOT
BRANCH   1   8
ATOM      7  C   UNL     1      49.099   2.943  17.869  0.00  0.00    +0.000 C 
ATOM      8  C   UNL     1      48.834   4.451  18.010  0.00  0.00    +0.000 C 
BRANCH   8   9
ATOM      9  N   UNL     1      47.763   4.726  19.007  0.00  0.00    +0.000 NA
ATOM     10  H   UNL     1      47.068   5.331  18.578  0.00  0.00    +0.000 HD
BRANCH   9  11
ATOM     11  C   UNL     1      48.230   5.350  20.257  0.00  0.00    +0.000 C 
ATOM     12  C   UNL     1      47.332   6.518  20.631  0.00  0.00    +0.000 C 
ATOM     13  C   UNL     1      47.937   7.683  19.884  0.00  0.00    +0.000 C 
ATOM     14  O   UNL     1      49.339   7.418  19.754  0.00  0.00    +0.000 OA
ATOM     15  C   UNL     1      49.585   6.058  20.144  0.00  0.00    +0.000 C 
ENDBRANCH   9  11
ENDBRANCH   8   9
ENDBRANCH   1   8
BRANCH   4  16
ATOM     16  N   UNL     1      47.362   6.785  12.996  0.00  0.00    +0.000 N 
ATOM     17  H   UNL     1      47.867   7.626  12.729  0.00  0.00    +0.000 HD
BRANCH  16  18
ATOM     18  C   UNL     1      45.940   6.797  12.625  0.00  0.00    +0.000 C 
ATOM     19  C   UNL     1      45.514   8.201  12.167  0.00  0.00    +0.000 C 
BRANCH  18  20
ATOM     20  C   UNL     1      45.588   5.799  11.529  0.00  0.00    +0.000 A 
ATOM     21  C   UNL     1      45.931   5.922  10.193  0.00  0.00    +0.000 A 
ATOM     22  S   UNL     1      45.304   4.664   9.218  0.00  0.00    +0.000 S 
ATOM     23  C   UNL     1      44.560   3.915  10.555  0.00  0.00    +0.000 A 
ATOM     24  N   UNL     1      43.815   2.786  10.416  0.00  0.00    +0.000 NA
ATOM     25  C   UNL     1      43.319   2.338  11.522  0.00  0.00    +0.000 A 
ATOM     26  N   UNL     1      43.506   2.910  12.755  0.00  0.00    +0.000 N 
ATOM     27  C   UNL     1      44.239   4.057  12.947  0.00  0.00    +0.000 A 
ATOM     28  O   UNL     1      44.369   4.558  14.057  0.00  0.00    +0.000 OA
ATOM     29  C   UNL     1      44.808   4.603  11.728  0.00  0.00    +0.000 A 
ATOM     30  H   UNL     1      43.092   2.502  13.583  0.00  0.00    +0.000 HD
ENDBRANCH  18  20
ENDBRANCH  16  18
ENDBRANCH   4  16
TORSDOF 6
ENDMDL
MODEL 8
REMARK VINA RESULT:    -6.351      3.157      3.859
REMARK INTER + INTRA:          -9.522
REMARK INTER:                  -8.599
REMARK INTRA:                  -0.922
REMARK UNBOUND:                -0.943
REMARK  Name = 
REMARK  8 active torsions:
REMARK  status: ('A' for Active; 'I' for Inactive)
REMARK    1  A    between atoms: C_1  and  C_2
REMARK    2  A    between atoms: C_2  and  N_3
REMARK    3  A    between atoms: C_2  and  C_9
REMARK    4  A    between atoms: N_3  and  C_4
REMARK    5  A    between atoms: C_12  and  N_13
REMARK    6  A    between atoms: N_13  and  C_14
REMARK    7  A    between atoms: C_14  and  C_15
REMARK    8  A    between atoms: C_14  and  C_16
REMARK                            x       y       z     vdW  Elec       q    Type
REMARK                         _______ _______ _______ _____ _____    ______ ____
ROOT
ATOM      1  C   UNL     1      44.941   4.498  11.443  0.00  0.00    +0.000 A 
ATOM      2  C   UNL     1      44.967   4.496  12.836  0.00  0.00    +0.000 A 
ATOM      3  C   UNL     1      45.512   5.588  13.516  0.00  0.00    +0.000 A 
ATOM      4  C   UNL     1      46.056   6.663  12.818  0.00  0.00    +0.000 A 
ATOM      5  C   UNL     1      46.058   6.533  11.430  0.00  0.00    +0.000 A 
ATOM      6  N   UNL     1      45.517   5.501  10.736  0.00  0.00    +0.000 NA
ENDROOT
BRANCH   1   8
ATOM      7  C   UNL     1      43.333   2.548  11.620  0.00  0.00    +0.000 C 
ATOM      8  C   UNL     1      44.259   3.344  10.686  0.00  0.00    +0.000 C 
BRANCH   8   9
ATOM      9  N   UNL     1      45.261   2.462  10.027  0.00  0.00    +0.000 NA
ATOM     10  H   UNL     1      46.181   2.878  10.135  0.00  0.00    +0.000 HD
BRANCH   9  11
ATOM     11  C   UNL     1      45.016   2.212   8.597  0.00  0.00    +0.000 C 
ATOM     12  C   UNL     1      46.287   1.725   7.922  0.00  0.00    +0.000 C 
ATOM     13  C   UNL     1      46.989   3.002   7.525  0.00  0.00    +0.000 C 
ATOM     14  O   UNL     1      45.973   3.988   7.298  0.00  0.00    +0.000 OA
ATOM     15  C   UNL     1      44.721   3.471   7.775  0.00  0.00    +0.000 C 
ENDBRANCH   9  11
ENDBRANCH   8   9
ENDBRANCH   1   8
BRANCH   4  16
ATOM     16  N   UNL     1      46.620   7.790  13.410  0.00  0.00    +0.000 N 
ATOM     17  H   UNL     1      45.925   8.398  13.833  0.00  0.00    +0.000 HD
BRANCH  16  18
ATOM     18  C   UNL     1      47.734   8.506  12.771  0.00  0.00    +0.000 C 
ATOM     19  C   UNL     1      47.260   9.862  12.224  0.00  0.00    +0.000 C 
BRANCH  18  20
ATOM     20  C   UNL     1      48.918   8.744  13.699  0.00  0.00    +0.000 A 
ATOM     21  C   UNL     1      48.835   9.202  15.004  0.00  0.00    +0.000 A 
ATOM     22  S   UNL     1      50.364   9.435  15.735  0.00  0.00    +0.000 S 
ATOM     23  C   UNL     1      51.182   8.926  14.330  0.00  0.00    +0.000 A 
ATOM     24  N   UNL     1      52.540   8.916  14.261  0.00  0.00    +0.000 NA
ATOM     25  C   UNL     1      53.010   8.501  13.130  0.00  0.00    +0.000 A 
ATOM     26  N   UNL     1      52.248   8.089  12.067  0.00  0.00    +0.000 N 
ATOM     27  C   UNL     1      50.874   8.093  12.082  0.00  0.00    +0.000 A 
ATOM     28  O   UNL     1      50.219   7.741  11.108  0.00  0.00    +0.000 OA
ATOM     29  C   UNL     1      50.300   8.562  13.331  0.00  0.00    +0.000 A 
ATOM     30  H   UNL     1      52.684   7.771  11.210  0.00  0.00    +0.000 HD
ENDBRANCH  18  20
ENDBRANCH  16  18
ENDBRANCH   4  16
TORSDOF 6
ENDMDL
MODEL 9
REMARK VINA RESULT:    -6.164      2.426      3.338
REMARK INTER + INTRA:          -9.269
REMARK INTER:                  -7.851
REMARK INTRA:                  -1.418
REMARK UNBOUND:                -0.943
REMARK  Name = 
REMARK  8 active torsions:
REMARK  status: ('A' for Active; 'I' for Inactive)
REMARK    1  A    between atoms: C_1  and  C_2
REMARK    2  A    between atoms: C_2  and  N_3
REMARK    3  A    between atoms: C_2  and  C_9
REMARK    4  A    between atoms: N_3  and  C_4
REMARK    5  A    between atoms: C_12  and  N_13
REMARK    6  A    between atoms: N_13  and  C_14
REMARK    7  A    between atoms: C_14  and  C_15
REMARK    8  A    between atoms: C_14  and  C_16
REMARK                            x       y       z     vdW  Elec       q    Type
REMARK                         _______ _______ _______ _____ _____    ______ ____
ROOT
ATOM      1  C   UNL     1      46.476   7.391  12.578  0.00  0.00    +0.000 A 
ATOM      2  C   UNL     1      46.838   8.593  13.184  0.00  0.00    +0.000 A 
ATOM      3  C   UNL     1      48.124   8.738  13.710  0.00  0.00    +0.000 A 
ATOM      4  C   UNL     1      49.037   7.688  13.661  0.00  0.00    +0.000 A 
ATOM      5  C   UNL     1      48.552   6.502  13.110  0.00  0.00    +0.000 A 
ATOM      6  N   UNL     1      47.320   6.332  12.569  0.00  0.00    +0.000 NA
ENDROOT
BRANCH   1   8
ATOM      7  C   UNL     1      44.553   8.626  11.482  0.00  0.00    +0.000 C 
ATOM      8  C   UNL     1      45.094   7.253  11.913  0.00  0.00    +0.000 C 
BRANCH   8   9
ATOM      9  N   UNL     1      44.134   6.542  12.801  0.00  0.00    +0.000 NA
ATOM     10  H   UNL     1      44.646   6.156  13.590  0.00  0.00    +0.000 HD
BRANCH   9  11
ATOM     11  C   UNL     1      43.377   5.460  12.150  0.00  0.00    +0.000 C 
ATOM     12  C   UNL     1      43.522   4.168  12.936  0.00  0.00    +0.000 C 
ATOM     13  C   UNL     1      44.783   3.552  12.377  0.00  0.00    +0.000 C 
ATOM     14  O   UNL     1      44.896   3.989  11.016  0.00  0.00    +0.000 OA
ATOM     15  C   UNL     1      43.932   5.028  10.788  0.00  0.00    +0.000 C 
ENDBRANCH   9  11
ENDBRANCH   8   9
ENDBRANCH   1   8
BRANCH   4  16
ATOM     16  N   UNL     1      50.336   7.741  14.159  0.00  0.00    +0.000 N 
ATOM     17  H   UNL     1      51.037   7.629  13.432  0.00  0.00    +0.000 HD
BRANCH  16  18
ATOM     18  C   UNL     1      50.687   7.102  15.435  0.00  0.00    +0.000 C 
ATOM     19  C   UNL     1      52.175   7.320  15.755  0.00  0.00    +0.000 C 
BRANCH  18  20
ATOM     20  C   UNL     1      49.858   7.597  16.613  0.00  0.00    +0.000 A 
ATOM     21  C   UNL     1      49.998   8.829  17.231  0.00  0.00    +0.000 A 
ATOM     22  S   UNL     1      48.961   9.029  18.576  0.00  0.00    +0.000 S 
ATOM     23  C   UNL     1      48.292   7.476  18.370  0.00  0.00    +0.000 A 
ATOM     24  N   UNL     1      47.351   6.988  19.221  0.00  0.00    +0.000 NA
ATOM     25  C   UNL     1      46.940   5.796  18.931  0.00  0.00    +0.000 A 
ATOM     26  N   UNL     1      47.378   5.053  17.864  0.00  0.00    +0.000 N 
ATOM     27  C   UNL     1      48.336   5.496  16.984  0.00  0.00    +0.000 A 
ATOM     28  O   UNL     1      48.725   4.801  16.053  0.00  0.00    +0.000 OA
ATOM     29  C   UNL     1      48.835   6.828  17.278  0.00  0.00    +0.000 A 
ATOM     30  H   UNL     1      47.008   4.127  17.692  0.00  0.00    +0.000 HD
ENDBRANCH  18  20
ENDBRANCH  16  18
ENDBRANCH   4  16
TORSDOF 6
ENDMDL
