MODEL 1
REMARK VINA RESULT:    -8.205      0.000      0.000
REMARK INTER + INTRA:         -11.675
REMARK INTER:                 -11.083
REMARK INTRA:                  -0.592
REMARK UNBOUND:                -0.592
REMARK  Name = 
REMARK  7 active torsions:
REMARK  status: ('A' for Active; 'I' for Inactive)
REMARK    1  A    between atoms: C_1  and  C_2
REMARK    2  A    between atoms: C_2  and  C_3
REMARK    3  A    between atoms: C_2  and  N_24
REMARK    4  A    between atoms: C_3  and  C_4
REMARK    5  A    between atoms: C_7  and  C_8
REMARK    6  A    between atoms: C_8  and  N_9
REMARK    7  A    between atoms: C_10  and  C_12
REMARK                            x       y       z     vdW  Elec       q    Type
REMARK                         _______ _______ _______ _____ _____    ______ ____
ROOT
ATOM      1  C   UNL     1      45.633   4.543  12.495  0.00  0.00    +0.000 A 
ATOM      2  C   UNL     1      46.301   4.236  13.680  0.00  0.00    +0.000 A 
ATOM      3  C   UNL     1      47.209   5.151  14.209  0.00  0.00    +0.000 A 
ATOM      4  C   UNL     1      47.431   6.359  13.550  0.00  0.00    +0.000 A 
ATOM      5  C   UNL     1      46.758   6.560  12.350  0.00  0.00    +0.000 A 
ATOM      6  N   UNL     1      45.857   5.695  11.821  0.00  0.00    +0.000 NA
ENDROOT
BRANCH   1   7
ATOM      7  C   UNL     1      44.541   3.615  12.014  0.00  0.00    +0.000 C 
BRANCH   7   9
ATOM      8  C   UNL     1      42.661   5.273  11.425  0.00  0.00    +0.000 C 
ATOM      9  C   UNL     1      43.590   4.161  10.932  0.00  0.00    +0.000 C 
BRANCH   9  10
ATOM     10  N   UNL     1      44.330   4.583   9.743  0.00  0.00    +0.000 N 
ATOM     11  C   UNL     1      45.116   3.780   8.962  0.00  0.00    +0.000 A 
ATOM     12  N   UNL     1      45.216   2.467   9.210  0.00  0.00    +0.000 NA
ATOM     13  C   UNL     1      45.955   1.726   8.365  0.00  0.00    +0.000 A 
ATOM     14  C   UNL     1      46.597   2.243   7.272  0.00  0.00    +0.000 A 
ATOM     15  C   UNL     1      46.449   3.596   7.103  0.00  0.00    +0.000 A 
ATOM     16  N   UNL     1      45.732   4.380   7.935  0.00  0.00    +0.000 NA
ATOM     17  H   UNL     1      44.522   5.565   9.601  0.00  0.00    +0.000 HD
ENDBRANCH   9  10
ENDBRANCH   7   9
ENDBRANCH   1   7
BRANCH   4  18
ATOM     18  C   UNL     1      48.365   7.394  14.101  0.00  0.00    +0.000 C 
BRANCH  18  19
ATOM     19  N   UNL     1      48.364   7.394  15.540  0.00  0.00    +0.000 N 
ATOM     20  C   UNL     1      49.438   6.930  16.252  0.00  0.00    +0.000 C 
ATOM     21  O   UNL     1      50.469   6.548  15.705  0.00  0.00    +0.000 OA
ATOM     22  H   UNL     1      47.464   7.485  16.001  0.00  0.00    +0.000 HD
BRANCH  20  23
ATOM     23  C   UNL     1      49.316   6.965  17.717  0.00  0.00    +0.000 A 
ATOM     24  C   UNL     1      49.487   8.163  18.395  0.00  0.00    +0.000 A 
ATOM     25  S   UNL     1      49.254   8.034  20.080  0.00  0.00    +0.000 S 
ATOM     26  C   UNL     1      48.973   6.362  19.969  0.00  0.00    +0.000 A 
ATOM     27  N   UNL     1      48.727   5.617  21.081  0.00  0.00    +0.000 NA
ATOM     28  C   UNL     1      48.557   4.359  20.854  0.00  0.00    +0.000 A 
ATOM     29  N   UNL     1      48.608   3.774  19.614  0.00  0.00    +0.000 N 
ATOM     30  C   UNL     1      48.826   4.489  18.462  0.00  0.00    +0.000 A 
ATOM     31  O   UNL     1      48.825   3.944  17.361  0.00  0.00    +0.000 OA
ATOM     32  C   UNL     1      49.035   5.909  18.664  0.00  0.00    +0.000 A 
ATOM     33  H   UNL     1      48.459   2.782  19.504  0.00  0.00    +0.000 HD
ENDBRANCH  20  23
ENDBRANCH  18  19
ENDBRANCH   4  18
TORSDOF 6
ENDMDL
MODEL 2
REMARK VINA RESULT:    -8.097      3.254      8.629
REMARK INTER + INTRA:         -11.528
REMARK INTER:                  -9.998
REMARK INTRA:                  -1.530
REMARK UNBOUND:                -0.592
REMARK  Name = 
REMARK  7 active torsions:
REMARK  status: ('A' for Active; 'I' for Inactive)
REMARK    1  A    between atoms: C_1  and  C_2
REMARK    2  A    between atoms: C_2  and  C_3
REMARK    3  A    between atoms: C_2  and  N_24
REMARK    4  A    between atoms: C_3  and  C_4
REMARK    5  A    between atoms: C_7  and  C_8
REMARK    6  A    between atoms: C_8  and  N_9
REMARK    7  A    between atoms: C_10  and  C_12
REMARK                            x       y       z     vdW  Elec       q    Type
REMARK                         _______ _______ _______ _____ _____    ______ ____
ROOT
ATOM      1  C   UNL     1      49.157   7.939  15.772  0.00  0.00    +0.000 A 
ATOM      2  C   UNL     1      48.291   8.955  15.369  0.00  0.00    +0.000 A 
ATOM      3  C   UNL     1      47.779   8.940  14.073  0.00  0.00    +0.000 A 
ATOM      4  C   UNL     1      48.134   7.910  13.204  0.00  0.00    +0.000 A 
ATOM      5  C   UNL     1      49.042   6.967  13.676  0.00  0.00    +0.000 A 
ATOM      6  N   UNL     1      49.542   6.948  14.936  0.00  0.00    +0.000 NA
ENDROOT
BRANCH   1   7
ATOM      7  C   UNL     1      49.584   7.880  17.221  0.00  0.00    +0.000 C 
BRANCH   7   9
ATOM      8  C   UNL     1      47.631   8.008  18.893  0.00  0.00    +0.000 C 
ATOM      9  C   UNL     1      48.659   7.119  18.189  0.00  0.00    +0.000 C 
BRANCH   9  10
ATOM     10  N   UNL     1      48.010   5.991  17.522  0.00  0.00    +0.000 N 
ATOM     11  C   UNL     1      48.561   4.754  17.321  0.00  0.00    +0.000 A 
ATOM     12  N   UNL     1      49.774   4.457  17.805  0.00  0.00    +0.000 NA
ATOM     13  C   UNL     1      50.228   3.204  17.625  0.00  0.00    +0.000 A 
ATOM     14  C   UNL     1      49.513   2.227  16.986  0.00  0.00    +0.000 A 
ATOM     15  C   UNL     1      48.288   2.623  16.514  0.00  0.00    +0.000 A 
ATOM     16  N   UNL     1      47.802   3.874  16.657  0.00  0.00    +0.000 NA
ATOM     17  H   UNL     1      47.215   6.161  16.921  0.00  0.00    +0.000 HD
ENDBRANCH   9  10
ENDBRANCH   7   9
ENDBRANCH   1   7
BRANCH   4  18
ATOM     18  C   UNL     1      47.577   7.826  11.815  0.00  0.00    +0.000 C 
BRANCH  18  19
ATOM     19  N   UNL     1      46.883   6.583  11.599  0.00  0.00    +0.000 N 
ATOM     20  C   UNL     1      45.526   6.489  11.761  0.00  0.00    +0.000 C 
ATOM     21  O   UNL     1      44.832   7.463  12.040  0.00  0.00    +0.000 OA
ATOM     22  H   UNL     1      47.443   5.737  11.594  0.00  0.00    +0.000 HD
BRANCH  20  23
ATOM     23  C   UNL     1      44.931   5.165  11.528  0.00  0.00    +0.000 A 
ATOM     24  C   UNL     1      44.228   4.536  12.545  0.00  0.00    +0.000 A 
ATOM     25  S   UNL     1      43.557   3.035  12.086  0.00  0.00    +0.000 S 
ATOM     26  C   UNL     1      44.232   3.148  10.530  0.00  0.00    +0.000 A 
ATOM     27  N   UNL     1      44.056   2.154   9.617  0.00  0.00    +0.000 NA
ATOM     28  C   UNL     1      44.644   2.358   8.487  0.00  0.00    +0.000 A 
ATOM     29  N   UNL     1      45.391   3.467   8.183  0.00  0.00    +0.000 N 
ATOM     30  C   UNL     1      45.574   4.506   9.062  0.00  0.00    +0.000 A 
ATOM     31  O   UNL     1      46.214   5.506   8.747  0.00  0.00    +0.000 OA
ATOM     32  C   UNL     1      44.942   4.321  10.354  0.00  0.00    +0.000 A 
ATOM     33  H   UNL     1      45.820   3.568   7.275  0.00  0.00    +0.000 HD
ENDBRANCH  20  23
ENDBRANCH  18  19
ENDBRANCH   4  18
TORSDOF 6
ENDMDL
MODEL 3
REMARK VINA RESULT:    -7.735      1.710      2.157
REMARK INTER + INTRA:         -11.040
REMARK INTER:                 -10.329
REMARK INTRA:                  -0.711
REMARK UNBOUND:                -0.592
REMARK  Name = 
REMARK  7 active torsions:
REMARK  status: ('A' for Active; 'I' for Inactive)
REMARK    1  A    between atoms: C_1  and  C_2
REMARK    2  A    between atoms: C_2  and  C_3
REMARK    3  A    between atoms: C_2  and  N_24
REMARK    4  A    between atoms: C_3  and  C_4
REMARK    5  A    between atoms: C_7  and  C_8
REMARK    6  A    between atoms: C_8  and  N_9
REMARK    7  A    between atoms: C_10  and  C_12
REMARK                            x       y       z     vdW  Elec       q    Type
REMARK                         _______ _______ _______ _____ _____    ______ ____
ROOT
ATOM      1  C   UNL     1      44.996   5.820  11.107  0.00  0.00    +0.000 A 
ATOM      2  C   UNL     1      46.273   5.452  11.531  0.00  0.00    +0.000 A 
ATOM      3  C   UNL     1      47.004   6.327  12.332  0.00  0.00    +0.000 A 
ATOM      4  C   UNL     1      46.448   7.551  12.701  0.00  0.00    +0.000 A 
ATOM      5  C   UNL     1      45.190   7.854  12.192  0.00  0.00    +0.000 A 
ATOM      6  N   UNL     1      44.449   7.016  11.425  0.00  0.00    +0.000 NA
ENDROOT
BRANCH   1   7
ATOM      7  C   UNL     1      44.154   4.804  10.369  0.00  0.00    +0.000 C 
BRANCH   7   9
ATOM      8  C   UNL     1      44.154   2.305   9.751  0.00  0.00    +0.000 C 
ATOM      9  C   UNL     1      44.902   3.640   9.692  0.00  0.00    +0.000 C 
BRANCH   9  10
ATOM     10  N   UNL     1      45.268   3.977   8.316  0.00  0.00    +0.000 N 
ATOM     11  C   UNL     1      46.140   3.278   7.526  0.00  0.00    +0.000 A 
ATOM     12  N   UNL     1      46.700   2.141   7.961  0.00  0.00    +0.000 NA
ATOM     13  C   UNL     1      47.498   1.473   7.110  0.00  0.00    +0.000 A 
ATOM     14  C   UNL     1      47.757   1.891   5.831  0.00  0.00    +0.000 A 
ATOM     15  C   UNL     1      47.152   3.070   5.477  0.00  0.00    +0.000 A 
ATOM     16  N   UNL     1      46.358   3.781   6.305  0.00  0.00    +0.000 NA
ATOM     17  H   UNL     1      45.105   4.914   7.975  0.00  0.00    +0.000 HD
ENDBRANCH   9  10
ENDBRANCH   7   9
ENDBRANCH   1   7
BRANCH   4  18
ATOM     18  C   UNL     1      47.176   8.507  13.596  0.00  0.00    +0.000 C 
BRANCH  18  19
ATOM     19  N   UNL     1      47.624   7.864  14.804  0.00  0.00    +0.000 N 
ATOM     20  C   UNL     1      48.913   7.423  14.939  0.00  0.00    +0.000 C 
ATOM     21  O   UNL     1      49.760   7.604  14.069  0.00  0.00    +0.000 OA
ATOM     22  H   UNL     1      46.908   7.506  15.428  0.00  0.00    +0.000 HD
BRANCH  20  23
ATOM     23  C   UNL     1      49.249   6.767  16.211  0.00  0.00    +0.000 A 
ATOM     24  C   UNL     1      50.131   7.379  17.091  0.00  0.00    +0.000 A 
ATOM     25  S   UNL     1      50.364   6.510  18.541  0.00  0.00    +0.000 S 
ATOM     26  C   UNL     1      49.340   5.259  18.019  0.00  0.00    +0.000 A 
ATOM     27  N   UNL     1      49.118   4.164  18.797  0.00  0.00    +0.000 NA
ATOM     28  C   UNL     1      48.341   3.281  18.268  0.00  0.00    +0.000 A 
ATOM     29  N   UNL     1      47.761   3.391  17.030  0.00  0.00    +0.000 N 
ATOM     30  C   UNL     1      47.935   4.487  16.221  0.00  0.00    +0.000 A 
ATOM     31  O   UNL     1      47.369   4.576  15.134  0.00  0.00    +0.000 OA
ATOM     32  C   UNL     1      48.810   5.507  16.766  0.00  0.00    +0.000 A 
ATOM     33  H   UNL     1      47.156   2.665  16.676  0.00  0.00    +0.000 HD
ENDBRANCH  20  23
ENDBRANCH  18  19
ENDBRANCH   4  18
TORSDOF 6
ENDMDL
MODEL 4
REMARK VINA RESULT:    -7.647      3.456      4.614
REMARK INTER + INTRA:         -10.921
REMARK INTER:                  -9.929
REMARK INTRA:                  -0.991
REMARK UNBOUND:                -0.592
REMARK  Name = 
REMARK  7 active torsions:
REMARK  status: ('A' for Active; 'I' for Inactive)
REMARK    1  A    between atoms: C_1  and  C_2
REMARK    2  A    between atoms: C_2  and  C_3
REMARK    3  A    between atoms: C_2  and  N_24
REMARK    4  A    between atoms: C_3  and  C_4
REMARK    5  A    between atoms: C_7  and  C_8
REMARK    6  A    between atoms: C_8  and  N_9
REMARK    7  A    between atoms: C_10  and  C_12
REMARK                            x       y       z     vdW  Elec       q    Type
REMARK                         _______ _______ _______ _____ _____    ______ ____
ROOT
ATOM      1  C   UNL     1      47.496   5.719  14.175  0.00  0.00    +0.000 A 
ATOM      2  C   UNL     1      48.278   6.240  15.205  0.00  0.00    +0.000 A 
ATOM      3  C   UNL     1      48.456   5.496  16.370  0.00  0.00    +0.000 A 
ATOM      4  C   UNL     1      47.856   4.243  16.485  0.00  0.00    +0.000 A 
ATOM      5  C   UNL     1      47.054   3.825  15.429  0.00  0.00    +0.000 A 
ATOM      6  N   UNL     1      46.877   4.520  14.278  0.00  0.00    +0.000 NA
ENDROOT
BRANCH   1   7
ATOM      7  C   UNL     1      47.435   6.462  12.860  0.00  0.00    +0.000 C 
BRANCH   7   9
ATOM      8  C   UNL     1      45.375   7.947  12.438  0.00  0.00    +0.000 C 
ATOM      9  C   UNL     1      46.050   6.594  12.198  0.00  0.00    +0.000 C 
BRANCH   9  10
ATOM     10  N   UNL     1      46.116   6.285  10.770  0.00  0.00    +0.000 N 
ATOM     11  C   UNL     1      45.619   5.159  10.171  0.00  0.00    +0.000 A 
ATOM     12  N   UNL     1      44.946   4.244  10.882  0.00  0.00    +0.000 NA
ATOM     13  C   UNL     1      44.432   3.194  10.218  0.00  0.00    +0.000 A 
ATOM     14  C   UNL     1      44.554   3.022   8.865  0.00  0.00    +0.000 A 
ATOM     15  C   UNL     1      45.268   4.000   8.222  0.00  0.00    +0.000 A 
ATOM     16  N   UNL     1      45.816   5.061   8.851  0.00  0.00    +0.000 NA
ATOM     17  H   UNL     1      46.789   6.765  10.189  0.00  0.00    +0.000 HD
ENDBRANCH   9  10
ENDBRANCH   7   9
ENDBRANCH   1   7
BRANCH   4  18
ATOM     18  C   UNL     1      48.052   3.387  17.699  0.00  0.00    +0.000 C 
BRANCH  18  19
ATOM     19  N   UNL     1      49.447   3.126  17.942  0.00  0.00    +0.000 N 
ATOM     20  C   UNL     1      50.147   2.230  17.178  0.00  0.00    +0.000 C 
ATOM     21  O   UNL     1      49.640   1.654  16.219  0.00  0.00    +0.000 OA
ATOM     22  H   UNL     1      49.819   3.407  18.844  0.00  0.00    +0.000 HD
BRANCH  20  23
ATOM     23  C   UNL     1      51.561   2.035  17.530  0.00  0.00    +0.000 A 
ATOM     24  C   UNL     1      52.057   0.751  17.704  0.00  0.00    +0.000 A 
ATOM     25  S   UNL     1      53.727   0.705  18.053  0.00  0.00    +0.000 S 
ATOM     26  C   UNL     1      53.832   2.402  18.040  0.00  0.00    +0.000 A 
ATOM     27  N   UNL     1      55.010   3.033  18.298  0.00  0.00    +0.000 NA
ATOM     28  C   UNL     1      54.940   4.320  18.281  0.00  0.00    +0.000 A 
ATOM     29  N   UNL     1      53.800   5.039  18.027  0.00  0.00    +0.000 N 
ATOM     30  C   UNL     1      52.596   4.446  17.737  0.00  0.00    +0.000 A 
ATOM     31  O   UNL     1      51.600   5.116  17.473  0.00  0.00    +0.000 OA
ATOM     32  C   UNL     1      52.617   2.996  17.754  0.00  0.00    +0.000 A 
ATOM     33  H   UNL     1      53.815   6.048  18.022  0.00  0.00    +0.000 HD
ENDBRANCH  20  23
ENDBRANCH  18  19
ENDBRANCH   4  18
TORSDOF 6
ENDMDL
MODEL 5
REMARK VINA RESULT:    -7.439      1.947      3.111
REMARK INTER + INTRA:         -10.640
REMARK INTER:                  -9.775
REMARK INTRA:                  -0.865
REMARK UNBOUND:                -0.592
REMARK  Name = 
REMARK  7 active torsions:
REMARK  status: ('A' for Active; 'I' for Inactive)
REMARK    1  A    between atoms: C_1  and  C_2
REMARK    2  A    between atoms: C_2  and  C_3
REMARK    3  A    between atoms: C_2  and  N_24
REMARK    4  A    between atoms: C_3  and  C_4
REMARK    5  A    between atoms: C_7  and  C_8
REMARK    6  A    between atoms: C_8  and  N_9
REMARK    7  A    between atoms: C_10  and  C_12
REMARK                            x       y       z     vdW  Elec       q    Type
REMARK                         _______ _______ _______ _____ _____    ______ ____
ROOT
ATOM      1  C   UNL     1      46.138   5.534  12.254  0.00  0.00    +0.000 A 
ATOM      2  C   UNL     1      47.007   6.425  12.885  0.00  0.00    +0.000 A 
ATOM      3  C   UNL     1      47.528   6.099  14.135  0.00  0.00    +0.000 A 
ATOM      4  C   UNL     1      47.178   4.889  14.733  0.00  0.00    +0.000 A 
ATOM      5  C   UNL     1      46.269   4.086  14.054  0.00  0.00    +0.000 A 
ATOM      6  N   UNL     1      45.759   4.370  12.829  0.00  0.00    +0.000 NA
ENDROOT
BRANCH   1   7
ATOM      7  C   UNL     1      45.701   5.826  10.836  0.00  0.00    +0.000 C 
BRANCH   7   9
ATOM      8  C   UNL     1      43.555   4.585  10.140  0.00  0.00    +0.000 C 
ATOM      9  C   UNL     1      45.082   4.659  10.045  0.00  0.00    +0.000 C 
BRANCH   9  10
ATOM     10  N   UNL     1      45.521   4.675   8.650  0.00  0.00    +0.000 N 
ATOM     11  C   UNL     1      46.054   3.616   7.966  0.00  0.00    +0.000 A 
ATOM     12  N   UNL     1      46.156   2.410   8.540  0.00  0.00    +0.000 NA
ATOM     13  C   UNL     1      46.631   1.400   7.790  0.00  0.00    +0.000 A 
ATOM     14  C   UNL     1      47.003   1.542   6.479  0.00  0.00    +0.000 A 
ATOM     15  C   UNL     1      46.875   2.813   5.979  0.00  0.00    +0.000 A 
ATOM     16  N   UNL     1      46.420   3.858   6.701  0.00  0.00    +0.000 NA
ATOM     17  H   UNL     1      45.713   5.559   8.200  0.00  0.00    +0.000 HD
ENDBRANCH   9  10
ENDBRANCH   7   9
ENDBRANCH   1   7
BRANCH   4  18
ATOM     18  C   UNL     1      47.745   4.474  16.056  0.00  0.00    +0.000 C 
BRANCH  18  19
ATOM     19  N   UNL     1      47.705   5.552  17.010  0.00  0.00    +0.000 N 
ATOM     20  C   UNL     1      48.847   6.203  17.395  0.00  0.00    +0.000 C 
ATOM     21  O   UNL     1      49.944   5.942  16.909  0.00  0.00    +0.000 OA
ATOM     22  H   UNL     1      46.871   5.631  17.582  0.00  0.00    +0.000 HD
BRANCH  20  23
ATOM     23  C   UNL     1      48.684   7.276  18.387  0.00  0.00    +0.000 A 
ATOM     24  C   UNL     1      48.811   6.991  19.739  0.00  0.00    +0.000 A 
ATOM     25  S   UNL     1      48.648   8.359  20.745  0.00  0.00    +0.000 S 
ATOM     26  C   UNL     1      48.345   9.370  19.413  0.00  0.00    +0.000 A 
ATOM     27  N   UNL     1      48.092  10.697  19.583  0.00  0.00    +0.000 NA
ATOM     28  C   UNL     1      47.854  11.339  18.490  0.00  0.00    +0.000 A 
ATOM     29  N   UNL     1      47.848  10.778  17.238  0.00  0.00    +0.000 N 
ATOM     30  C   UNL     1      48.123   9.451  17.015  0.00  0.00    +0.000 A 
ATOM     31  O   UNL     1      48.151   8.985  15.879  0.00  0.00    +0.000 OA
ATOM     32  C   UNL     1      48.387   8.680  18.215  0.00  0.00    +0.000 A 
ATOM     33  H   UNL     1      47.660  11.339  16.421  0.00  0.00    +0.000 HD
ENDBRANCH  20  23
ENDBRANCH  18  19
ENDBRANCH   4  18
TORSDOF 6
ENDMDL
MODEL 6
REMARK VINA RESULT:    -6.827      3.431      7.918
REMARK INTER + INTRA:          -9.814
REMARK INTER:                  -7.977
REMARK INTRA:                  -1.837
REMARK UNBOUND:                -0.592
REMARK  Name = 
REMARK  7 active torsions:
REMARK  status: ('A' for Active; 'I' for Inactive)
REMARK    1  A    between atoms: C_1  and  C_2
REMARK    2  A    between atoms: C_2  and  C_3
REMARK    3  A    between atoms: C_2  and  N_24
REMARK    4  A    between atoms: C_3  and  C_4
REMARK    5  A    between atoms: C_7  and  C_8
REMARK    6  A    between atoms: C_8  and  N_9
REMARK    7  A    between atoms: C_10  and  C_12
REMARK                            x       y       z     vdW  Elec       q    Type
REMARK                         _______ _______ _______ _____ _____    ______ ____
ROOT
ATOM      1  C   UNL     1      50.470   8.106  15.914  0.00  0.00    +0.000 A 
ATOM      2  C   UNL     1      49.953   9.390  15.744  0.00  0.00    +0.000 A 
ATOM      3  C   UNL     1      49.270   9.701  14.570  0.00  0.00    +0.000 A 
ATOM      4  C   UNL     1      49.109   8.725  13.588  0.00  0.00    +0.000 A 
ATOM      5  C   UNL     1      49.700   7.488  13.821  0.00  0.00    +0.000 A 
ATOM      6  N   UNL     1      50.354   7.153  14.961  0.00  0.00    +0.000 NA
ENDROOT
BRANCH   1   7
ATOM      7  C   UNL     1      51.072   7.734  17.250  0.00  0.00    +0.000 C 
BRANCH   7   9
ATOM      8  C   UNL     1      49.599   8.036  19.340  0.00  0.00    +0.000 C 
ATOM      9  C   UNL     1      50.135   7.072  18.277  0.00  0.00    +0.000 C 
BRANCH   9  10
ATOM     10  N   UNL     1      49.042   6.362  17.613  0.00  0.00    +0.000 N 
ATOM     11  C   UNL     1      49.009   5.022  17.337  0.00  0.00    +0.000 A 
ATOM     12  N   UNL     1      50.003   4.215  17.735  0.00  0.00    +0.000 NA
ATOM     13  C   UNL     1      49.876   2.900  17.485  0.00  0.00    +0.000 A 
ATOM     14  C   UNL     1      48.789   2.351  16.858  0.00  0.00    +0.000 A 
ATOM     15  C   UNL     1      47.828   3.252  16.477  0.00  0.00    +0.000 A 
ATOM     16  N   UNL     1      47.922   4.581  16.691  0.00  0.00    +0.000 NA
ATOM     17  H   UNL     1      48.370   6.884  17.068  0.00  0.00    +0.000 HD
ENDBRANCH   9  10
ENDBRANCH   7   9
ENDBRANCH   1   7
BRANCH   4  18
ATOM     18  C   UNL     1      48.346   8.998  12.327  0.00  0.00    +0.000 C 
BRANCH  18  19
ATOM     19  N   UNL     1      47.395   7.954  12.050  0.00  0.00    +0.000 N 
ATOM     20  C   UNL     1      46.111   8.017  12.523  0.00  0.00    +0.000 C 
ATOM     21  O   UNL     1      45.694   8.986  13.153  0.00  0.00    +0.000 OA
ATOM     22  H   UNL     1      47.766   7.062  11.738  0.00  0.00    +0.000 HD
BRANCH  20  23
ATOM     23  C   UNL     1      45.235   6.885  12.189  0.00  0.00    +0.000 A 
ATOM     24  C   UNL     1      44.023   7.115  11.553  0.00  0.00    +0.000 A 
ATOM     25  S   UNL     1      43.160   5.689  11.189  0.00  0.00    +0.000 S 
ATOM     26  C   UNL     1      44.349   4.719  11.918  0.00  0.00    +0.000 A 
ATOM     27  N   UNL     1      44.212   3.365  11.975  0.00  0.00    +0.000 NA
ATOM     28  C   UNL     1      45.174   2.756  12.580  0.00  0.00    +0.000 A 
ATOM     29  N   UNL     1      46.267   3.374  13.133  0.00  0.00    +0.000 N 
ATOM     30  C   UNL     1      46.461   4.733  13.076  0.00  0.00    +0.000 A 
ATOM     31  O   UNL     1      47.470   5.255  13.544  0.00  0.00    +0.000 OA
ATOM     32  C   UNL     1      45.400   5.467  12.416  0.00  0.00    +0.000 A 
ATOM     33  H   UNL     1      46.990   2.837  13.586  0.00  0.00    +0.000 HD
ENDBRANCH  20  23
ENDBRANCH  18  19
ENDBRANCH   4  18
TORSDOF 6
ENDMDL
MODEL 7
REMARK VINA RESULT:    -6.656      3.825      9.268
REMARK INTER + INTRA:          -9.583
REMARK INTER:                  -8.381
REMARK INTRA:                  -1.201
REMARK UNBOUND:                -0.592
REMARK  Name = 
REMARK  7 active torsions:
REMARK  status: ('A' for Active; 'I' for Inactive)
REMARK    1  A    between atoms: C_1  and  C_2
REMARK    2  A    between atoms: C_2  and  C_3
REMARK    3  A    between atoms: C_2  and  N_24
REMARK    4  A    between atoms: C_3  and  C_4
REMARK    5  A    between atoms: C_7  and  C_8
REMARK    6  A    between atoms: C_8  and  N_9
REMARK    7  A    between atoms: C_10  and  C_12
REMARK                            x       y       z     vdW  Elec       q    Type
REMARK                         _______ _______ _______ _____ _____    ______ ____
ROOT
ATOM      1  C   UNL     1      50.317   8.607  12.845  0.00  0.00    +0.000 A 
ATOM      2  C   UNL     1      49.529   9.755  12.757  0.00  0.00    +0.000 A 
ATOM      3  C   UNL     1      48.156   9.627  12.557  0.00  0.00    +0.000 A 
ATOM      4  C   UNL     1      47.591   8.357  12.453  0.00  0.00    +0.000 A 
ATOM      5  C   UNL     1      48.459   7.271  12.503  0.00  0.00    +0.000 A 
ATOM      6  N   UNL     1      49.795   7.366  12.713  0.00  0.00    +0.000 NA
ENDROOT
BRANCH   1   7
ATOM      7  C   UNL     1      51.776   8.753  13.214  0.00  0.00    +0.000 C 
BRANCH   7   9
ATOM      8  C   UNL     1      52.507   9.615  15.527  0.00  0.00    +0.000 C 
ATOM      9  C   UNL     1      52.166   8.399  14.661  0.00  0.00    +0.000 C 
BRANCH   9  10
ATOM     10  N   UNL     1      51.142   7.571  15.296  0.00  0.00    +0.000 N 
ATOM     11  C   UNL     1      51.373   6.505  16.124  0.00  0.00    +0.000 A 
ATOM     12  N   UNL     1      52.621   6.169  16.477  0.00  0.00    +0.000 NA
ATOM     13  C   UNL     1      52.773   5.150  17.341  0.00  0.00    +0.000 A 
ATOM     14  C   UNL     1      51.723   4.454  17.879  0.00  0.00    +0.000 A 
ATOM     15  C   UNL     1      50.484   4.859  17.453  0.00  0.00    +0.000 A 
ATOM     16  N   UNL     1      50.287   5.864  16.573  0.00  0.00    +0.000 NA
ATOM     17  H   UNL     1      50.201   7.574  14.927  0.00  0.00    +0.000 HD
ENDBRANCH   9  10
ENDBRANCH   7   9
ENDBRANCH   1   7
BRANCH   4  18
ATOM     18  C   UNL     1      46.115   8.165  12.281  0.00  0.00    +0.000 C 
BRANCH  18  19
ATOM     19  N   UNL     1      45.792   6.795  11.978  0.00  0.00    +0.000 N 
ATOM     20  C   UNL     1      44.551   6.442  11.517  0.00  0.00    +0.000 C 
ATOM     21  O   UNL     1      43.679   7.275  11.286  0.00  0.00    +0.000 OA
ATOM     22  H   UNL     1      46.399   6.081  12.368  0.00  0.00    +0.000 HD
BRANCH  20  23
ATOM     23  C   UNL     1      44.333   5.011  11.259  0.00  0.00    +0.000 A 
ATOM     24  C   UNL     1      43.602   4.251  12.160  0.00  0.00    +0.000 A 
ATOM     25  S   UNL     1      43.398   2.627  11.678  0.00  0.00    +0.000 S 
ATOM     26  C   UNL     1      44.328   2.870  10.276  0.00  0.00    +0.000 A 
ATOM     27  N   UNL     1      44.571   1.847   9.411  0.00  0.00    +0.000 NA
ATOM     28  C   UNL     1      45.312   2.165   8.405  0.00  0.00    +0.000 A 
ATOM     29  N   UNL     1      45.833   3.414   8.179  0.00  0.00    +0.000 N 
ATOM     30  C   UNL     1      45.592   4.481   9.009  0.00  0.00    +0.000 A 
ATOM     31  O   UNL     1      46.038   5.599   8.760  0.00  0.00    +0.000 OA
ATOM     32  C   UNL     1      44.772   4.174  10.165  0.00  0.00    +0.000 A 
ATOM     33  H   UNL     1      46.401   3.598   7.366  0.00  0.00    +0.000 HD
ENDBRANCH  20  23
ENDBRANCH  18  19
ENDBRANCH   4  18
TORSDOF 6
ENDMDL
MODEL 8
REMARK VINA RESULT:    -6.613      5.166      7.481
REMARK INTER + INTRA:          -9.524
REMARK INTER:                  -8.502
REMARK INTRA:                  -1.021
REMARK UNBOUND:                -0.592
REMARK  Name = 
REMARK  7 active torsions:
REMARK  status: ('A' for Active; 'I' for Inactive)
REMARK    1  A    between atoms: C_1  and  C_2
REMARK    2  A    between atoms: C_2  and  C_3
REMARK    3  A    between atoms: C_2  and  N_24
REMARK    4  A    between atoms: C_3  and  C_4
REMARK    5  A    between atoms: C_7  and  C_8
REMARK    6  A    between atoms: C_8  and  N_9
REMARK    7  A    between atoms: C_10  and  C_12
REMARK                            x       y       z     vdW  Elec       q    Type
REMARK                         _______ _______ _______ _____ _____    ______ ____
ROOT
ATOM      1  C   UNL     1      45.587   7.420  12.161  0.00  0.00    +0.000 A 
ATOM      2  C   UNL     1      45.575   8.810  12.279  0.00  0.00    +0.000 A 
ATOM      3  C   UNL     1      46.783   9.497  12.371  0.00  0.00    +0.000 A 
ATOM      4  C   UNL     1      47.983   8.789  12.338  0.00  0.00    +0.000 A 
ATOM      5  C   UNL     1      47.898   7.402  12.268  0.00  0.00    +0.000 A 
ATOM      6  N   UNL     1      46.738   6.709  12.160  0.00  0.00    +0.000 NA
ENDROOT
BRANCH   1   7
ATOM      7  C   UNL     1      44.282   6.699  11.909  0.00  0.00    +0.000 C 
BRANCH   7   9
ATOM      8  C   UNL     1      43.024   4.597  11.117  0.00  0.00    +0.000 C 
ATOM      9  C   UNL     1      44.368   5.324  11.221  0.00  0.00    +0.000 C 
BRANCH   9  10
ATOM     10  N   UNL     1      45.012   5.428   9.912  0.00  0.00    +0.000 N 
ATOM     11  C   UNL     1      45.462   4.379   9.156  0.00  0.00    +0.000 A 
ATOM     12  N   UNL     1      45.276   3.114   9.557  0.00  0.00    +0.000 NA
ATOM     13  C   UNL     1      45.688   2.132   8.736  0.00  0.00    +0.000 A 
ATOM     14  C   UNL     1      46.273   2.361   7.519  0.00  0.00    +0.000 A 
ATOM     15  C   UNL     1      46.434   3.685   7.196  0.00  0.00    +0.000 A 
ATOM     16  N   UNL     1      46.051   4.701   7.998  0.00  0.00    +0.000 NA
ATOM     17  H   UNL     1      45.412   6.310   9.624  0.00  0.00    +0.000 HD
ENDBRANCH   9  10
ENDBRANCH   7   9
ENDBRANCH   1   7
BRANCH   4  18
ATOM     18  C   UNL     1      49.308   9.485  12.390  0.00  0.00    +0.000 C 
BRANCH  18  19
ATOM     19  N   UNL     1      50.150   9.103  11.286  0.00  0.00    +0.000 N 
ATOM     20  C   UNL     1      51.380   8.536  11.492  0.00  0.00    +0.000 C 
ATOM     21  O   UNL     1      51.798   8.274  12.616  0.00  0.00    +0.000 OA
ATOM     22  H   UNL     1      49.934   9.508  10.380  0.00  0.00    +0.000 HD
BRANCH  20  23
ATOM     23  C   UNL     1      52.155   8.203  10.288  0.00  0.00    +0.000 A 
ATOM     24  C   UNL     1      52.528   6.888  10.050  0.00  0.00    +0.000 A 
ATOM     25  S   UNL     1      53.372   6.672   8.583  0.00  0.00    +0.000 S 
ATOM     26  C   UNL     1      53.318   8.336   8.243  0.00  0.00    +0.000 A 
ATOM     27  N   UNL     1      53.895   8.841   7.118  0.00  0.00    +0.000 NA
ATOM     28  C   UNL     1      53.802  10.122   6.999  0.00  0.00    +0.000 A 
ATOM     29  N   UNL     1      53.181  10.948   7.901  0.00  0.00    +0.000 N 
ATOM     30  C   UNL     1      52.563  10.482   9.035  0.00  0.00    +0.000 A 
ATOM     31  O   UNL     1      51.979  11.241   9.804  0.00  0.00    +0.000 OA
ATOM     32  C   UNL     1      52.649   9.046   9.223  0.00  0.00    +0.000 A 
ATOM     33  H   UNL     1      53.137  11.944   7.745  0.00  0.00    +0.000 HD
ENDBRANCH  20  23
ENDBRANCH  18  19
ENDBRANCH   4  18
TORSDOF 6
ENDMDL
MODEL 9
REMARK VINA RESULT:    -6.547      5.177      8.645
REMARK INTER + INTRA:          -9.435
REMARK INTER:                  -8.847
REMARK INTRA:                  -0.588
REMARK UNBOUND:                -0.592
REMARK  Name = 
REMARK  7 active torsions:
REMARK  status: ('A' for Active; 'I' for Inactive)
REMARK    1  A    between atoms: C_1  and  C_2
REMARK    2  A    between atoms: C_2  and  C_3
REMARK    3  A    between atoms: C_2  and  N_24
REMARK    4  A    between atoms: C_3  and  C_4
REMARK    5  A    between atoms: C_7  and  C_8
REMARK    6  A    between atoms: C_8  and  N_9
REMARK    7  A    between atoms: C_10  and  C_12
REMARK                            x       y       z     vdW  Elec       q    Type
REMARK                         _______ _______ _______ _____ _____    ______ ____
ROOT
ATOM      1  C   UNL     1      50.067   9.136  11.646  0.00  0.00    +0.000 A 
ATOM      2  C   UNL     1      49.592   7.847  11.405  0.00  0.00    +0.000 A 
ATOM      3  C   UNL     1      48.328   7.488  11.869  0.00  0.00    +0.000 A 
ATOM      4  C   UNL     1      47.557   8.422  12.560  0.00  0.00    +0.000 A 
ATOM      5  C   UNL     1      48.131   9.666  12.797  0.00  0.00    +0.000 A 
ATOM      6  N   UNL     1      49.350  10.048  12.343  0.00  0.00    +0.000 NA
ENDROOT
BRANCH   1   7
ATOM      7  C   UNL     1      51.370   9.563  11.008  0.00  0.00    +0.000 C 
BRANCH   7   9
ATOM      8  C   UNL     1      52.653   9.199  13.210  0.00  0.00    +0.000 C 
ATOM      9  C   UNL     1      52.667   9.079  11.684  0.00  0.00    +0.000 C 
BRANCH   9  10
ATOM     10  N   UNL     1      53.004   7.719  11.265  0.00  0.00    +0.000 N 
ATOM     11  C   UNL     1      53.101   7.280   9.973  0.00  0.00    +0.000 A 
ATOM     12  N   UNL     1      52.945   8.127   8.947  0.00  0.00    +0.000 NA
ATOM     13  C   UNL     1      53.114   7.640   7.704  0.00  0.00    +0.000 A 
ATOM     14  C   UNL     1      53.443   6.337   7.442  0.00  0.00    +0.000 A 
ATOM     15  C   UNL     1      53.570   5.540   8.551  0.00  0.00    +0.000 A 
ATOM     16  N   UNL     1      53.392   5.982   9.814  0.00  0.00    +0.000 NA
ATOM     17  H   UNL     1      52.908   6.959  11.924  0.00  0.00    +0.000 HD
ENDBRANCH   9  10
ENDBRANCH   7   9
ENDBRANCH   1   7
BRANCH   4  18
ATOM     18  C   UNL     1      46.176   8.098  13.042  0.00  0.00    +0.000 C 
BRANCH  18  19
ATOM     19  N   UNL     1      45.781   6.767  12.660  0.00  0.00    +0.000 N 
ATOM     20  C   UNL     1      44.784   6.556  11.745  0.00  0.00    +0.000 C 
ATOM     21  O   UNL     1      44.221   7.481  11.167  0.00  0.00    +0.000 OA
ATOM     22  H   UNL     1      46.062   6.009  13.273  0.00  0.00    +0.000 HD
BRANCH  20  23
ATOM     23  C   UNL     1      44.458   5.154  11.446  0.00  0.00    +0.000 A 
ATOM     24  C   UNL     1      43.722   4.408  12.356  0.00  0.00    +0.000 A 
ATOM     25  S   UNL     1      43.386   2.821  11.826  0.00  0.00    +0.000 S 
ATOM     26  C   UNL     1      44.260   3.058  10.388  0.00  0.00    +0.000 A 
ATOM     27  N   UNL     1      44.391   2.057   9.475  0.00  0.00    +0.000 NA
ATOM     28  C   UNL     1      45.101   2.365   8.443  0.00  0.00    +0.000 A 
ATOM     29  N   UNL     1      45.692   3.585   8.237  0.00  0.00    +0.000 N 
ATOM     30  C   UNL     1      45.566   4.632   9.116  0.00  0.00    +0.000 A 
ATOM     31  O   UNL     1      46.072   5.727   8.885  0.00  0.00    +0.000 OA
ATOM     32  C   UNL     1      44.785   4.334  10.301  0.00  0.00    +0.000 A 
ATOM     33  H   UNL     1      46.231   3.764   7.403  0.00  0.00    +0.000 HD
ENDBRANCH  20  23
ENDBRANCH  18  19
ENDBRANCH   4  18
TORSDOF 6
ENDMDL
