MODEL 1
REMARK VINA RESULT:    -8.339      0.000      0.000
REMARK INTER + INTRA:         -12.014
REMARK INTER:                 -11.264
REMARK INTRA:                  -0.750
REMARK UNBOUND:                -0.750
REMARK  Name = 
REMARK  7 active torsions:
REMARK  status: ('A' for Active; 'I' for Inactive)
REMARK    1  A    between atoms: C_1  and  C_2
REMARK    2  A    between atoms: C_5  and  N_6
REMARK    3  A    between atoms: N_6  and  C_7
REMARK    4  A    between atoms: C_7  and  C_8
REMARK    5  A    between atoms: C_8  and  C_11
REMARK    6  A    between atoms: C_15  and  C_16
REMARK    7  A    between atoms: C_16  and  C_17
REMARK                            x       y       z     vdW  Elec       q    Type
REMARK                         _______ _______ _______ _____ _____    ______ ____
ROOT
ATOM      1  C   UNL     1      43.484   5.508  12.045  0.00  0.00    +0.000 C 
ATOM      2  F   UNL     1      43.065   6.671  11.446  0.00  0.00    +0.000 F 
ATOM      3  F   UNL     1      42.555   5.268  13.021  0.00  0.00    +0.000 F 
ENDROOT
BRANCH   1   4
ATOM      4  C   UNL     1      44.876   5.650  12.627  0.00  0.00    +0.000 A 
ATOM      5  C   UNL     1      45.600   6.840  12.477  0.00  0.00    +0.000 A 
ATOM      6  C   UNL     1      46.850   6.987  13.079  0.00  0.00    +0.000 A 
ATOM      7  C   UNL     1      47.388   5.952  13.851  0.00  0.00    +0.000 A 
ATOM      8  C   UNL     1      46.677   4.760  14.027  0.00  0.00    +0.000 A 
ATOM      9  C   UNL     1      45.436   4.609  13.388  0.00  0.00    +0.000 A 
BRANCH   8  10
ATOM     10  C   UNL     1      47.173   3.689  14.972  0.00  0.00    +0.000 C 
BRANCH  10  11
ATOM     11  C   UNL     1      47.406   4.210  16.386  0.00  0.00    +0.000 C 
ATOM     12  C   UNL     1      48.759   3.944  17.091  0.00  0.00    +0.000 C 
ATOM     13  C   UNL     1      47.915   3.510  18.298  0.00  0.00    +0.000 C 
ATOM     14  N   UNL     1      46.780   3.296  17.384  0.00  0.00    +0.000 NA
ATOM     15  H   UNL     1      45.876   3.599  17.742  0.00  0.00    +0.000 HD
ENDBRANCH  10  11
ENDBRANCH   8  10
ENDBRANCH   1   4
BRANCH   1  16
ATOM     16  C   UNL     1      43.388   4.382  10.984  0.00  0.00    +0.000 C 
BRANCH  16  17
ATOM     17  N   UNL     1      43.860   4.850   9.663  0.00  0.00    +0.000 N 
ATOM     18  H   UNL     1      44.254   5.787   9.704  0.00  0.00    +0.000 HD
BRANCH  17  23
ATOM     19  C   UNL     1      47.355   1.228   7.191  0.00  0.00    +0.000 C 
ATOM     20  C   UNL     1      46.391   2.190   7.805  0.00  0.00    +0.000 A 
ATOM     21  C   UNL     1      46.398   3.540   7.479  0.00  0.00    +0.000 A 
ATOM     22  N   UNL     1      45.568   4.451   8.048  0.00  0.00    +0.000 NA
ATOM     23  C   UNL     1      44.704   3.979   8.969  0.00  0.00    +0.000 A 
ATOM     24  C   UNL     1      44.701   2.617   9.289  0.00  0.00    +0.000 A 
ATOM     25  N   UNL     1      45.525   1.702   8.721  0.00  0.00    +0.000 NA
ENDBRANCH  17  23
ENDBRANCH  16  17
ENDBRANCH   1  16
TORSDOF 6
ENDMDL
MODEL 2
REMARK VINA RESULT:    -7.659      2.314      4.454
REMARK INTER + INTRA:         -11.096
REMARK INTER:                 -10.249
REMARK INTRA:                  -0.847
REMARK UNBOUND:                -0.750
REMARK  Name = 
REMARK  7 active torsions:
REMARK  status: ('A' for Active; 'I' for Inactive)
REMARK    1  A    between atoms: C_1  and  C_2
REMARK    2  A    between atoms: C_5  and  N_6
REMARK    3  A    between atoms: N_6  and  C_7
REMARK    4  A    between atoms: C_7  and  C_8
REMARK    5  A    between atoms: C_8  and  C_11
REMARK    6  A    between atoms: C_15  and  C_16
REMARK    7  A    between atoms: C_16  and  C_17
REMARK                            x       y       z     vdW  Elec       q    Type
REMARK                         _______ _______ _______ _____ _____    ______ ____
ROOT
ATOM      1  C   UNL     1      43.433   4.573  12.750  0.00  0.00    +0.000 C 
ATOM      2  F   UNL     1      42.365   5.367  13.091  0.00  0.00    +0.000 F 
ATOM      3  F   UNL     1      43.314   3.471  13.554  0.00  0.00    +0.000 F 
ENDROOT
BRANCH   1   4
ATOM      4  C   UNL     1      44.752   5.284  12.976  0.00  0.00    +0.000 A 
ATOM      5  C   UNL     1      45.861   4.596  13.486  0.00  0.00    +0.000 A 
ATOM      6  C   UNL     1      47.092   5.241  13.620  0.00  0.00    +0.000 A 
ATOM      7  C   UNL     1      47.233   6.578  13.236  0.00  0.00    +0.000 A 
ATOM      8  C   UNL     1      46.143   7.282  12.712  0.00  0.00    +0.000 A 
ATOM      9  C   UNL     1      44.901   6.633  12.613  0.00  0.00    +0.000 A 
BRANCH   8  10
ATOM     10  C   UNL     1      46.311   8.678  12.157  0.00  0.00    +0.000 C 
BRANCH  10  11
ATOM     11  C   UNL     1      45.026   9.497  12.218  0.00  0.00    +0.000 C 
ATOM     12  C   UNL     1      44.199   9.729  10.929  0.00  0.00    +0.000 C 
ATOM     13  C   UNL     1      44.160  11.203  11.356  0.00  0.00    +0.000 C 
ATOM     14  N   UNL     1      45.341  10.954  12.201  0.00  0.00    +0.000 NA
ATOM     15  H   UNL     1      45.322  11.412  13.110  0.00  0.00    +0.000 HD
ENDBRANCH  10  11
ENDBRANCH   8  10
ENDBRANCH   1   4
BRANCH   1  16
ATOM     16  C   UNL     1      43.231   4.134  11.278  0.00  0.00    +0.000 C 
BRANCH  16  17
ATOM     17  N   UNL     1      44.046   2.941  10.958  0.00  0.00    +0.000 N 
ATOM     18  H   UNL     1      43.498   2.085  10.974  0.00  0.00    +0.000 HD
BRANCH  17  23
ATOM     19  C   UNL     1      46.899   3.452   6.158  0.00  0.00    +0.000 C 
ATOM     20  C   UNL     1      46.187   3.314   7.464  0.00  0.00    +0.000 A 
ATOM     21  C   UNL     1      45.985   2.074   8.058  0.00  0.00    +0.000 A 
ATOM     22  N   UNL     1      45.306   1.904   9.220  0.00  0.00    +0.000 NA
ATOM     23  C   UNL     1      44.821   3.021   9.799  0.00  0.00    +0.000 A 
ATOM     24  C   UNL     1      45.031   4.265   9.195  0.00  0.00    +0.000 A 
ATOM     25  N   UNL     1      45.712   4.442   8.036  0.00  0.00    +0.000 NA
ENDBRANCH  17  23
ENDBRANCH  16  17
ENDBRANCH   1  16
TORSDOF 6
ENDMDL
MODEL 3
REMARK VINA RESULT:    -7.601      1.978      2.653
REMARK INTER + INTRA:         -11.017
REMARK INTER:                 -10.266
REMARK INTRA:                  -0.751
REMARK UNBOUND:                -0.750
REMARK  Name = 
REMARK  7 active torsions:
REMARK  status: ('A' for Active; 'I' for Inactive)
REMARK    1  A    between atoms: C_1  and  C_2
REMARK    2  A    between atoms: C_5  and  N_6
REMARK    3  A    between atoms: N_6  and  C_7
REMARK    4  A    between atoms: C_7  and  C_8
REMARK    5  A    between atoms: C_8  and  C_11
REMARK    6  A    between atoms: C_15  and  C_16
REMARK    7  A    between atoms: C_16  and  C_17
REMARK                            x       y       z     vdW  Elec       q    Type
REMARK                         _______ _______ _______ _____ _____    ______ ____
ROOT
ATOM      1  C   UNL     1      44.491   4.018  12.214  0.00  0.00    +0.000 C 
ATOM      2  F   UNL     1      43.555   4.012  13.220  0.00  0.00    +0.000 F 
ATOM      3  F   UNL     1      45.350   3.000  12.536  0.00  0.00    +0.000 F 
ENDROOT
BRANCH   1   4
ATOM      4  C   UNL     1      45.213   5.347  12.131  0.00  0.00    +0.000 A 
ATOM      5  C   UNL     1      44.526   6.517  11.780  0.00  0.00    +0.000 A 
ATOM      6  C   UNL     1      45.183   7.748  11.778  0.00  0.00    +0.000 A 
ATOM      7  C   UNL     1      46.531   7.829  12.139  0.00  0.00    +0.000 A 
ATOM      8  C   UNL     1      47.235   6.676  12.507  0.00  0.00    +0.000 A 
ATOM      9  C   UNL     1      46.573   5.438  12.472  0.00  0.00    +0.000 A 
BRANCH   8  10
ATOM     10  C   UNL     1      48.647   6.761  13.038  0.00  0.00    +0.000 C 
BRANCH  10  11
ATOM     11  C   UNL     1      48.704   7.163  14.508  0.00  0.00    +0.000 C 
ATOM     12  C   UNL     1      50.065   7.196  15.245  0.00  0.00    +0.000 C 
ATOM     13  C   UNL     1      49.352   6.415  16.358  0.00  0.00    +0.000 C 
ATOM     14  N   UNL     1      48.337   6.005  15.373  0.00  0.00    +0.000 NA
ATOM     15  H   UNL     1      47.378   6.008  15.718  0.00  0.00    +0.000 HD
ENDBRANCH  10  11
ENDBRANCH   8  10
ENDBRANCH   1   4
BRANCH   1  16
ATOM     16  C   UNL     1      43.758   3.648  10.900  0.00  0.00    +0.000 C 
BRANCH  16  17
ATOM     17  N   UNL     1      44.268   2.376  10.342  0.00  0.00    +0.000 N 
ATOM     18  H   UNL     1      43.526   1.699  10.186  0.00  0.00    +0.000 HD
BRANCH  17  23
ATOM     19  C   UNL     1      47.304   2.941   5.661  0.00  0.00    +0.000 C 
ATOM     20  C   UNL     1      46.540   2.800   6.937  0.00  0.00    +0.000 A 
ATOM     21  C   UNL     1      46.527   1.609   7.653  0.00  0.00    +0.000 A 
ATOM     22  N   UNL     1      45.811   1.428   8.791  0.00  0.00    +0.000 NA
ATOM     23  C   UNL     1      45.094   2.486   9.220  0.00  0.00    +0.000 A 
ATOM     24  C   UNL     1      45.116   3.683   8.496  0.00  0.00    +0.000 A 
ATOM     25  N   UNL     1      45.832   3.870   7.360  0.00  0.00    +0.000 NA
ENDBRANCH  17  23
ENDBRANCH  16  17
ENDBRANCH   1  16
TORSDOF 6
ENDMDL
MODEL 4
REMARK VINA RESULT:    -7.456      1.879      6.883
REMARK INTER + INTRA:         -10.821
REMARK INTER:                  -9.928
REMARK INTRA:                  -0.893
REMARK UNBOUND:                -0.750
REMARK  Name = 
REMARK  7 active torsions:
REMARK  status: ('A' for Active; 'I' for Inactive)
REMARK    1  A    between atoms: C_1  and  C_2
REMARK    2  A    between atoms: C_5  and  N_6
REMARK    3  A    between atoms: N_6  and  C_7
REMARK    4  A    between atoms: C_7  and  C_8
REMARK    5  A    between atoms: C_8  and  C_11
REMARK    6  A    between atoms: C_15  and  C_16
REMARK    7  A    between atoms: C_16  and  C_17
REMARK                            x       y       z     vdW  Elec       q    Type
REMARK                         _______ _______ _______ _____ _____    ______ ____
ROOT
ATOM      1  C   UNL     1      45.659   6.513  11.481  0.00  0.00    +0.000 C 
ATOM      2  F   UNL     1      44.800   7.544  11.188  0.00  0.00    +0.000 F 
ATOM      3  F   UNL     1      46.636   6.595  10.525  0.00  0.00    +0.000 F 
ENDROOT
BRANCH   1   4
ATOM      4  C   UNL     1      44.956   5.171  11.441  0.00  0.00    +0.000 A 
ATOM      5  C   UNL     1      44.018   4.822  12.421  0.00  0.00    +0.000 A 
ATOM      6  C   UNL     1      43.321   3.616  12.334  0.00  0.00    +0.000 A 
ATOM      7  C   UNL     1      43.543   2.749  11.260  0.00  0.00    +0.000 A 
ATOM      8  C   UNL     1      44.465   3.082  10.262  0.00  0.00    +0.000 A 
ATOM      9  C   UNL     1      45.185   4.282  10.377  0.00  0.00    +0.000 A 
BRANCH   8  10
ATOM     10  C   UNL     1      44.613   2.230   9.022  0.00  0.00    +0.000 C 
BRANCH  10  11
ATOM     11  C   UNL     1      46.058   2.128   8.544  0.00  0.00    +0.000 C 
ATOM     12  C   UNL     1      46.432   2.605   7.119  0.00  0.00    +0.000 C 
ATOM     13  C   UNL     1      47.185   1.273   6.994  0.00  0.00    +0.000 C 
ATOM     14  N   UNL     1      46.354   0.740   8.087  0.00  0.00    +0.000 NA
ATOM     15  H   UNL     1      46.850   0.159   8.760  0.00  0.00    +0.000 HD
ENDBRANCH  10  11
ENDBRANCH   8  10
ENDBRANCH   1   4
BRANCH   1  16
ATOM     16  C   UNL     1      46.293   6.819  12.862  0.00  0.00    +0.000 C 
BRANCH  16  17
ATOM     17  N   UNL     1      47.562   6.081  13.044  0.00  0.00    +0.000 N 
ATOM     18  H   UNL     1      48.376   6.668  12.878  0.00  0.00    +0.000 HD
BRANCH  17  23
ATOM     19  C   UNL     1      47.732   3.158  17.826  0.00  0.00    +0.000 C 
ATOM     20  C   UNL     1      47.738   3.920  16.541  0.00  0.00    +0.000 A 
ATOM     21  C   UNL     1      48.317   5.178  16.441  0.00  0.00    +0.000 A 
ATOM     22  N   UNL     1      48.304   5.919  15.304  0.00  0.00    +0.000 NA
ATOM     23  C   UNL     1      47.691   5.367  14.238  0.00  0.00    +0.000 A 
ATOM     24  C   UNL     1      47.113   4.097  14.347  0.00  0.00    +0.000 A 
ATOM     25  N   UNL     1      47.127   3.351  15.478  0.00  0.00    +0.000 NA
ENDBRANCH  17  23
ENDBRANCH  16  17
ENDBRANCH   1  16
TORSDOF 6
ENDMDL
MODEL 5
REMARK VINA RESULT:    -7.076      2.330      4.037
REMARK INTER + INTRA:         -10.308
REMARK INTER:                  -9.438
REMARK INTRA:                  -0.870
REMARK UNBOUND:                -0.750
REMARK  Name = 
REMARK  7 active torsions:
REMARK  status: ('A' for Active; 'I' for Inactive)
REMARK    1  A    between atoms: C_1  and  C_2
REMARK    2  A    between atoms: C_5  and  N_6
REMARK    3  A    between atoms: N_6  and  C_7
REMARK    4  A    between atoms: C_7  and  C_8
REMARK    5  A    between atoms: C_8  and  C_11
REMARK    6  A    between atoms: C_15  and  C_16
REMARK    7  A    between atoms: C_16  and  C_17
REMARK                            x       y       z     vdW  Elec       q    Type
REMARK                         _______ _______ _______ _____ _____    ______ ____
ROOT
ATOM      1  C   UNL     1      44.200   4.928  11.758  0.00  0.00    +0.000 C 
ATOM      2  F   UNL     1      43.900   5.678  10.647  0.00  0.00    +0.000 F 
ATOM      3  F   UNL     1      43.124   5.093  12.588  0.00  0.00    +0.000 F 
ENDROOT
BRANCH   1   4
ATOM      4  C   UNL     1      45.484   5.392  12.416  0.00  0.00    +0.000 A 
ATOM      5  C   UNL     1      45.920   4.826  13.621  0.00  0.00    +0.000 A 
ATOM      6  C   UNL     1      47.140   5.208  14.180  0.00  0.00    +0.000 A 
ATOM      7  C   UNL     1      47.947   6.151  13.536  0.00  0.00    +0.000 A 
ATOM      8  C   UNL     1      47.540   6.720  12.324  0.00  0.00    +0.000 A 
ATOM      9  C   UNL     1      46.294   6.354  11.788  0.00  0.00    +0.000 A 
BRANCH   8  10
ATOM     10  C   UNL     1      48.459   7.629  11.542  0.00  0.00    +0.000 C 
BRANCH  10  11
ATOM     11  C   UNL     1      48.690   8.971  12.229  0.00  0.00    +0.000 C 
ATOM     12  C   UNL     1      47.491   9.911  12.503  0.00  0.00    +0.000 C 
ATOM     13  C   UNL     1      48.371  11.020  11.909  0.00  0.00    +0.000 C 
ATOM     14  N   UNL     1      49.172   9.980  11.242  0.00  0.00    +0.000 NA
ATOM     15  H   UNL     1      50.177  10.143  11.246  0.00  0.00    +0.000 HD
ENDBRANCH  10  11
ENDBRANCH   8  10
ENDBRANCH   1   4
BRANCH   1  16
ATOM     16  C   UNL     1      44.255   3.445  11.311  0.00  0.00    +0.000 C 
BRANCH  16  17
ATOM     17  N   UNL     1      43.883   3.301   9.887  0.00  0.00    +0.000 N 
ATOM     18  H   UNL     1      43.332   4.087   9.552  0.00  0.00    +0.000 HD
BRANCH  17  23
ATOM     19  C   UNL     1      47.882   2.270   6.095  0.00  0.00    +0.000 C 
ATOM     20  C   UNL     1      46.856   2.547   7.144  0.00  0.00    +0.000 A 
ATOM     21  C   UNL     1      46.359   1.542   7.964  0.00  0.00    +0.000 A 
ATOM     22  N   UNL     1      45.396   1.747   8.898  0.00  0.00    +0.000 NA
ATOM     23  C   UNL     1      44.926   3.005   9.006  0.00  0.00    +0.000 A 
ATOM     24  C   UNL     1      45.434   4.012   8.178  0.00  0.00    +0.000 A 
ATOM     25  N   UNL     1      46.399   3.815   7.247  0.00  0.00    +0.000 NA
ENDBRANCH  17  23
ENDBRANCH  16  17
ENDBRANCH   1  16
TORSDOF 6
ENDMDL
MODEL 6
REMARK VINA RESULT:    -6.798      2.977      6.877
REMARK INTER + INTRA:          -9.933
REMARK INTER:                  -9.092
REMARK INTRA:                  -0.841
REMARK UNBOUND:                -0.750
REMARK  Name = 
REMARK  7 active torsions:
REMARK  status: ('A' for Active; 'I' for Inactive)
REMARK    1  A    between atoms: C_1  and  C_2
REMARK    2  A    between atoms: C_5  and  N_6
REMARK    3  A    between atoms: N_6  and  C_7
REMARK    4  A    between atoms: C_7  and  C_8
REMARK    5  A    between atoms: C_8  and  C_11
REMARK    6  A    between atoms: C_15  and  C_16
REMARK    7  A    between atoms: C_16  and  C_17
REMARK                            x       y       z     vdW  Elec       q    Type
REMARK                         _______ _______ _______ _____ _____    ______ ____
ROOT
ATOM      1  C   UNL     1      46.567   4.459  13.672  0.00  0.00    +0.000 C 
ATOM      2  F   UNL     1      47.335   3.320  13.675  0.00  0.00    +0.000 F 
ATOM      3  F   UNL     1      46.270   4.678  14.991  0.00  0.00    +0.000 F 
ENDROOT
BRANCH   1   4
ATOM      4  C   UNL     1      45.311   4.285  12.842  0.00  0.00    +0.000 A 
ATOM      5  C   UNL     1      44.145   5.000  13.145  0.00  0.00    +0.000 A 
ATOM      6  C   UNL     1      43.017   4.889  12.330  0.00  0.00    +0.000 A 
ATOM      7  C   UNL     1      43.044   4.071  11.196  0.00  0.00    +0.000 A 
ATOM      8  C   UNL     1      44.201   3.358  10.866  0.00  0.00    +0.000 A 
ATOM      9  C   UNL     1      45.319   3.451  11.711  0.00  0.00    +0.000 A 
BRANCH   8  10
ATOM     10  C   UNL     1      44.298   2.586   9.570  0.00  0.00    +0.000 C 
BRANCH  10  11
ATOM     11  C   UNL     1      45.719   2.530   9.019  0.00  0.00    +0.000 C 
ATOM     12  C   UNL     1      46.026   3.120   7.622  0.00  0.00    +0.000 C 
ATOM     13  C   UNL     1      46.774   1.806   7.356  0.00  0.00    +0.000 C 
ATOM     14  N   UNL     1      45.995   1.184   8.440  0.00  0.00    +0.000 NA
ATOM     15  H   UNL     1      46.523   0.553   9.041  0.00  0.00    +0.000 HD
ENDBRANCH  10  11
ENDBRANCH   8  10
ENDBRANCH   1   4
BRANCH   1  16
ATOM     16  C   UNL     1      47.465   5.618  13.169  0.00  0.00    +0.000 C 
BRANCH  16  17
ATOM     17  N   UNL     1      47.323   6.815  14.026  0.00  0.00    +0.000 N 
ATOM     18  H   UNL     1      48.111   6.932  14.659  0.00  0.00    +0.000 HD
BRANCH  17  23
ATOM     19  C   UNL     1      45.963  11.423  11.134  0.00  0.00    +0.000 C 
ATOM     20  C   UNL     1      46.324  10.225  11.950  0.00  0.00    +0.000 A 
ATOM     21  C   UNL     1      47.634   9.978  12.345  0.00  0.00    +0.000 A 
ATOM     22  N   UNL     1      48.007   8.879  13.049  0.00  0.00    +0.000 NA
ATOM     23  C   UNL     1      47.027   8.011  13.366  0.00  0.00    +0.000 A 
ATOM     24  C   UNL     1      45.711   8.270  12.969  0.00  0.00    +0.000 A 
ATOM     25  N   UNL     1      45.331   9.367  12.269  0.00  0.00    +0.000 NA
ENDBRANCH  17  23
ENDBRANCH  16  17
ENDBRANCH   1  16
TORSDOF 6
ENDMDL
MODEL 7
REMARK VINA RESULT:    -6.436      3.179      7.567
REMARK INTER + INTRA:          -9.444
REMARK INTER:                  -8.723
REMARK INTRA:                  -0.721
REMARK UNBOUND:                -0.750
REMARK  Name = 
REMARK  7 active torsions:
REMARK  status: ('A' for Active; 'I' for Inactive)
REMARK    1  A    between atoms: C_1  and  C_2
REMARK    2  A    between atoms: C_5  and  N_6
REMARK    3  A    between atoms: N_6  and  C_7
REMARK    4  A    between atoms: C_7  and  C_8
REMARK    5  A    between atoms: C_8  and  C_11
REMARK    6  A    between atoms: C_15  and  C_16
REMARK    7  A    between atoms: C_16  and  C_17
REMARK                            x       y       z     vdW  Elec       q    Type
REMARK                         _______ _______ _______ _____ _____    ______ ____
ROOT
ATOM      1  C   UNL     1      46.558   4.403  13.704  0.00  0.00    +0.000 C 
ATOM      2  F   UNL     1      47.299   3.246  13.695  0.00  0.00    +0.000 F 
ATOM      3  F   UNL     1      46.243   4.601  15.022  0.00  0.00    +0.000 F 
ENDROOT
BRANCH   1   4
ATOM      4  C   UNL     1      45.312   4.275  12.849  0.00  0.00    +0.000 A 
ATOM      5  C   UNL     1      44.164   5.024  13.138  0.00  0.00    +0.000 A 
ATOM      6  C   UNL     1      43.048   4.955  12.303  0.00  0.00    +0.000 A 
ATOM      7  C   UNL     1      43.069   4.147  11.162  0.00  0.00    +0.000 A 
ATOM      8  C   UNL     1      44.210   3.401  10.846  0.00  0.00    +0.000 A 
ATOM      9  C   UNL     1      45.315   3.451  11.712  0.00  0.00    +0.000 A 
BRANCH   8  10
ATOM     10  C   UNL     1      44.306   2.637   9.545  0.00  0.00    +0.000 C 
BRANCH  10  11
ATOM     11  C   UNL     1      45.726   2.590   8.990  0.00  0.00    +0.000 C 
ATOM     12  C   UNL     1      46.021   3.161   7.582  0.00  0.00    +0.000 C 
ATOM     13  C   UNL     1      46.785   1.853   7.335  0.00  0.00    +0.000 C 
ATOM     14  N   UNL     1      46.017   1.238   8.431  0.00  0.00    +0.000 NA
ATOM     15  H   UNL     1      46.555   0.624   9.041  0.00  0.00    +0.000 HD
ENDBRANCH  10  11
ENDBRANCH   8  10
ENDBRANCH   1   4
BRANCH   1  16
ATOM     16  C   UNL     1      47.490   5.550  13.240  0.00  0.00    +0.000 C 
BRANCH  16  17
ATOM     17  N   UNL     1      47.285   6.768  14.054  0.00  0.00    +0.000 N 
ATOM     18  H   UNL     1      46.509   6.670  14.705  0.00  0.00    +0.000 HD
BRANCH  17  23
ATOM     19  C   UNL     1      51.894   9.008  16.330  0.00  0.00    +0.000 C 
ATOM     20  C   UNL     1      50.644   8.407  15.774  0.00  0.00    +0.000 A 
ATOM     21  C   UNL     1      50.443   7.033  15.751  0.00  0.00    +0.000 A 
ATOM     22  N   UNL     1      49.342   6.448  15.215  0.00  0.00    +0.000 NA
ATOM     23  C   UNL     1      48.418   7.278  14.693  0.00  0.00    +0.000 A 
ATOM     24  C   UNL     1      48.627   8.661  14.724  0.00  0.00    +0.000 A 
ATOM     25  N   UNL     1      49.722   9.252  15.261  0.00  0.00    +0.000 NA
ENDBRANCH  17  23
ENDBRANCH  16  17
ENDBRANCH   1  16
TORSDOF 6
ENDMDL
MODEL 8
REMARK VINA RESULT:    -6.170      3.167      7.351
REMARK INTER + INTRA:          -9.084
REMARK INTER:                  -8.363
REMARK INTRA:                  -0.720
REMARK UNBOUND:                -0.750
REMARK  Name = 
REMARK  7 active torsions:
REMARK  status: ('A' for Active; 'I' for Inactive)
REMARK    1  A    between atoms: C_1  and  C_2
REMARK    2  A    between atoms: C_5  and  N_6
REMARK    3  A    between atoms: N_6  and  C_7
REMARK    4  A    between atoms: C_7  and  C_8
REMARK    5  A    between atoms: C_8  and  C_11
REMARK    6  A    between atoms: C_15  and  C_16
REMARK    7  A    between atoms: C_16  and  C_17
REMARK                            x       y       z     vdW  Elec       q    Type
REMARK                         _______ _______ _______ _____ _____    ______ ____
ROOT
ATOM      1  C   UNL     1      45.529   6.370  12.291  0.00  0.00    +0.000 C 
ATOM      2  F   UNL     1      44.514   6.944  13.017  0.00  0.00    +0.000 F 
ATOM      3  F   UNL     1      45.897   7.335  11.391  0.00  0.00    +0.000 F 
ENDROOT
BRANCH   1   4
ATOM      4  C   UNL     1      45.071   5.106  11.593  0.00  0.00    +0.000 A 
ATOM      5  C   UNL     1      44.331   4.134  12.280  0.00  0.00    +0.000 A 
ATOM      6  C   UNL     1      43.850   3.008  11.609  0.00  0.00    +0.000 A 
ATOM      7  C   UNL     1      44.092   2.844  10.242  0.00  0.00    +0.000 A 
ATOM      8  C   UNL     1      44.817   3.808   9.532  0.00  0.00    +0.000 A 
ATOM      9  C   UNL     1      45.325   4.920  10.224  0.00  0.00    +0.000 A 
BRANCH   8  10
ATOM     10  C   UNL     1      44.964   3.722   8.031  0.00  0.00    +0.000 C 
BRANCH  10  11
ATOM     11  C   UNL     1      46.366   3.308   7.596  0.00  0.00    +0.000 C 
ATOM     12  C   UNL     1      46.649   2.993   6.107  0.00  0.00    +0.000 C 
ATOM     13  C   UNL     1      47.351   1.730   6.625  0.00  0.00    +0.000 C 
ATOM     14  N   UNL     1      46.587   1.860   7.877  0.00  0.00    +0.000 NA
ATOM     15  H   UNL     1      47.114   1.659   8.725  0.00  0.00    +0.000 HD
ENDBRANCH  10  11
ENDBRANCH   8  10
ENDBRANCH   1   4
BRANCH   1  16
ATOM     16  C   UNL     1      46.711   6.127  13.264  0.00  0.00    +0.000 C 
BRANCH  16  17
ATOM     17  N   UNL     1      48.008   6.194  12.557  0.00  0.00    +0.000 N 
ATOM     18  H   UNL     1      47.905   6.081  11.551  0.00  0.00    +0.000 HD
BRANCH  17  23
ATOM     19  C   UNL     1      50.963  10.804  13.764  0.00  0.00    +0.000 C 
ATOM     20  C   UNL     1      50.212   9.546  13.471  0.00  0.00    +0.000 A 
ATOM     21  C   UNL     1      50.592   8.690  12.445  0.00  0.00    +0.000 A 
ATOM     22  N   UNL     1      49.911   7.562  12.121  0.00  0.00    +0.000 NA
ATOM     23  C   UNL     1      48.817   7.292  12.861  0.00  0.00    +0.000 A 
ATOM     24  C   UNL     1      48.443   8.158  13.894  0.00  0.00    +0.000 A 
ATOM     25  N   UNL     1      49.121   9.283  14.225  0.00  0.00    +0.000 NA
ENDBRANCH  17  23
ENDBRANCH  16  17
ENDBRANCH   1  16
TORSDOF 6
ENDMDL
MODEL 9
REMARK VINA RESULT:    -6.053      3.858      7.428
REMARK INTER + INTRA:          -8.926
REMARK INTER:                  -8.178
REMARK INTRA:                  -0.748
REMARK UNBOUND:                -0.750
REMARK  Name = 
REMARK  7 active torsions:
REMARK  status: ('A' for Active; 'I' for Inactive)
REMARK    1  A    between atoms: C_1  and  C_2
REMARK    2  A    between atoms: C_5  and  N_6
REMARK    3  A    between atoms: N_6  and  C_7
REMARK    4  A    between atoms: C_7  and  C_8
REMARK    5  A    between atoms: C_8  and  C_11
REMARK    6  A    between atoms: C_15  and  C_16
REMARK    7  A    between atoms: C_16  and  C_17
REMARK                            x       y       z     vdW  Elec       q    Type
REMARK                         _______ _______ _______ _____ _____    ______ ____
ROOT
ATOM      1  C   UNL     1      45.829   5.162  12.900  0.00  0.00    +0.000 C 
ATOM      2  F   UNL     1      45.565   4.527  11.711  0.00  0.00    +0.000 F 
ATOM      3  F   UNL     1      44.609   5.270  13.513  0.00  0.00    +0.000 F 
ENDROOT
BRANCH   1   4
ATOM      4  C   UNL     1      46.461   6.522  12.680  0.00  0.00    +0.000 A 
ATOM      5  C   UNL     1      47.839   6.646  12.461  0.00  0.00    +0.000 A 
ATOM      6  C   UNL     1      48.401   7.894  12.185  0.00  0.00    +0.000 A 
ATOM      7  C   UNL     1      47.591   9.031  12.112  0.00  0.00    +0.000 A 
ATOM      8  C   UNL     1      46.210   8.929  12.313  0.00  0.00    +0.000 A 
ATOM      9  C   UNL     1      45.660   7.675  12.624  0.00  0.00    +0.000 A 
BRANCH   8  10
ATOM     10  C   UNL     1      45.301  10.117  12.095  0.00  0.00    +0.000 C 
BRANCH  10  11
ATOM     11  C   UNL     1      44.026   9.757  11.340  0.00  0.00    +0.000 C 
ATOM     12  C   UNL     1      43.734  10.410   9.967  0.00  0.00    +0.000 C 
ATOM     13  C   UNL     1      42.326  10.673  10.519  0.00  0.00    +0.000 C 
ATOM     14  N   UNL     1      42.870  10.528  11.880  0.00  0.00    +0.000 NA
ATOM     15  H   UNL     1      42.273  10.018  12.529  0.00  0.00    +0.000 HD
ENDBRANCH  10  11
ENDBRANCH   8  10
ENDBRANCH   1   4
BRANCH   1  16
ATOM     16  C   UNL     1      46.721   4.213  13.741  0.00  0.00    +0.000 C 
BRANCH  16  17
ATOM     17  N   UNL     1      46.550   4.462  15.189  0.00  0.00    +0.000 N 
ATOM     18  H   UNL     1      45.736   3.983  15.568  0.00  0.00    +0.000 HD
BRANCH  17  23
ATOM     19  C   UNL     1      51.261   3.786  18.154  0.00  0.00    +0.000 C 
ATOM     20  C   UNL     1      49.978   3.963  17.411  0.00  0.00    +0.000 A 
ATOM     21  C   UNL     1      49.183   2.880  17.057  0.00  0.00    +0.000 A 
ATOM     22  N   UNL     1      48.034   2.997  16.345  0.00  0.00    +0.000 NA
ATOM     23  C   UNL     1      47.677   4.246  15.986  0.00  0.00    +0.000 A 
ATOM     24  C   UNL     1      48.481   5.331  16.349  0.00  0.00    +0.000 A 
ATOM     25  N   UNL     1      49.628   5.222  17.064  0.00  0.00    +0.000 NA
ENDBRANCH  17  23
ENDBRANCH  16  17
ENDBRANCH   1  16
TORSDOF 6
ENDMDL
