MODEL 1
REMARK VINA RESULT:    -7.675      0.000      0.000
REMARK INTER + INTRA:          -9.724
REMARK INTER:                  -9.245
REMARK INTRA:                  -0.479
REMARK UNBOUND:                -0.479
REMARK  Name = 
REMARK  4 active torsions:
REMARK  status: ('A' for Active; 'I' for Inactive)
REMARK    1  A    between atoms: N_1  and  C_2
REMARK    2  A    between atoms: C_2  and  C_3
REMARK    3  A    between atoms: C_6  and  C_7
REMARK    4  A    between atoms: C_7  and  N_8
REMARK                            x       y       z     vdW  Elec       q    Type
REMARK                         _______ _______ _______ _____ _____    ______ ____
ROOT
ATOM      1  C   UNL     1      46.708   2.025   7.512  0.00  0.00    +0.000 A 
ATOM      2  C   UNL     1      46.678   3.386   7.223  0.00  0.00    +0.000 A 
ATOM      3  C   UNL     1      45.804   4.208   7.929  0.00  0.00    +0.000 A 
ATOM      4  C   UNL     1      44.973   3.655   8.908  0.00  0.00    +0.000 A 
ATOM      5  C   UNL     1      45.110   2.297   9.166  0.00  0.00    +0.000 A 
ATOM      6  N   UNL     1      45.949   1.477   8.495  0.00  0.00    +0.000 NA
ENDROOT
BRANCH   1   7
ATOM      7  C   UNL     1      47.576   1.087   6.701  0.00  0.00    +0.000 C 
BRANCH   7   8
ATOM      8  N   UNL     1      48.473   1.785   5.778  0.00  0.00    +0.000 NA
ATOM      9  H   UNL     1      47.979   1.931   4.900  0.00  0.00    +0.000 HD
ATOM     10  H   UNL     1      49.245   1.153   5.560  0.00  0.00    +0.000 HD
ENDBRANCH   7   8
ENDBRANCH   1   7
BRANCH   4  11
ATOM     11  C   UNL     1      43.896   4.457   9.571  0.00  0.00    +0.000 C 
BRANCH  11  12
ATOM     12  N   UNL     1      43.969   4.607  11.024  0.00  0.00    +0.000 N 
ATOM     13  C   UNL     1      43.192   3.982  11.969  0.00  0.00    +0.000 A 
ATOM     14  C   UNL     1      43.807   4.141  13.195  0.00  0.00    +0.000 A 
ATOM     15  C   UNL     1      44.976   4.911  12.993  0.00  0.00    +0.000 A 
ATOM     16  N   UNL     1      45.925   5.276  13.888  0.00  0.00    +0.000 NA
ATOM     17  C   UNL     1      46.931   6.018  13.375  0.00  0.00    +0.000 A 
ATOM     18  C   UNL     1      47.030   6.446  12.059  0.00  0.00    +0.000 A 
ATOM     19  C   UNL     1      46.051   6.066  11.148  0.00  0.00    +0.000 A 
ATOM     20  C   UNL     1      45.025   5.255  11.642  0.00  0.00    +0.000 A 
ENDBRANCH  11  12
ENDBRANCH   4  11
TORSDOF 4
ENDMDL
MODEL 2
REMARK VINA RESULT:    -7.408      1.410      1.850
REMARK INTER + INTRA:          -9.403
REMARK INTER:                  -8.903
REMARK INTRA:                  -0.499
REMARK UNBOUND:                -0.479
REMARK  Name = 
REMARK  4 active torsions:
REMARK  status: ('A' for Active; 'I' for Inactive)
REMARK    1  A    between atoms: N_1  and  C_2
REMARK    2  A    between atoms: C_2  and  C_3
REMARK    3  A    between atoms: C_6  and  C_7
REMARK    4  A    between atoms: C_7  and  N_8
REMARK                            x       y       z     vdW  Elec       q    Type
REMARK                         _______ _______ _______ _____ _____    ______ ____
ROOT
ATOM      1  C   UNL     1      46.364   2.808   7.185  0.00  0.00    +0.000 A 
ATOM      2  C   UNL     1      46.072   1.728   8.013  0.00  0.00    +0.000 A 
ATOM      3  C   UNL     1      45.247   1.927   9.118  0.00  0.00    +0.000 A 
ATOM      4  C   UNL     1      44.734   3.201   9.377  0.00  0.00    +0.000 A 
ATOM      5  C   UNL     1      45.034   4.206   8.467  0.00  0.00    +0.000 A 
ATOM      6  N   UNL     1      45.832   4.041   7.388  0.00  0.00    +0.000 NA
ENDROOT
BRANCH   1   7
ATOM      7  C   UNL     1      47.330   2.651   6.032  0.00  0.00    +0.000 C 
BRANCH   7   8
ATOM      8  N   UNL     1      48.530   1.889   6.385  0.00  0.00    +0.000 NA
ATOM      9  H   UNL     1      48.369   0.912   6.150  0.00  0.00    +0.000 HD
ATOM     10  H   UNL     1      48.627   1.918   7.401  0.00  0.00    +0.000 HD
ENDBRANCH   7   8
ENDBRANCH   1   7
BRANCH   4  11
ATOM     11  C   UNL     1      43.990   3.507  10.641  0.00  0.00    +0.000 C 
BRANCH  11  12
ATOM     12  N   UNL     1      44.767   4.009  11.773  0.00  0.00    +0.000 N 
ATOM     13  C   UNL     1      45.557   3.285  12.631  0.00  0.00    +0.000 A 
ATOM     14  C   UNL     1      46.358   4.173  13.322  0.00  0.00    +0.000 A 
ATOM     15  C   UNL     1      46.023   5.478  12.892  0.00  0.00    +0.000 A 
ATOM     16  N   UNL     1      46.575   6.663  13.244  0.00  0.00    +0.000 NA
ATOM     17  C   UNL     1      46.025   7.744  12.648  0.00  0.00    +0.000 A 
ATOM     18  C   UNL     1      44.952   7.723  11.767  0.00  0.00    +0.000 A 
ATOM     19  C   UNL     1      44.393   6.501  11.411  0.00  0.00    +0.000 A 
ATOM     20  C   UNL     1      44.977   5.363  11.975  0.00  0.00    +0.000 A 
ENDBRANCH  11  12
ENDBRANCH   4  11
TORSDOF 4
ENDMDL
MODEL 3
REMARK VINA RESULT:    -6.975      1.382      2.093
REMARK INTER + INTRA:          -8.882
REMARK INTER:                  -8.378
REMARK INTRA:                  -0.504
REMARK UNBOUND:                -0.479
REMARK  Name = 
REMARK  4 active torsions:
REMARK  status: ('A' for Active; 'I' for Inactive)
REMARK    1  A    between atoms: N_1  and  C_2
REMARK    2  A    between atoms: C_2  and  C_3
REMARK    3  A    between atoms: C_6  and  C_7
REMARK    4  A    between atoms: C_7  and  N_8
REMARK                            x       y       z     vdW  Elec       q    Type
REMARK                         _______ _______ _______ _____ _____    ______ ____
ROOT
ATOM      1  C   UNL     1      46.400   2.466   7.489  0.00  0.00    +0.000 A 
ATOM      2  C   UNL     1      45.768   1.675   8.444  0.00  0.00    +0.000 A 
ATOM      3  C   UNL     1      44.962   2.286   9.402  0.00  0.00    +0.000 A 
ATOM      4  C   UNL     1      44.806   3.675   9.390  0.00  0.00    +0.000 A 
ATOM      5  C   UNL     1      45.431   4.378   8.367  0.00  0.00    +0.000 A 
ATOM      6  N   UNL     1      46.219   3.810   7.427  0.00  0.00    +0.000 NA
ENDROOT
BRANCH   1   7
ATOM      7  C   UNL     1      47.357   1.849   6.493  0.00  0.00    +0.000 C 
BRANCH   7   8
ATOM      8  N   UNL     1      48.616   2.588   6.369  0.00  0.00    +0.000 NA
ATOM      9  H   UNL     1      48.764   2.806   5.386  0.00  0.00    +0.000 HD
ATOM     10  H   UNL     1      49.373   1.954   6.630  0.00  0.00    +0.000 HD
ENDBRANCH   7   8
ENDBRANCH   1   7
BRANCH   4  11
ATOM     11  C   UNL     1      44.096   4.397  10.494  0.00  0.00    +0.000 C 
BRANCH  11  12
ATOM     12  N   UNL     1      44.888   5.311  11.316  0.00  0.00    +0.000 N 
ATOM     13  C   UNL     1      44.790   6.679  11.376  0.00  0.00    +0.000 A 
ATOM     14  C   UNL     1      45.469   7.104  12.502  0.00  0.00    +0.000 A 
ATOM     15  C   UNL     1      46.021   5.962  13.126  0.00  0.00    +0.000 A 
ATOM     16  N   UNL     1      46.721   5.874  14.283  0.00  0.00    +0.000 NA
ATOM     17  C   UNL     1      47.113   4.624  14.614  0.00  0.00    +0.000 A 
ATOM     18  C   UNL     1      46.891   3.481  13.858  0.00  0.00    +0.000 A 
ATOM     19  C   UNL     1      46.171   3.582  12.673  0.00  0.00    +0.000 A 
ATOM     20  C   UNL     1      45.710   4.856  12.334  0.00  0.00    +0.000 A 
ENDBRANCH  11  12
ENDBRANCH   4  11
TORSDOF 4
ENDMDL
MODEL 4
REMARK VINA RESULT:    -6.017      2.089      5.869
REMARK INTER + INTRA:          -7.727
REMARK INTER:                  -7.322
REMARK INTRA:                  -0.405
REMARK UNBOUND:                -0.479
REMARK  Name = 
REMARK  4 active torsions:
REMARK  status: ('A' for Active; 'I' for Inactive)
REMARK    1  A    between atoms: N_1  and  C_2
REMARK    2  A    between atoms: C_2  and  C_3
REMARK    3  A    between atoms: C_6  and  C_7
REMARK    4  A    between atoms: C_7  and  N_8
REMARK                            x       y       z     vdW  Elec       q    Type
REMARK                         _______ _______ _______ _____ _____    ______ ____
ROOT
ATOM      1  C   UNL     1      47.906   7.657  13.623  0.00  0.00    +0.000 A 
ATOM      2  C   UNL     1      46.941   8.598  13.273  0.00  0.00    +0.000 A 
ATOM      3  C   UNL     1      45.693   8.157  12.840  0.00  0.00    +0.000 A 
ATOM      4  C   UNL     1      45.433   6.786  12.760  0.00  0.00    +0.000 A 
ATOM      5  C   UNL     1      46.436   5.922  13.182  0.00  0.00    +0.000 A 
ATOM      6  N   UNL     1      47.656   6.323  13.605  0.00  0.00    +0.000 NA
ENDROOT
BRANCH   1   7
ATOM      7  C   UNL     1      49.302   8.096  14.007  0.00  0.00    +0.000 C 
BRANCH   7   8
ATOM      8  N   UNL     1      50.113   7.012  14.568  0.00  0.00    +0.000 NA
ATOM      9  H   UNL     1      50.089   6.227  13.921  0.00  0.00    +0.000 HD
ATOM     10  H   UNL     1      49.647   6.687  15.417  0.00  0.00    +0.000 HD
ENDBRANCH   7   8
ENDBRANCH   1   7
BRANCH   4  11
ATOM     11  C   UNL     1      44.177   6.258  12.139  0.00  0.00    +0.000 C 
BRANCH  11  12
ATOM     12  N   UNL     1      44.126   4.828  11.840  0.00  0.00    +0.000 N 
ATOM     13  C   UNL     1      43.479   3.847  12.551  0.00  0.00    +0.000 A 
ATOM     14  C   UNL     1      43.403   2.723  11.752  0.00  0.00    +0.000 A 
ATOM     15  C   UNL     1      44.051   3.021  10.531  0.00  0.00    +0.000 A 
ATOM     16  N   UNL     1      44.183   2.252   9.423  0.00  0.00    +0.000 NA
ATOM     17  C   UNL     1      44.863   2.832   8.409  0.00  0.00    +0.000 A 
ATOM     18  C   UNL     1      45.445   4.091   8.443  0.00  0.00    +0.000 A 
ATOM     19  C   UNL     1      45.304   4.873   9.584  0.00  0.00    +0.000 A 
ATOM     20  C   UNL     1      44.560   4.316  10.628  0.00  0.00    +0.000 A 
ENDBRANCH  11  12
ENDBRANCH   4  11
TORSDOF 4
ENDMDL
MODEL 5
REMARK VINA RESULT:    -5.517      4.303      7.482
REMARK INTER + INTRA:          -7.125
REMARK INTER:                  -6.806
REMARK INTRA:                  -0.318
REMARK UNBOUND:                -0.479
REMARK  Name = 
REMARK  4 active torsions:
REMARK  status: ('A' for Active; 'I' for Inactive)
REMARK    1  A    between atoms: N_1  and  C_2
REMARK    2  A    between atoms: C_2  and  C_3
REMARK    3  A    between atoms: C_6  and  C_7
REMARK    4  A    between atoms: C_7  and  N_8
REMARK                            x       y       z     vdW  Elec       q    Type
REMARK                         _______ _______ _______ _____ _____    ______ ____
ROOT
ATOM      1  C   UNL     1      50.425   2.283  17.175  0.00  0.00    +0.000 A 
ATOM      2  C   UNL     1      50.088   3.460  17.838  0.00  0.00    +0.000 A 
ATOM      3  C   UNL     1      48.912   4.119  17.488  0.00  0.00    +0.000 A 
ATOM      4  C   UNL     1      48.098   3.594  16.480  0.00  0.00    +0.000 A 
ATOM      5  C   UNL     1      48.487   2.387  15.913  0.00  0.00    +0.000 A 
ATOM      6  N   UNL     1      49.622   1.728  16.233  0.00  0.00    +0.000 NA
ENDROOT
BRANCH   1   7
ATOM      7  C   UNL     1      51.740   1.591  17.463  0.00  0.00    +0.000 C 
BRANCH   7   8
ATOM      8  N   UNL     1      51.574   0.278  18.092  0.00  0.00    +0.000 NA
ATOM      9  H   UNL     1      52.140   0.255  18.938  0.00  0.00    +0.000 HD
ATOM     10  H   UNL     1      51.982  -0.418  17.466  0.00  0.00    +0.000 HD
ENDBRANCH   7   8
ENDBRANCH   1   7
BRANCH   4  11
ATOM     11  C   UNL     1      46.920   4.350  15.946  0.00  0.00    +0.000 C 
BRANCH  11  12
ATOM     12  N   UNL     1      47.170   5.309  14.871  0.00  0.00    +0.000 N 
ATOM     13  C   UNL     1      48.257   6.136  14.723  0.00  0.00    +0.000 A 
ATOM     14  C   UNL     1      48.254   6.613  13.428  0.00  0.00    +0.000 A 
ATOM     15  C   UNL     1      47.115   6.085  12.778  0.00  0.00    +0.000 A 
ATOM     16  N   UNL     1      46.721   6.228  11.490  0.00  0.00    +0.000 NA
ATOM     17  C   UNL     1      45.574   5.587  11.173  0.00  0.00    +0.000 A 
ATOM     18  C   UNL     1      44.785   4.860  12.054  0.00  0.00    +0.000 A 
ATOM     19  C   UNL     1      45.198   4.719  13.374  0.00  0.00    +0.000 A 
ATOM     20  C   UNL     1      46.409   5.328  13.714  0.00  0.00    +0.000 A 
ENDBRANCH  11  12
ENDBRANCH   4  11
TORSDOF 4
ENDMDL
MODEL 6
REMARK VINA RESULT:    -5.420      2.610      4.166
REMARK INTER + INTRA:          -7.008
REMARK INTER:                  -6.525
REMARK INTRA:                  -0.483
REMARK UNBOUND:                -0.479
REMARK  Name = 
REMARK  4 active torsions:
REMARK  status: ('A' for Active; 'I' for Inactive)
REMARK    1  A    between atoms: N_1  and  C_2
REMARK    2  A    between atoms: C_2  and  C_3
REMARK    3  A    between atoms: C_6  and  C_7
REMARK    4  A    between atoms: C_7  and  N_8
REMARK                            x       y       z     vdW  Elec       q    Type
REMARK                         _______ _______ _______ _____ _____    ______ ____
ROOT
ATOM      1  C   UNL     1      44.873   3.191   9.937  0.00  0.00    +0.000 A 
ATOM      2  C   UNL     1      45.250   4.450   9.478  0.00  0.00    +0.000 A 
ATOM      3  C   UNL     1      45.329   5.504  10.385  0.00  0.00    +0.000 A 
ATOM      4  C   UNL     1      45.027   5.282  11.732  0.00  0.00    +0.000 A 
ATOM      5  C   UNL     1      44.714   3.981  12.108  0.00  0.00    +0.000 A 
ATOM      6  N   UNL     1      44.628   2.941  11.249  0.00  0.00    +0.000 NA
ENDROOT
BRANCH   1   7
ATOM      7  C   UNL     1      44.685   2.045   8.967  0.00  0.00    +0.000 C 
BRANCH   7   8
ATOM      8  N   UNL     1      45.948   1.430   8.550  0.00  0.00    +0.000 NA
ATOM      9  H   UNL     1      45.825   0.419   8.546  0.00  0.00    +0.000 HD
ATOM     10  H   UNL     1      46.639   1.623   9.276  0.00  0.00    +0.000 HD
ENDBRANCH   7   8
ENDBRANCH   1   7
BRANCH   4  11
ATOM     11  C   UNL     1      44.926   6.409  12.713  0.00  0.00    +0.000 C 
BRANCH  11  12
ATOM     12  N   UNL     1      46.090   7.284  12.851  0.00  0.00    +0.000 N 
ATOM     13  C   UNL     1      47.378   6.921  13.156  0.00  0.00    +0.000 A 
ATOM     14  C   UNL     1      48.203   7.986  12.855  0.00  0.00    +0.000 A 
ATOM     15  C   UNL     1      47.387   9.039  12.380  0.00  0.00    +0.000 A 
ATOM     16  N   UNL     1      47.749  10.258  11.914  0.00  0.00    +0.000 NA
ATOM     17  C   UNL     1      46.721  11.046  11.529  0.00  0.00    +0.000 A 
ATOM     18  C   UNL     1      45.375  10.717  11.614  0.00  0.00    +0.000 A 
ATOM     19  C   UNL     1      45.014   9.464  12.094  0.00  0.00    +0.000 A 
ATOM     20  C   UNL     1      46.061   8.610  12.451  0.00  0.00    +0.000 A 
ENDBRANCH  11  12
ENDBRANCH   4  11
TORSDOF 4
ENDMDL
MODEL 7
REMARK VINA RESULT:    -5.382      3.278      5.489
REMARK INTER + INTRA:          -6.963
REMARK INTER:                  -6.532
REMARK INTRA:                  -0.431
REMARK UNBOUND:                -0.479
REMARK  Name = 
REMARK  4 active torsions:
REMARK  status: ('A' for Active; 'I' for Inactive)
REMARK    1  A    between atoms: N_1  and  C_2
REMARK    2  A    between atoms: C_2  and  C_3
REMARK    3  A    between atoms: C_6  and  C_7
REMARK    4  A    between atoms: C_7  and  N_8
REMARK                            x       y       z     vdW  Elec       q    Type
REMARK                         _______ _______ _______ _____ _____    ______ ____
ROOT
ATOM      1  C   UNL     1      44.716   3.957  11.368  0.00  0.00    +0.000 A 
ATOM      2  C   UNL     1      45.251   4.972  10.580  0.00  0.00    +0.000 A 
ATOM      3  C   UNL     1      46.003   5.974  11.187  0.00  0.00    +0.000 A 
ATOM      4  C   UNL     1      46.204   5.946  12.570  0.00  0.00    +0.000 A 
ATOM      5  C   UNL     1      45.679   4.865  13.268  0.00  0.00    +0.000 A 
ATOM      6  N   UNL     1      44.944   3.881  12.704  0.00  0.00    +0.000 NA
ENDROOT
BRANCH   1   7
ATOM      7  C   UNL     1      43.816   2.905  10.758  0.00  0.00    +0.000 C 
BRANCH   7   8
ATOM      8  N   UNL     1      43.048   2.154  11.755  0.00  0.00    +0.000 NA
ATOM      9  H   UNL     1      42.269   2.733  12.062  0.00  0.00    +0.000 HD
ATOM     10  H   UNL     1      43.644   2.033  12.576  0.00  0.00    +0.000 HD
ENDBRANCH   7   8
ENDBRANCH   1   7
BRANCH   4  11
ATOM     11  C   UNL     1      46.853   7.085  13.295  0.00  0.00    +0.000 C 
BRANCH  11  12
ATOM     12  N   UNL     1      47.188   8.274  12.512  0.00  0.00    +0.000 N 
ATOM     13  C   UNL     1      46.433   9.409  12.349  0.00  0.00    +0.000 A 
ATOM     14  C   UNL     1      47.251  10.393  11.830  0.00  0.00    +0.000 A 
ATOM     15  C   UNL     1      48.534   9.830  11.644  0.00  0.00    +0.000 A 
ATOM     16  N   UNL     1      49.673  10.421  11.212  0.00  0.00    +0.000 NA
ATOM     17  C   UNL     1      50.747   9.602  11.145  0.00  0.00    +0.000 A 
ATOM     18  C   UNL     1      50.748   8.246  11.437  0.00  0.00    +0.000 A 
ATOM     19  C   UNL     1      49.573   7.648  11.880  0.00  0.00    +0.000 A 
ATOM     20  C   UNL     1      48.461   8.484  12.008  0.00  0.00    +0.000 A 
ENDBRANCH  11  12
ENDBRANCH   4  11
TORSDOF 4
ENDMDL
MODEL 8
REMARK VINA RESULT:    -5.305      3.638      7.308
REMARK INTER + INTRA:          -6.870
REMARK INTER:                  -6.452
REMARK INTRA:                  -0.418
REMARK UNBOUND:                -0.479
REMARK  Name = 
REMARK  4 active torsions:
REMARK  status: ('A' for Active; 'I' for Inactive)
REMARK    1  A    between atoms: N_1  and  C_2
REMARK    2  A    between atoms: C_2  and  C_3
REMARK    3  A    between atoms: C_6  and  C_7
REMARK    4  A    between atoms: C_7  and  N_8
REMARK                            x       y       z     vdW  Elec       q    Type
REMARK                         _______ _______ _______ _____ _____    ______ ____
ROOT
ATOM      1  C   UNL     1      48.225   4.935  17.612  0.00  0.00    +0.000 A 
ATOM      2  C   UNL     1      48.833   6.032  17.007  0.00  0.00    +0.000 A 
ATOM      3  C   UNL     1      48.588   6.282  15.659  0.00  0.00    +0.000 A 
ATOM      4  C   UNL     1      47.745   5.430  14.939  0.00  0.00    +0.000 A 
ATOM      5  C   UNL     1      47.141   4.393  15.639  0.00  0.00    +0.000 A 
ATOM      6  N   UNL     1      47.362   4.127  16.945  0.00  0.00    +0.000 NA
ENDROOT
BRANCH   1   7
ATOM      7  C   UNL     1      48.541   4.578  19.048  0.00  0.00    +0.000 C 
BRANCH   7   8
ATOM      8  N   UNL     1      48.351   3.156  19.343  0.00  0.00    +0.000 NA
ATOM      9  H   UNL     1      47.533   2.829  18.832  0.00  0.00    +0.000 HD
ATOM     10  H   UNL     1      48.110   3.076  20.333  0.00  0.00    +0.000 HD
ENDBRANCH   7   8
ENDBRANCH   1   7
BRANCH   4  11
ATOM     11  C   UNL     1      47.587   5.549  13.455  0.00  0.00    +0.000 C 
BRANCH  11  12
ATOM     12  N   UNL     1      46.299   6.027  12.953  0.00  0.00    +0.000 N 
ATOM     13  C   UNL     1      45.935   7.323  12.685  0.00  0.00    +0.000 A 
ATOM     14  C   UNL     1      44.782   7.292  11.926  0.00  0.00    +0.000 A 
ATOM     15  C   UNL     1      44.419   5.936  11.753  0.00  0.00    +0.000 A 
ATOM     16  N   UNL     1      43.396   5.409  11.038  0.00  0.00    +0.000 NA
ATOM     17  C   UNL     1      43.318   4.060  11.071  0.00  0.00    +0.000 A 
ATOM     18  C   UNL     1      44.156   3.220  11.790  0.00  0.00    +0.000 A 
ATOM     19  C   UNL     1      45.203   3.770  12.520  0.00  0.00    +0.000 A 
ATOM     20  C   UNL     1      45.337   5.160  12.461  0.00  0.00    +0.000 A 
ENDBRANCH  11  12
ENDBRANCH   4  11
TORSDOF 4
ENDMDL
MODEL 9
REMARK VINA RESULT:    -5.245      2.029      3.567
REMARK INTER + INTRA:          -6.798
REMARK INTER:                  -6.370
REMARK INTRA:                  -0.428
REMARK UNBOUND:                -0.479
REMARK  Name = 
REMARK  4 active torsions:
REMARK  status: ('A' for Active; 'I' for Inactive)
REMARK    1  A    between atoms: N_1  and  C_2
REMARK    2  A    between atoms: C_2  and  C_3
REMARK    3  A    between atoms: C_6  and  C_7
REMARK    4  A    between atoms: C_7  and  N_8
REMARK                            x       y       z     vdW  Elec       q    Type
REMARK                         _______ _______ _______ _____ _____    ______ ____
ROOT
ATOM      1  C   UNL     1      44.682   2.934   9.770  0.00  0.00    +0.000 A 
ATOM      2  C   UNL     1      45.312   4.121   9.407  0.00  0.00    +0.000 A 
ATOM      3  C   UNL     1      45.233   5.217  10.262  0.00  0.00    +0.000 A 
ATOM      4  C   UNL     1      44.523   5.109  11.461  0.00  0.00    +0.000 A 
ATOM      5  C   UNL     1      43.973   3.870  11.766  0.00  0.00    +0.000 A 
ATOM      6  N   UNL     1      44.034   2.791  10.954  0.00  0.00    +0.000 NA
ENDROOT
BRANCH   1   7
ATOM      7  C   UNL     1      44.667   1.753   8.824  0.00  0.00    +0.000 C 
BRANCH   7   8
ATOM      8  N   UNL     1      46.008   1.298   8.450  0.00  0.00    +0.000 NA
ATOM      9  H   UNL     1      46.690   1.867   8.947  0.00  0.00    +0.000 HD
ATOM     10  H   UNL     1      46.140   1.509   7.459  0.00  0.00    +0.000 HD
ENDBRANCH   7   8
ENDBRANCH   1   7
BRANCH   4  11
ATOM     11  C   UNL     1      44.259   6.300  12.331  0.00  0.00    +0.000 C 
BRANCH  11  12
ATOM     12  N   UNL     1      45.212   7.407  12.259  0.00  0.00    +0.000 N 
ATOM     13  C   UNL     1      44.991   8.671  11.769  0.00  0.00    +0.000 A 
ATOM     14  C   UNL     1      46.026   9.479  12.195  0.00  0.00    +0.000 A 
ATOM     15  C   UNL     1      46.919   8.674  12.942  0.00  0.00    +0.000 A 
ATOM     16  N   UNL     1      48.045   9.033  13.602  0.00  0.00    +0.000 NA
ATOM     17  C   UNL     1      48.682   8.019  14.229  0.00  0.00    +0.000 A 
ATOM     18  C   UNL     1      48.296   6.686  14.206  0.00  0.00    +0.000 A 
ATOM     19  C   UNL     1      47.138   6.328  13.526  0.00  0.00    +0.000 A 
ATOM     20  C   UNL     1      46.432   7.367  12.912  0.00  0.00    +0.000 A 
ENDBRANCH  11  12
ENDBRANCH   4  11
TORSDOF 4
ENDMDL
