MODEL 1
REMARK VINA RESULT:    -8.149      0.000      0.000
REMARK INTER + INTRA:         -11.634
REMARK INTER:                 -11.007
REMARK INTRA:                  -0.627
REMARK UNBOUND:                -0.627
REMARK  Name = 
REMARK  6 active torsions:
REMARK  status: ('A' for Active; 'I' for Inactive)
REMARK    1  A    between atoms: C_2  and  C_3
REMARK    2  A    between atoms: C_7  and  C_8
REMARK    3  A    between atoms: C_12  and  C_13
REMARK    4  A    between atoms: C_13  and  N_14
REMARK    5  A    between atoms: N_14  and  C_15
REMARK    6  A    between atoms: C_18  and  C_19
REMARK                            x       y       z     vdW  Elec       q    Type
REMARK                         _______ _______ _______ _____ _____    ______ ____
ROOT
ATOM      1  C   UNL     1      47.075   5.376  13.959  0.00  0.00    +0.000 A 
ATOM      2  C   UNL     1      47.720   6.413  13.271  0.00  0.00    +0.000 A 
ATOM      3  C   UNL     1      47.236   6.883  12.046  0.00  0.00    +0.000 A 
ATOM      4  C   UNL     1      46.089   6.325  11.482  0.00  0.00    +0.000 A 
ATOM      5  C   UNL     1      45.403   5.291  12.128  0.00  0.00    +0.000 A 
ATOM      6  C   UNL     1      45.914   4.849  13.367  0.00  0.00    +0.000 A 
ENDROOT
BRANCH   1  11
ATOM      7  C   UNL     1      48.791   5.132  17.351  0.00  0.00    +0.000 A 
ATOM      8  C   UNL     1      48.620   3.783  17.660  0.00  0.00    +0.000 A 
ATOM      9  C   UNL     1      47.944   2.952  16.771  0.00  0.00    +0.000 A 
ATOM     10  C   UNL     1      47.433   3.475  15.579  0.00  0.00    +0.000 A 
ATOM     11  C   UNL     1      47.590   4.832  15.239  0.00  0.00    +0.000 A 
ATOM     12  C   UNL     1      48.286   5.646  16.146  0.00  0.00    +0.000 A 
BRANCH   7  14
ATOM     13  N   UNL     1      50.056   6.693  18.991  0.00  0.00    +0.000 NA
ATOM     14  C   UNL     1      49.490   5.995  18.254  0.00  0.00    +0.000 C 
ENDBRANCH   7  14
ENDBRANCH   1  11
BRANCH   5  15
ATOM     15  C   UNL     1      44.143   4.645  11.568  0.00  0.00    +0.000 C 
ATOM     16  C   UNL     1      42.874   4.968  12.356  0.00  0.00    +0.000 C 
ATOM     17  C   UNL     1      43.385   3.569  12.314  0.00  0.00    +0.000 C 
BRANCH  15  18
ATOM     18  N   UNL     1      44.075   4.680  10.089  0.00  0.00    +0.000 N 
ATOM     19  H   UNL     1      43.857   5.598   9.705  0.00  0.00    +0.000 HD
BRANCH  18  20
ATOM     20  C   UNL     1      44.995   3.991   9.277  0.00  0.00    +0.000 A 
ATOM     21  C   UNL     1      45.141   2.616   9.205  0.00  0.00    +0.000 A 
ATOM     22  N   UNL     1      45.977   1.965   8.363  0.00  0.00    +0.000 NA
ATOM     23  C   UNL     1      46.682   2.747   7.525  0.00  0.00    +0.000 A 
ATOM     24  N   UNL     1      46.612   4.089   7.463  0.00  0.00    +0.000 NA
ATOM     25  C   UNL     1      45.759   4.669   8.337  0.00  0.00    +0.000 A 
BRANCH  23  26
ATOM     26  C   UNL     1      47.580   2.092   6.611  0.00  0.00    +0.000 C 
ATOM     27  N   UNL     1      48.304   1.561   5.868  0.00  0.00    +0.000 NA
ENDBRANCH  23  26
ENDBRANCH  18  20
ENDBRANCH  15  18
ENDBRANCH   5  15
TORSDOF 6
ENDMDL
MODEL 2
REMARK VINA RESULT:    -8.146      2.535      4.242
REMARK INTER + INTRA:         -11.631
REMARK INTER:                 -10.772
REMARK INTRA:                  -0.858
REMARK UNBOUND:                -0.627
REMARK  Name = 
REMARK  6 active torsions:
REMARK  status: ('A' for Active; 'I' for Inactive)
REMARK    1  A    between atoms: C_2  and  C_3
REMARK    2  A    between atoms: C_7  and  C_8
REMARK    3  A    between atoms: C_12  and  C_13
REMARK    4  A    between atoms: C_13  and  N_14
REMARK    5  A    between atoms: N_14  and  C_15
REMARK    6  A    between atoms: C_18  and  C_19
REMARK                            x       y       z     vdW  Elec       q    Type
REMARK                         _______ _______ _______ _____ _____    ______ ____
ROOT
ATOM      1  C   UNL     1      47.117   6.659  12.497  0.00  0.00    +0.000 A 
ATOM      2  C   UNL     1      47.504   5.870  13.589  0.00  0.00    +0.000 A 
ATOM      3  C   UNL     1      46.778   4.734  13.957  0.00  0.00    +0.000 A 
ATOM      4  C   UNL     1      45.645   4.359  13.235  0.00  0.00    +0.000 A 
ATOM      5  C   UNL     1      45.216   5.107  12.134  0.00  0.00    +0.000 A 
ATOM      6  C   UNL     1      45.979   6.242  11.785  0.00  0.00    +0.000 A 
ENDROOT
BRANCH   1  11
ATOM      7  C   UNL     1      49.906   9.018  11.413  0.00  0.00    +0.000 A 
ATOM      8  C   UNL     1      49.254  10.250  11.420  0.00  0.00    +0.000 A 
ATOM      9  C   UNL     1      47.909  10.318  11.769  0.00  0.00    +0.000 A 
ATOM     10  C   UNL     1      47.216   9.150  12.105  0.00  0.00    +0.000 A 
ATOM     11  C   UNL     1      47.846   7.892  12.109  0.00  0.00    +0.000 A 
ATOM     12  C   UNL     1      49.207   7.852  11.764  0.00  0.00    +0.000 A 
BRANCH   7  14
ATOM     13  N   UNL     1      52.416   8.876  10.777  0.00  0.00    +0.000 NA
ATOM     14  C   UNL     1      51.292   8.936  11.062  0.00  0.00    +0.000 C 
ENDBRANCH   7  14
ENDBRANCH   1  11
BRANCH   5  15
ATOM     15  C   UNL     1      43.992   4.747  11.304  0.00  0.00    +0.000 C 
ATOM     16  C   UNL     1      42.666   5.168  11.936  0.00  0.00    +0.000 C 
ATOM     17  C   UNL     1      42.978   3.722  11.760  0.00  0.00    +0.000 C 
BRANCH  15  18
ATOM     18  N   UNL     1      44.180   4.977   9.853  0.00  0.00    +0.000 N 
ATOM     19  H   UNL     1      44.193   5.961   9.587  0.00  0.00    +0.000 HD
BRANCH  18  20
ATOM     20  C   UNL     1      45.088   4.227   9.084  0.00  0.00    +0.000 A 
ATOM     21  C   UNL     1      45.109   2.847   8.972  0.00  0.00    +0.000 A 
ATOM     22  N   UNL     1      45.939   2.144   8.168  0.00  0.00    +0.000 NA
ATOM     23  C   UNL     1      46.775   2.878   7.411  0.00  0.00    +0.000 A 
ATOM     24  N   UNL     1      46.836   4.222   7.393  0.00  0.00    +0.000 NA
ATOM     25  C   UNL     1      45.979   4.855   8.225  0.00  0.00    +0.000 A 
BRANCH  23  26
ATOM     26  C   UNL     1      47.672   2.166   6.539  0.00  0.00    +0.000 C 
ATOM     27  N   UNL     1      48.396   1.586   5.834  0.00  0.00    +0.000 NA
ENDBRANCH  23  26
ENDBRANCH  18  20
ENDBRANCH  15  18
ENDBRANCH   5  15
TORSDOF 6
ENDMDL
MODEL 3
REMARK VINA RESULT:    -7.760      2.069      3.147
REMARK INTER + INTRA:         -11.109
REMARK INTER:                 -10.240
REMARK INTRA:                  -0.869
REMARK UNBOUND:                -0.627
REMARK  Name = 
REMARK  6 active torsions:
REMARK  status: ('A' for Active; 'I' for Inactive)
REMARK    1  A    between atoms: C_2  and  C_3
REMARK    2  A    between atoms: C_7  and  C_8
REMARK    3  A    between atoms: C_12  and  C_13
REMARK    4  A    between atoms: C_13  and  N_14
REMARK    5  A    between atoms: N_14  and  C_15
REMARK    6  A    between atoms: C_18  and  C_19
REMARK                            x       y       z     vdW  Elec       q    Type
REMARK                         _______ _______ _______ _____ _____    ______ ____
ROOT
ATOM      1  C   UNL     1      46.610   7.409  12.181  0.00  0.00    +0.000 A 
ATOM      2  C   UNL     1      45.747   8.457  11.834  0.00  0.00    +0.000 A 
ATOM      3  C   UNL     1      44.436   8.209  11.413  0.00  0.00    +0.000 A 
ATOM      4  C   UNL     1      43.959   6.901  11.334  0.00  0.00    +0.000 A 
ATOM      5  C   UNL     1      44.776   5.818  11.673  0.00  0.00    +0.000 A 
ATOM      6  C   UNL     1      46.088   6.105  12.102  0.00  0.00    +0.000 A 
ENDROOT
BRANCH   1  11
ATOM      7  C   UNL     1      49.804   7.477  14.257  0.00  0.00    +0.000 A 
ATOM      8  C   UNL     1      50.687   8.130  13.398  0.00  0.00    +0.000 A 
ATOM      9  C   UNL     1      50.251   8.544  12.143  0.00  0.00    +0.000 A 
ATOM     10  C   UNL     1      48.931   8.296  11.747  0.00  0.00    +0.000 A 
ATOM     11  C   UNL     1      48.017   7.641  12.591  0.00  0.00    +0.000 A 
ATOM     12  C   UNL     1      48.478   7.244  13.857  0.00  0.00    +0.000 A 
BRANCH   7  14
ATOM     13  N   UNL     1      50.597   6.709  16.603  0.00  0.00    +0.000 NA
ATOM     14  C   UNL     1      50.239   7.051  15.553  0.00  0.00    +0.000 C 
ENDBRANCH   7  14
ENDBRANCH   1  11
BRANCH   5  15
ATOM     15  C   UNL     1      44.311   4.369  11.613  0.00  0.00    +0.000 C 
ATOM     16  C   UNL     1      43.479   3.932  12.818  0.00  0.00    +0.000 C 
ATOM     17  C   UNL     1      44.815   3.317  12.577  0.00  0.00    +0.000 C 
BRANCH  15  18
ATOM     18  N   UNL     1      43.861   3.954  10.265  0.00  0.00    +0.000 N 
ATOM     19  H   UNL     1      43.132   4.546   9.870  0.00  0.00    +0.000 HD
BRANCH  18  20
ATOM     20  C   UNL     1      44.758   3.517   9.274  0.00  0.00    +0.000 A 
ATOM     21  C   UNL     1      45.476   4.332   8.414  0.00  0.00    +0.000 A 
ATOM     22  N   UNL     1      46.393   3.901   7.517  0.00  0.00    +0.000 NA
ATOM     23  C   UNL     1      46.621   2.574   7.511  0.00  0.00    +0.000 A 
ATOM     24  N   UNL     1      46.023   1.674   8.313  0.00  0.00    +0.000 NA
ATOM     25  C   UNL     1      45.117   2.179   9.180  0.00  0.00    +0.000 A 
BRANCH  23  26
ATOM     26  C   UNL     1      47.593   2.078   6.573  0.00  0.00    +0.000 C 
ATOM     27  N   UNL     1      48.381   1.672   5.816  0.00  0.00    +0.000 NA
ENDBRANCH  23  26
ENDBRANCH  18  20
ENDBRANCH  15  18
ENDBRANCH   5  15
TORSDOF 6
ENDMDL
MODEL 4
REMARK VINA RESULT:    -7.669      2.929      3.841
REMARK INTER + INTRA:         -10.986
REMARK INTER:                 -10.133
REMARK INTRA:                  -0.853
REMARK UNBOUND:                -0.627
REMARK  Name = 
REMARK  6 active torsions:
REMARK  status: ('A' for Active; 'I' for Inactive)
REMARK    1  A    between atoms: C_2  and  C_3
REMARK    2  A    between atoms: C_7  and  C_8
REMARK    3  A    between atoms: C_12  and  C_13
REMARK    4  A    between atoms: C_13  and  N_14
REMARK    5  A    between atoms: N_14  and  C_15
REMARK    6  A    between atoms: C_18  and  C_19
REMARK                            x       y       z     vdW  Elec       q    Type
REMARK                         _______ _______ _______ _____ _____    ______ ____
ROOT
ATOM      1  C   UNL     1      46.754   7.405  12.212  0.00  0.00    +0.000 A 
ATOM      2  C   UNL     1      45.883   8.453  11.883  0.00  0.00    +0.000 A 
ATOM      3  C   UNL     1      44.575   8.204  11.457  0.00  0.00    +0.000 A 
ATOM      4  C   UNL     1      44.106   6.894  11.354  0.00  0.00    +0.000 A 
ATOM      5  C   UNL     1      44.931   5.811  11.674  0.00  0.00    +0.000 A 
ATOM      6  C   UNL     1      46.241   6.100  12.109  0.00  0.00    +0.000 A 
ENDROOT
BRANCH   1  11
ATOM      7  C   UNL     1      50.478   8.193  12.074  0.00  0.00    +0.000 A 
ATOM      8  C   UNL     1      50.852   8.035  13.408  0.00  0.00    +0.000 A 
ATOM      9  C   UNL     1      49.896   7.679  14.355  0.00  0.00    +0.000 A 
ATOM     10  C   UNL     1      48.566   7.488  13.965  0.00  0.00    +0.000 A 
ATOM     11  C   UNL     1      48.159   7.640  12.627  0.00  0.00    +0.000 A 
ATOM     12  C   UNL     1      49.144   7.988  11.689  0.00  0.00    +0.000 A 
BRANCH   7  14
ATOM     13  N   UNL     1      52.247   8.849  10.295  0.00  0.00    +0.000 NA
ATOM     14  C   UNL     1      51.454   8.554  11.089  0.00  0.00    +0.000 C 
ENDBRANCH   7  14
ENDBRANCH   1  11
BRANCH   5  15
ATOM     15  C   UNL     1      44.477   4.361  11.587  0.00  0.00    +0.000 C 
ATOM     16  C   UNL     1      43.683   3.883  12.803  0.00  0.00    +0.000 C 
ATOM     17  C   UNL     1      45.017   3.287  12.506  0.00  0.00    +0.000 C 
BRANCH  15  18
ATOM     18  N   UNL     1      43.991   3.978  10.241  0.00  0.00    +0.000 N 
ATOM     19  H   UNL     1      43.269   4.594   9.870  0.00  0.00    +0.000 HD
BRANCH  18  20
ATOM     20  C   UNL     1      44.859   3.537   9.226  0.00  0.00    +0.000 A 
ATOM     21  C   UNL     1      45.562   4.348   8.352  0.00  0.00    +0.000 A 
ATOM     22  N   UNL     1      46.453   3.912   7.430  0.00  0.00    +0.000 NA
ATOM     23  C   UNL     1      46.666   2.584   7.412  0.00  0.00    +0.000 A 
ATOM     24  N   UNL     1      46.080   1.686   8.225  0.00  0.00    +0.000 NA
ATOM     25  C   UNL     1      45.201   2.196   9.117  0.00  0.00    +0.000 A 
BRANCH  23  26
ATOM     26  C   UNL     1      47.609   2.082   6.448  0.00  0.00    +0.000 C 
ATOM     27  N   UNL     1      48.373   1.672   5.669  0.00  0.00    +0.000 NA
ENDBRANCH  23  26
ENDBRANCH  18  20
ENDBRANCH  15  18
ENDBRANCH   5  15
TORSDOF 6
ENDMDL
MODEL 5
REMARK VINA RESULT:    -6.873      2.158      8.147
REMARK INTER + INTRA:          -9.911
REMARK INTER:                  -9.219
REMARK INTRA:                  -0.693
REMARK UNBOUND:                -0.627
REMARK  Name = 
REMARK  6 active torsions:
REMARK  status: ('A' for Active; 'I' for Inactive)
REMARK    1  A    between atoms: C_2  and  C_3
REMARK    2  A    between atoms: C_7  and  C_8
REMARK    3  A    between atoms: C_12  and  C_13
REMARK    4  A    between atoms: C_13  and  N_14
REMARK    5  A    between atoms: N_14  and  C_15
REMARK    6  A    between atoms: C_18  and  C_19
REMARK                            x       y       z     vdW  Elec       q    Type
REMARK                         _______ _______ _______ _____ _____    ______ ____
ROOT
ATOM      1  C   UNL     1      45.523   6.354  11.065  0.00  0.00    +0.000 A 
ATOM      2  C   UNL     1      44.519   7.286  11.361  0.00  0.00    +0.000 A 
ATOM      3  C   UNL     1      44.805   8.467  12.052  0.00  0.00    +0.000 A 
ATOM      4  C   UNL     1      46.109   8.744  12.462  0.00  0.00    +0.000 A 
ATOM      5  C   UNL     1      47.151   7.851  12.190  0.00  0.00    +0.000 A 
ATOM      6  C   UNL     1      46.827   6.674  11.482  0.00  0.00    +0.000 A 
ENDROOT
BRANCH   1  11
ATOM      7  C   UNL     1      45.477   3.614   8.419  0.00  0.00    +0.000 A 
ATOM      8  C   UNL     1      44.658   2.656   9.015  0.00  0.00    +0.000 A 
ATOM      9  C   UNL     1      44.125   2.894  10.279  0.00  0.00    +0.000 A 
ATOM     10  C   UNL     1      44.418   4.089  10.946  0.00  0.00    +0.000 A 
ATOM     11  C   UNL     1      45.240   5.075  10.370  0.00  0.00    +0.000 A 
ATOM     12  C   UNL     1      45.756   4.815   9.090  0.00  0.00    +0.000 A 
BRANCH   7  14
ATOM     13  N   UNL     1      46.469   3.200   6.059  0.00  0.00    +0.000 NA
ATOM     14  C   UNL     1      46.027   3.383   7.117  0.00  0.00    +0.000 C 
ENDBRANCH   7  14
ENDBRANCH   1  11
BRANCH   5  15
ATOM     15  C   UNL     1      48.594   8.098  12.605  0.00  0.00    +0.000 C 
ATOM     16  C   UNL     1      49.383   8.968  11.626  0.00  0.00    +0.000 C 
ATOM     17  C   UNL     1      49.766   7.543  11.826  0.00  0.00    +0.000 C 
BRANCH  15  18
ATOM     18  N   UNL     1      48.751   8.358  14.054  0.00  0.00    +0.000 N 
ATOM     19  H   UNL     1      48.320   9.226  14.369  0.00  0.00    +0.000 HD
BRANCH  18  20
ATOM     20  C   UNL     1      48.620   7.343  15.019  0.00  0.00    +0.000 A 
ATOM     21  C   UNL     1      48.202   6.045  14.778  0.00  0.00    +0.000 A 
ATOM     22  N   UNL     1      48.154   5.058  15.703  0.00  0.00    +0.000 NA
ATOM     23  C   UNL     1      48.582   5.394  16.933  0.00  0.00    +0.000 A 
ATOM     24  N   UNL     1      49.047   6.603  17.296  0.00  0.00    +0.000 NA
ATOM     25  C   UNL     1      49.061   7.539  16.320  0.00  0.00    +0.000 A 
BRANCH  23  26
ATOM     26  C   UNL     1      48.551   4.370  17.944  0.00  0.00    +0.000 C 
ATOM     27  N   UNL     1      48.529   3.541  18.763  0.00  0.00    +0.000 NA
ENDBRANCH  23  26
ENDBRANCH  18  20
ENDBRANCH  15  18
ENDBRANCH   5  15
TORSDOF 6
ENDMDL
MODEL 6
REMARK VINA RESULT:    -6.520      2.410      8.033
REMARK INTER + INTRA:          -9.434
REMARK INTER:                  -8.599
REMARK INTRA:                  -0.835
REMARK UNBOUND:                -0.627
REMARK  Name = 
REMARK  6 active torsions:
REMARK  status: ('A' for Active; 'I' for Inactive)
REMARK    1  A    between atoms: C_2  and  C_3
REMARK    2  A    between atoms: C_7  and  C_8
REMARK    3  A    between atoms: C_12  and  C_13
REMARK    4  A    between atoms: C_13  and  N_14
REMARK    5  A    between atoms: N_14  and  C_15
REMARK    6  A    between atoms: C_18  and  C_19
REMARK                            x       y       z     vdW  Elec       q    Type
REMARK                         _______ _______ _______ _____ _____    ______ ____
ROOT
ATOM      1  C   UNL     1      47.281   6.927  12.447  0.00  0.00    +0.000 A 
ATOM      2  C   UNL     1      48.292   7.336  11.567  0.00  0.00    +0.000 A 
ATOM      3  C   UNL     1      49.437   7.991  12.030  0.00  0.00    +0.000 A 
ATOM      4  C   UNL     1      49.597   8.250  13.392  0.00  0.00    +0.000 A 
ATOM      5  C   UNL     1      48.621   7.860  14.315  0.00  0.00    +0.000 A 
ATOM      6  C   UNL     1      47.484   7.192  13.813  0.00  0.00    +0.000 A 
ENDROOT
BRANCH   1  11
ATOM      7  C   UNL     1      44.800   5.028  10.268  0.00  0.00    +0.000 A 
ATOM      8  C   UNL     1      43.651   5.052  11.057  0.00  0.00    +0.000 A 
ATOM      9  C   UNL     1      43.680   5.679  12.300  0.00  0.00    +0.000 A 
ATOM     10  C   UNL     1      44.863   6.274  12.752  0.00  0.00    +0.000 A 
ATOM     11  C   UNL     1      46.038   6.267  11.978  0.00  0.00    +0.000 A 
ATOM     12  C   UNL     1      45.979   5.639  10.724  0.00  0.00    +0.000 A 
BRANCH   7  14
ATOM     13  N   UNL     1      44.762   3.879   7.943  0.00  0.00    +0.000 NA
ATOM     14  C   UNL     1      44.781   4.391   8.985  0.00  0.00    +0.000 C 
ENDBRANCH   7  14
ENDBRANCH   1  11
BRANCH   5  15
ATOM     15  C   UNL     1      48.740   8.108  15.812  0.00  0.00    +0.000 C 
ATOM     16  C   UNL     1      48.373   9.529  16.238  0.00  0.00    +0.000 C 
ATOM     17  C   UNL     1      49.773   9.046  16.397  0.00  0.00    +0.000 C 
BRANCH  15  18
ATOM     18  N   UNL     1      48.244   6.981  16.634  0.00  0.00    +0.000 N 
ATOM     19  H   UNL     1      47.238   6.831  16.569  0.00  0.00    +0.000 HD
BRANCH  18  20
ATOM     20  C   UNL     1      48.937   5.762  16.736  0.00  0.00    +0.000 A 
ATOM     21  C   UNL     1      50.287   5.617  17.010  0.00  0.00    +0.000 A 
ATOM     22  N   UNL     1      50.924   4.435  17.181  0.00  0.00    +0.000 NA
ATOM     23  C   UNL     1      50.148   3.339  17.100  0.00  0.00    +0.000 A 
ATOM     24  N   UNL     1      48.821   3.336  16.875  0.00  0.00    +0.000 NA
ATOM     25  C   UNL     1      48.255   4.553  16.711  0.00  0.00    +0.000 A 
BRANCH  23  26
ATOM     26  C   UNL     1      50.789   2.063  17.280  0.00  0.00    +0.000 C 
ATOM     27  N   UNL     1      51.311   1.032  17.428  0.00  0.00    +0.000 NA
ENDBRANCH  23  26
ENDBRANCH  18  20
ENDBRANCH  15  18
ENDBRANCH   5  15
TORSDOF 6
ENDMDL
MODEL 7
REMARK VINA RESULT:    -6.286      2.424      7.932
REMARK INTER + INTRA:          -9.119
REMARK INTER:                  -8.287
REMARK INTRA:                  -0.831
REMARK UNBOUND:                -0.627
REMARK  Name = 
REMARK  6 active torsions:
REMARK  status: ('A' for Active; 'I' for Inactive)
REMARK    1  A    between atoms: C_2  and  C_3
REMARK    2  A    between atoms: C_7  and  C_8
REMARK    3  A    between atoms: C_12  and  C_13
REMARK    4  A    between atoms: C_13  and  N_14
REMARK    5  A    between atoms: N_14  and  C_15
REMARK    6  A    between atoms: C_18  and  C_19
REMARK                            x       y       z     vdW  Elec       q    Type
REMARK                         _______ _______ _______ _____ _____    ______ ____
ROOT
ATOM      1  C   UNL     1      45.620   7.156  11.946  0.00  0.00    +0.000 A 
ATOM      2  C   UNL     1      44.916   8.359  11.796  0.00  0.00    +0.000 A 
ATOM      3  C   UNL     1      45.564   9.595  11.882  0.00  0.00    +0.000 A 
ATOM      4  C   UNL     1      46.938   9.654  12.118  0.00  0.00    +0.000 A 
ATOM      5  C   UNL     1      47.690   8.485  12.271  0.00  0.00    +0.000 A 
ATOM      6  C   UNL     1      47.005   7.256  12.168  0.00  0.00    +0.000 A 
ENDROOT
BRANCH   1  11
ATOM      7  C   UNL     1      44.580   3.671  10.812  0.00  0.00    +0.000 A 
ATOM      8  C   UNL     1      43.636   3.327  11.779  0.00  0.00    +0.000 A 
ATOM      9  C   UNL     1      43.340   4.222  12.804  0.00  0.00    +0.000 A 
ATOM     10  C   UNL     1      43.995   5.457  12.862  0.00  0.00    +0.000 A 
ATOM     11  C   UNL     1      44.951   5.833  11.900  0.00  0.00    +0.000 A 
ATOM     12  C   UNL     1      45.223   4.918  10.870  0.00  0.00    +0.000 A 
BRANCH   7  14
ATOM     13  N   UNL     1      45.138   2.021   8.892  0.00  0.00    +0.000 NA
ATOM     14  C   UNL     1      44.889   2.762   9.750  0.00  0.00    +0.000 C 
ENDBRANCH   7  14
ENDBRANCH   1  11
BRANCH   5  15
ATOM     15  C   UNL     1      49.191   8.483  12.524  0.00  0.00    +0.000 C 
ATOM     16  C   UNL     1      50.013   9.100  11.393  0.00  0.00    +0.000 C 
ATOM     17  C   UNL     1      50.149   7.649  11.703  0.00  0.00    +0.000 C 
BRANCH  15  18
ATOM     18  N   UNL     1      49.550   8.829  13.918  0.00  0.00    +0.000 N 
ATOM     19  H   UNL     1      49.019   9.609  14.303  0.00  0.00    +0.000 HD
BRANCH  18  20
ATOM     20  C   UNL     1      49.800   7.849  14.896  0.00  0.00    +0.000 A 
ATOM     21  C   UNL     1      48.914   6.865  15.302  0.00  0.00    +0.000 A 
ATOM     22  N   UNL     1      49.195   5.882  16.188  0.00  0.00    +0.000 NA
ATOM     23  C   UNL     1      50.453   5.874  16.667  0.00  0.00    +0.000 A 
ATOM     24  N   UNL     1      51.422   6.744  16.333  0.00  0.00    +0.000 NA
ATOM     25  C   UNL     1      51.066   7.700  15.445  0.00  0.00    +0.000 A 
BRANCH  23  26
ATOM     26  C   UNL     1      50.792   4.841  17.610  0.00  0.00    +0.000 C 
ATOM     27  N   UNL     1      51.067   4.007  18.376  0.00  0.00    +0.000 NA
ENDBRANCH  23  26
ENDBRANCH  18  20
ENDBRANCH  15  18
ENDBRANCH   5  15
TORSDOF 6
ENDMDL
MODEL 8
REMARK VINA RESULT:    -6.083      3.218      8.243
REMARK INTER + INTRA:          -8.844
REMARK INTER:                  -7.941
REMARK INTRA:                  -0.902
REMARK UNBOUND:                -0.627
REMARK  Name = 
REMARK  6 active torsions:
REMARK  status: ('A' for Active; 'I' for Inactive)
REMARK    1  A    between atoms: C_2  and  C_3
REMARK    2  A    between atoms: C_7  and  C_8
REMARK    3  A    between atoms: C_12  and  C_13
REMARK    4  A    between atoms: C_13  and  N_14
REMARK    5  A    between atoms: N_14  and  C_15
REMARK    6  A    between atoms: C_18  and  C_19
REMARK                            x       y       z     vdW  Elec       q    Type
REMARK                         _______ _______ _______ _____ _____    ______ ____
ROOT
ATOM      1  C   UNL     1      48.425   6.564  14.171  0.00  0.00    +0.000 A 
ATOM      2  C   UNL     1      49.563   7.330  13.880  0.00  0.00    +0.000 A 
ATOM      3  C   UNL     1      50.489   7.659  14.874  0.00  0.00    +0.000 A 
ATOM      4  C   UNL     1      50.298   7.225  16.186  0.00  0.00    +0.000 A 
ATOM      5  C   UNL     1      49.183   6.454  16.530  0.00  0.00    +0.000 A 
ATOM      6  C   UNL     1      48.274   6.133  15.500  0.00  0.00    +0.000 A 
ENDROOT
BRANCH   1  11
ATOM      7  C   UNL     1      45.503   4.894  12.387  0.00  0.00    +0.000 A 
ATOM      8  C   UNL     1      45.492   5.567  11.167  0.00  0.00    +0.000 A 
ATOM      9  C   UNL     1      46.428   6.567  10.921  0.00  0.00    +0.000 A 
ATOM     10  C   UNL     1      47.369   6.897  11.904  0.00  0.00    +0.000 A 
ATOM     11  C   UNL     1      47.406   6.235  13.144  0.00  0.00    +0.000 A 
ATOM     12  C   UNL     1      46.458   5.222  13.362  0.00  0.00    +0.000 A 
BRANCH   7  14
ATOM     13  N   UNL     1      43.777   3.018  12.865  0.00  0.00    +0.000 NA
ATOM     14  C   UNL     1      44.548   3.859  12.648  0.00  0.00    +0.000 C 
ENDBRANCH   7  14
ENDBRANCH   1  11
BRANCH   5  15
ATOM     15  C   UNL     1      48.921   5.946  17.941  0.00  0.00    +0.000 C 
ATOM     16  C   UNL     1      47.914   6.784  18.728  0.00  0.00    +0.000 C 
ATOM     17  C   UNL     1      49.335   6.724  19.171  0.00  0.00    +0.000 C 
BRANCH  15  18
ATOM     18  N   UNL     1      48.819   4.471  18.023  0.00  0.00    +0.000 N 
ATOM     19  H   UNL     1      47.975   4.089  17.599  0.00  0.00    +0.000 HD
BRANCH  18  20
ATOM     20  C   UNL     1      49.925   3.627  17.812  0.00  0.00    +0.000 A 
ATOM     21  C   UNL     1      51.213   3.850  18.268  0.00  0.00    +0.000 A 
ATOM     22  N   UNL     1      52.250   2.992  18.122  0.00  0.00    +0.000 NA
ATOM     23  C   UNL     1      51.960   1.830  17.508  0.00  0.00    +0.000 A 
ATOM     24  N   UNL     1      50.748   1.470  17.048  0.00  0.00    +0.000 NA
ATOM     25  C   UNL     1      49.764   2.379  17.226  0.00  0.00    +0.000 A 
BRANCH  23  26
ATOM     26  C   UNL     1      53.036   0.890  17.338  0.00  0.00    +0.000 C 
ATOM     27  N   UNL     1      53.906   0.127  17.196  0.00  0.00    +0.000 NA
ENDBRANCH  23  26
ENDBRANCH  18  20
ENDBRANCH  15  18
ENDBRANCH   5  15
TORSDOF 6
ENDMDL
MODEL 9
REMARK VINA RESULT:    -5.545      3.225      4.964
REMARK INTER + INTRA:          -8.117
REMARK INTER:                  -7.871
REMARK INTRA:                  -0.246
REMARK UNBOUND:                -0.627
REMARK  Name = 
REMARK  6 active torsions:
REMARK  status: ('A' for Active; 'I' for Inactive)
REMARK    1  A    between atoms: C_2  and  C_3
REMARK    2  A    between atoms: C_7  and  C_8
REMARK    3  A    between atoms: C_12  and  C_13
REMARK    4  A    between atoms: C_13  and  N_14
REMARK    5  A    between atoms: N_14  and  C_15
REMARK    6  A    between atoms: C_18  and  C_19
REMARK                            x       y       z     vdW  Elec       q    Type
REMARK                         _______ _______ _______ _____ _____    ______ ____
ROOT
ATOM      1  C   UNL     1      48.742   7.650  16.468  0.00  0.00    +0.000 A 
ATOM      2  C   UNL     1      49.198   8.882  16.958  0.00  0.00    +0.000 A 
ATOM      3  C   UNL     1      49.206  10.025  16.154  0.00  0.00    +0.000 A 
ATOM      4  C   UNL     1      48.754   9.962  14.837  0.00  0.00    +0.000 A 
ATOM      5  C   UNL     1      48.284   8.761  14.297  0.00  0.00    +0.000 A 
ATOM      6  C   UNL     1      48.280   7.629  15.139  0.00  0.00    +0.000 A 
ENDROOT
BRANCH   1  11
ATOM      7  C   UNL     1      48.983   3.981  17.464  0.00  0.00    +0.000 A 
ATOM      8  C   UNL     1      48.741   4.043  18.835  0.00  0.00    +0.000 A 
ATOM      9  C   UNL     1      48.507   5.274  19.441  0.00  0.00    +0.000 A 
ATOM     10  C   UNL     1      48.521   6.443  18.671  0.00  0.00    +0.000 A 
ATOM     11  C   UNL     1      48.760   6.413  17.285  0.00  0.00    +0.000 A 
ATOM     12  C   UNL     1      48.982   5.157  16.697  0.00  0.00    +0.000 A 
BRANCH   7  14
ATOM     13  N   UNL     1      49.412   1.699  16.309  0.00  0.00    +0.000 NA
ATOM     14  C   UNL     1      49.219   2.720  16.828  0.00  0.00    +0.000 C 
ENDBRANCH   7  14
ENDBRANCH   1  11
BRANCH   5  15
ATOM     15  C   UNL     1      47.772   8.629  12.869  0.00  0.00    +0.000 C 
ATOM     16  C   UNL     1      48.659   7.771  11.967  0.00  0.00    +0.000 C 
ATOM     17  C   UNL     1      48.505   9.227  11.689  0.00  0.00    +0.000 C 
BRANCH  15  18
ATOM     18  N   UNL     1      46.305   8.445  12.787  0.00  0.00    +0.000 N 
ATOM     19  H   UNL     1      45.819   9.197  12.302  0.00  0.00    +0.000 HD
BRANCH  18  20
ATOM     20  C   UNL     1      45.719   7.195  12.513  0.00  0.00    +0.000 A 
ATOM     21  C   UNL     1      45.847   6.053  13.284  0.00  0.00    +0.000 A 
ATOM     22  N   UNL     1      45.214   4.880  13.049  0.00  0.00    +0.000 NA
ATOM     23  C   UNL     1      44.382   4.870  11.992  0.00  0.00    +0.000 A 
ATOM     24  N   UNL     1      44.136   5.915  11.181  0.00  0.00    +0.000 NA
ATOM     25  C   UNL     1      44.806   7.052  11.476  0.00  0.00    +0.000 A 
BRANCH  23  26
ATOM     26  C   UNL     1      43.687   3.641  11.711  0.00  0.00    +0.000 C 
ATOM     27  N   UNL     1      43.129   2.644  11.484  0.00  0.00    +0.000 NA
ENDBRANCH  23  26
ENDBRANCH  18  20
ENDBRANCH  15  18
ENDBRANCH   5  15
TORSDOF 6
ENDMDL
