MODEL 1
REMARK VINA RESULT:    -8.383      0.000      0.000
REMARK INTER + INTRA:         -12.687
REMARK INTER:                 -11.569
REMARK INTRA:                  -1.118
REMARK UNBOUND:                -1.118
REMARK  Name = 
REMARK  7 active torsions:
REMARK  status: ('A' for Active; 'I' for Inactive)
REMARK    1  A    between atoms: N_1  and  C_2
REMARK    2  A    between atoms: C_2  and  N_3
REMARK    3  A    between atoms: C_2  and  C_11
REMARK    4  A    between atoms: C_4  and  C_6
REMARK    5  A    between atoms: C_14  and  C_15
REMARK    6  A    between atoms: C_15  and  N_16
REMARK    7  A    between atoms: C_17  and  C_19
REMARK                            x       y       z     vdW  Elec       q    Type
REMARK                         _______ _______ _______ _____ _____    ______ ____
ROOT
ATOM      1  C   UNL     1      45.245   5.094  10.878  0.00  0.00    +0.000 A 
ATOM      2  C   UNL     1      46.154   6.049  10.385  0.00  0.00    +0.000 A 
ATOM      3  C   UNL     1      46.733   7.002  11.224  0.00  0.00    +0.000 A 
ATOM      4  C   UNL     1      46.421   7.020  12.587  0.00  0.00    +0.000 A 
ATOM      5  C   UNL     1      45.478   6.108  13.077  0.00  0.00    +0.000 A 
ATOM      6  C   UNL     1      44.903   5.151  12.237  0.00  0.00    +0.000 A 
ENDROOT
BRANCH   1   7
ATOM      7  C   UNL     1      44.693   4.060   9.916  0.00  0.00    +0.000 C 
BRANCH   7   8
ATOM      8  N   UNL     1      45.534   3.747   8.810  0.00  0.00    +0.000 N 
ATOM      9  C   UNL     1      45.705   2.456   8.359  0.00  0.00    +0.000 C 
ATOM     10  O   UNL     1      45.144   1.492   8.872  0.00  0.00    +0.000 OA
ATOM     11  H   UNL     1      46.146   4.464   8.450  0.00  0.00    +0.000 HD
BRANCH   9  12
ATOM     12  C   UNL     1      46.588   2.335   7.223  0.00  0.00    +0.000 A 
ATOM     13  C   UNL     1      46.604   2.958   5.996  0.00  0.00    +0.000 A 
ATOM     14  C   UNL     1      47.740   2.436   5.356  0.00  0.00    +0.000 A 
ATOM     15  N   UNL     1      48.384   1.550   6.120  0.00  0.00    +0.000 NA
ATOM     16  O   UNL     1      47.656   1.486   7.297  0.00  0.00    +0.000 OA
ENDBRANCH   9  12
ENDBRANCH   7   8
BRANCH   7  17
ATOM     17  N   UNL     1      43.492   4.555   9.279  0.00  0.00    +0.000 NA
ATOM     18  H   UNL     1      42.901   4.972   9.991  0.00  0.00    +0.000 HD
ATOM     19  H   UNL     1      42.985   3.775   8.873  0.00  0.00    +0.000 HD
ENDBRANCH   7  17
ENDBRANCH   1   7
BRANCH   4  20
ATOM     20  C   UNL     1      47.071   8.002  13.522  0.00  0.00    +0.000 C 
BRANCH  20  21
ATOM     21  N   UNL     1      47.582   7.364  14.704  0.00  0.00    +0.000 N 
ATOM     22  C   UNL     1      48.830   6.807  14.766  0.00  0.00    +0.000 C 
ATOM     23  O   UNL     1      49.606   6.810  13.814  0.00  0.00    +0.000 OA
ATOM     24  H   UNL     1      46.906   7.151  15.428  0.00  0.00    +0.000 HD
BRANCH  22  25
ATOM     25  C   UNL     1      49.233   6.274  16.075  0.00  0.00    +0.000 A 
ATOM     26  C   UNL     1      50.224   6.915  16.804  0.00  0.00    +0.000 A 
ATOM     27  S   UNL     1      50.537   6.189  18.317  0.00  0.00    +0.000 S 
ATOM     28  C   UNL     1      49.388   4.967  18.030  0.00  0.00    +0.000 A 
ATOM     29  N   UNL     1      49.175   3.981  18.941  0.00  0.00    +0.000 NA
ATOM     30  C   UNL     1      48.296   3.101  18.580  0.00  0.00    +0.000 A 
ATOM     31  N   UNL     1      47.611   3.128  17.399  0.00  0.00    +0.000 N 
ATOM     32  C   UNL     1      47.746   4.136  16.476  0.00  0.00    +0.000 A 
ATOM     33  O   UNL     1      47.027   4.189  15.485  0.00  0.00    +0.000 OA
ATOM     34  C   UNL     1      48.753   5.126  16.810  0.00  0.00    +0.000 A 
ATOM     35  H   UNL     1      46.914   2.424  17.190  0.00  0.00    +0.000 HD
ENDBRANCH  22  25
ENDBRANCH  20  21
ENDBRANCH   4  20
TORSDOF 7
ENDMDL
MODEL 2
REMARK VINA RESULT:    -7.788      2.109      2.609
REMARK INTER + INTRA:         -11.866
REMARK INTER:                 -11.099
REMARK INTRA:                  -0.767
REMARK UNBOUND:                -1.118
REMARK  Name = 
REMARK  7 active torsions:
REMARK  status: ('A' for Active; 'I' for Inactive)
REMARK    1  A    between atoms: N_1  and  C_2
REMARK    2  A    between atoms: C_2  and  N_3
REMARK    3  A    between atoms: C_2  and  C_11
REMARK    4  A    between atoms: C_4  and  C_6
REMARK    5  A    between atoms: C_14  and  C_15
REMARK    6  A    between atoms: C_15  and  N_16
REMARK    7  A    between atoms: C_17  and  C_19
REMARK                            x       y       z     vdW  Elec       q    Type
REMARK                         _______ _______ _______ _____ _____    ______ ____
ROOT
ATOM      1  C   UNL     1      44.788   4.602  12.074  0.00  0.00    +0.000 A 
ATOM      2  C   UNL     1      44.094   5.756  11.660  0.00  0.00    +0.000 A 
ATOM      3  C   UNL     1      44.561   7.034  11.968  0.00  0.00    +0.000 A 
ATOM      4  C   UNL     1      45.744   7.194  12.695  0.00  0.00    +0.000 A 
ATOM      5  C   UNL     1      46.413   6.054  13.157  0.00  0.00    +0.000 A 
ATOM      6  C   UNL     1      45.947   4.774  12.844  0.00  0.00    +0.000 A 
ENDROOT
BRANCH   1   7
ATOM      7  C   UNL     1      44.247   3.248  11.661  0.00  0.00    +0.000 C 
BRANCH   7   8
ATOM      8  N   UNL     1      44.998   2.571  10.658  0.00  0.00    +0.000 N 
ATOM      9  C   UNL     1      45.017   2.990   9.345  0.00  0.00    +0.000 C 
ATOM     10  O   UNL     1      44.396   3.972   8.951  0.00  0.00    +0.000 OA
ATOM     11  H   UNL     1      45.396   1.670  10.878  0.00  0.00    +0.000 HD
BRANCH   9  12
ATOM     12  C   UNL     1      45.840   2.183   8.476  0.00  0.00    +0.000 A 
ATOM     13  C   UNL     1      46.719   2.512   7.470  0.00  0.00    +0.000 A 
ATOM     14  C   UNL     1      47.233   1.277   7.039  0.00  0.00    +0.000 A 
ATOM     15  N   UNL     1      46.713   0.253   7.720  0.00  0.00    +0.000 NA
ATOM     16  O   UNL     1      45.834   0.824   8.625  0.00  0.00    +0.000 OA
ENDBRANCH   9  12
ENDBRANCH   7   8
BRANCH   7  17
ATOM     17  N   UNL     1      42.944   3.391  11.047  0.00  0.00    +0.000 NA
ATOM     18  H   UNL     1      42.276   3.639  11.769  0.00  0.00    +0.000 HD
ATOM     19  H   UNL     1      42.661   2.498  10.655  0.00  0.00    +0.000 HD
ENDBRANCH   7  17
ENDBRANCH   1   7
BRANCH   4  20
ATOM     20  C   UNL     1      46.295   8.560  12.995  0.00  0.00    +0.000 C 
BRANCH  20  21
ATOM     21  N   UNL     1      46.952   8.607  14.272  0.00  0.00    +0.000 N 
ATOM     22  C   UNL     1      48.185   9.171  14.453  0.00  0.00    +0.000 C 
ATOM     23  O   UNL     1      48.823   9.680  13.534  0.00  0.00    +0.000 OA
ATOM     24  H   UNL     1      46.565   8.017  15.000  0.00  0.00    +0.000 HD
BRANCH  22  25
ATOM     25  C   UNL     1      48.677   9.217  15.837  0.00  0.00    +0.000 A 
ATOM     26  C   UNL     1      48.745  10.432  16.504  0.00  0.00    +0.000 A 
ATOM     27  S   UNL     1      49.297  10.297  18.114  0.00  0.00    +0.000 S 
ATOM     28  C   UNL     1      49.505   8.615  17.959  0.00  0.00    +0.000 A 
ATOM     29  N   UNL     1      49.989   7.874  18.991  0.00  0.00    +0.000 NA
ATOM     30  C   UNL     1      50.125   6.613  18.726  0.00  0.00    +0.000 A 
ATOM     31  N   UNL     1      49.813   6.035  17.529  0.00  0.00    +0.000 N 
ATOM     32  C   UNL     1      49.263   6.730  16.479  0.00  0.00    +0.000 A 
ATOM     33  O   UNL     1      48.886   6.154  15.466  0.00  0.00    +0.000 OA
ATOM     34  C   UNL     1      49.132   8.158  16.707  0.00  0.00    +0.000 A 
ATOM     35  H   UNL     1      49.916   5.036  17.395  0.00  0.00    +0.000 HD
ENDBRANCH  22  25
ENDBRANCH  20  21
ENDBRANCH   4  20
TORSDOF 7
ENDMDL
MODEL 3
REMARK VINA RESULT:    -7.381      2.583      3.227
REMARK INTER + INTRA:         -11.305
REMARK INTER:                 -10.181
REMARK INTRA:                  -1.124
REMARK UNBOUND:                -1.118
REMARK  Name = 
REMARK  7 active torsions:
REMARK  status: ('A' for Active; 'I' for Inactive)
REMARK    1  A    between atoms: N_1  and  C_2
REMARK    2  A    between atoms: C_2  and  N_3
REMARK    3  A    between atoms: C_2  and  C_11
REMARK    4  A    between atoms: C_4  and  C_6
REMARK    5  A    between atoms: C_14  and  C_15
REMARK    6  A    between atoms: C_15  and  N_16
REMARK    7  A    between atoms: C_17  and  C_19
REMARK                            x       y       z     vdW  Elec       q    Type
REMARK                         _______ _______ _______ _____ _____    ______ ____
ROOT
ATOM      1  C   UNL     1      45.218   5.806  11.429  0.00  0.00    +0.000 A 
ATOM      2  C   UNL     1      46.407   5.541  12.137  0.00  0.00    +0.000 A 
ATOM      3  C   UNL     1      47.074   6.545  12.841  0.00  0.00    +0.000 A 
ATOM      4  C   UNL     1      46.563   7.846  12.861  0.00  0.00    +0.000 A 
ATOM      5  C   UNL     1      45.411   8.132  12.118  0.00  0.00    +0.000 A 
ATOM      6  C   UNL     1      44.741   7.125  11.417  0.00  0.00    +0.000 A 
ENDROOT
BRANCH   1   7
ATOM      7  C   UNL     1      44.525   4.656  10.728  0.00  0.00    +0.000 C 
BRANCH   7   8
ATOM      8  N   UNL     1      45.317   3.959   9.770  0.00  0.00    +0.000 N 
ATOM      9  C   UNL     1      44.984   2.701   9.317  0.00  0.00    +0.000 C 
ATOM     10  O   UNL     1      43.985   2.099   9.699  0.00  0.00    +0.000 OA
ATOM     11  H   UNL     1      46.229   4.324   9.540  0.00  0.00    +0.000 HD
BRANCH   9  12
ATOM     12  C   UNL     1      45.901   2.159   8.343  0.00  0.00    +0.000 A 
ATOM     13  C   UNL     1      46.680   2.753   7.377  0.00  0.00    +0.000 A 
ATOM     14  C   UNL     1      47.378   1.686   6.787  0.00  0.00    +0.000 A 
ATOM     15  N   UNL     1      47.059   0.512   7.339  0.00  0.00    +0.000 NA
ATOM     16  O   UNL     1      46.127   0.811   8.319  0.00  0.00    +0.000 OA
ENDBRANCH   9  12
ENDBRANCH   7   8
BRANCH   7  17
ATOM     17  N   UNL     1      43.416   5.143   9.936  0.00  0.00    +0.000 NA
ATOM     18  H   UNL     1      43.773   5.817   9.266  0.00  0.00    +0.000 HD
ATOM     19  H   UNL     1      42.760   5.626  10.542  0.00  0.00    +0.000 HD
ENDBRANCH   7  17
ENDBRANCH   1   7
BRANCH   4  20
ATOM     20  C   UNL     1      47.233   8.933  13.654  0.00  0.00    +0.000 C 
BRANCH  20  21
ATOM     21  N   UNL     1      47.450   8.547  15.021  0.00  0.00    +0.000 N 
ATOM     22  C   UNL     1      48.696   8.353  15.550  0.00  0.00    +0.000 C 
ATOM     23  O   UNL     1      49.725   8.493  14.893  0.00  0.00    +0.000 OA
ATOM     24  H   UNL     1      46.638   8.214  15.529  0.00  0.00    +0.000 HD
BRANCH  22  25
ATOM     25  C   UNL     1      48.747   8.048  16.987  0.00  0.00    +0.000 A 
ATOM     26  C   UNL     1      49.172   6.798  17.411  0.00  0.00    +0.000 A 
ATOM     27  S   UNL     1      49.211   6.630  19.110  0.00  0.00    +0.000 S 
ATOM     28  C   UNL     1      48.620   8.210  19.334  0.00  0.00    +0.000 A 
ATOM     29  N   UNL     1      48.391   8.699  20.582  0.00  0.00    +0.000 NA
ATOM     30  C   UNL     1      47.913   9.903  20.605  0.00  0.00    +0.000 A 
ATOM     31  N   UNL     1      47.654  10.655  19.495  0.00  0.00    +0.000 N 
ATOM     32  C   UNL     1      47.927  10.229  18.218  0.00  0.00    +0.000 A 
ATOM     33  O   UNL     1      47.794  10.978  17.257  0.00  0.00    +0.000 OA
ATOM     34  C   UNL     1      48.423   8.867  18.132  0.00  0.00    +0.000 A 
ATOM     35  H   UNL     1      47.307  11.602  19.583  0.00  0.00    +0.000 HD
ENDBRANCH  22  25
ENDBRANCH  20  21
ENDBRANCH   4  20
TORSDOF 7
ENDMDL
MODEL 4
REMARK VINA RESULT:    -7.269      4.792      9.685
REMARK INTER + INTRA:         -11.149
REMARK INTER:                 -10.139
REMARK INTRA:                  -1.010
REMARK UNBOUND:                -1.118
REMARK  Name = 
REMARK  7 active torsions:
REMARK  status: ('A' for Active; 'I' for Inactive)
REMARK    1  A    between atoms: N_1  and  C_2
REMARK    2  A    between atoms: C_2  and  N_3
REMARK    3  A    between atoms: C_2  and  C_11
REMARK    4  A    between atoms: C_4  and  C_6
REMARK    5  A    between atoms: C_14  and  C_15
REMARK    6  A    between atoms: C_15  and  N_16
REMARK    7  A    between atoms: C_17  and  C_19
REMARK                            x       y       z     vdW  Elec       q    Type
REMARK                         _______ _______ _______ _____ _____    ______ ____
ROOT
ATOM      1  C   UNL     1      51.283   2.721  17.796  0.00  0.00    +0.000 A 
ATOM      2  C   UNL     1      50.474   1.826  17.071  0.00  0.00    +0.000 A 
ATOM      3  C   UNL     1      49.134   2.111  16.802  0.00  0.00    +0.000 A 
ATOM      4  C   UNL     1      48.568   3.309  17.248  0.00  0.00    +0.000 A 
ATOM      5  C   UNL     1      49.350   4.181  18.015  0.00  0.00    +0.000 A 
ATOM      6  C   UNL     1      50.692   3.897  18.279  0.00  0.00    +0.000 A 
ENDROOT
BRANCH   1   7
ATOM      7  C   UNL     1      52.741   2.365  18.008  0.00  0.00    +0.000 C 
BRANCH   7   8
ATOM      8  N   UNL     1      53.007   0.979  18.207  0.00  0.00    +0.000 N 
ATOM      9  C   UNL     1      54.281   0.458  18.134  0.00  0.00    +0.000 C 
ATOM     10  O   UNL     1      55.269   1.147  17.900  0.00  0.00    +0.000 OA
ATOM     11  H   UNL     1      52.230   0.337  18.240  0.00  0.00    +0.000 HD
BRANCH   9  12
ATOM     12  C   UNL     1      54.356  -0.964  18.371  0.00  0.00    +0.000 A 
ATOM     13  C   UNL     1      55.213  -1.934  17.906  0.00  0.00    +0.000 A 
ATOM     14  C   UNL     1      54.782  -3.112  18.539  0.00  0.00    +0.000 A 
ATOM     15  N   UNL     1      53.732  -2.898  19.336  0.00  0.00    +0.000 NA
ATOM     16  O   UNL     1      53.463  -1.543  19.229  0.00  0.00    +0.000 OA
ENDBRANCH   9  12
ENDBRANCH   7   8
BRANCH   7  17
ATOM     17  N   UNL     1      53.235   2.967  19.227  0.00  0.00    +0.000 NA
ATOM     18  H   UNL     1      54.248   2.994  19.183  0.00  0.00    +0.000 HD
ATOM     19  H   UNL     1      52.974   2.383  20.016  0.00  0.00    +0.000 HD
ENDBRANCH   7  17
ENDBRANCH   1   7
BRANCH   4  20
ATOM     20  C   UNL     1      47.143   3.663  16.927  0.00  0.00    +0.000 C 
BRANCH  20  21
ATOM     21  N   UNL     1      47.054   4.644  15.880  0.00  0.00    +0.000 N 
ATOM     22  C   UNL     1      47.100   4.319  14.552  0.00  0.00    +0.000 C 
ATOM     23  O   UNL     1      47.222   3.162  14.156  0.00  0.00    +0.000 OA
ATOM     24  H   UNL     1      47.171   5.611  16.159  0.00  0.00    +0.000 HD
BRANCH  22  25
ATOM     25  C   UNL     1      46.906   5.429  13.609  0.00  0.00    +0.000 A 
ATOM     26  C   UNL     1      47.974   6.253  13.287  0.00  0.00    +0.000 A 
ATOM     27  S   UNL     1      47.584   7.463  12.147  0.00  0.00    +0.000 S 
ATOM     28  C   UNL     1      45.962   6.952  12.079  0.00  0.00    +0.000 A 
ATOM     29  N   UNL     1      45.059   7.597  11.294  0.00  0.00    +0.000 NA
ATOM     30  C   UNL     1      43.856   7.123  11.362  0.00  0.00    +0.000 A 
ATOM     31  N   UNL     1      43.484   6.061  12.136  0.00  0.00    +0.000 N 
ATOM     32  C   UNL     1      44.371   5.338  12.896  0.00  0.00    +0.000 A 
ATOM     33  O   UNL     1      44.023   4.320  13.481  0.00  0.00    +0.000 OA
ATOM     34  C   UNL     1      45.727   5.857  12.892  0.00  0.00    +0.000 A 
ATOM     35  H   UNL     1      42.531   5.720  12.121  0.00  0.00    +0.000 HD
ENDBRANCH  22  25
ENDBRANCH  20  21
ENDBRANCH   4  20
TORSDOF 7
ENDMDL
MODEL 5
REMARK VINA RESULT:    -7.168      3.636      8.671
REMARK INTER + INTRA:         -11.010
REMARK INTER:                 -10.049
REMARK INTRA:                  -0.961
REMARK UNBOUND:                -1.118
REMARK  Name = 
REMARK  7 active torsions:
REMARK  status: ('A' for Active; 'I' for Inactive)
REMARK    1  A    between atoms: N_1  and  C_2
REMARK    2  A    between atoms: C_2  and  N_3
REMARK    3  A    between atoms: C_2  and  C_11
REMARK    4  A    between atoms: C_4  and  C_6
REMARK    5  A    between atoms: C_14  and  C_15
REMARK    6  A    between atoms: C_15  and  N_16
REMARK    7  A    between atoms: C_17  and  C_19
REMARK                            x       y       z     vdW  Elec       q    Type
REMARK                         _______ _______ _______ _____ _____    ______ ____
ROOT
ATOM      1  C   UNL     1      49.381   5.193  17.383  0.00  0.00    +0.000 A 
ATOM      2  C   UNL     1      48.187   4.860  16.715  0.00  0.00    +0.000 A 
ATOM      3  C   UNL     1      47.838   5.463  15.505  0.00  0.00    +0.000 A 
ATOM      4  C   UNL     1      48.683   6.414  14.926  0.00  0.00    +0.000 A 
ATOM      5  C   UNL     1      49.846   6.791  15.608  0.00  0.00    +0.000 A 
ATOM      6  C   UNL     1      50.197   6.183  16.817  0.00  0.00    +0.000 A 
ENDROOT
BRANCH   1   7
ATOM      7  C   UNL     1      49.716   4.462  18.667  0.00  0.00    +0.000 C 
BRANCH   7   8
ATOM      8  N   UNL     1      50.900   3.671  18.628  0.00  0.00    +0.000 N 
ATOM      9  C   UNL     1      51.057   2.627  17.742  0.00  0.00    +0.000 C 
ATOM     10  O   UNL     1      50.196   2.311  16.926  0.00  0.00    +0.000 OA
ATOM     11  H   UNL     1      51.574   3.771  19.372  0.00  0.00    +0.000 HD
BRANCH   9  12
ATOM     12  C   UNL     1      52.326   1.946  17.844  0.00  0.00    +0.000 A 
ATOM     13  C   UNL     1      53.621   2.376  17.668  0.00  0.00    +0.000 A 
ATOM     14  C   UNL     1      54.405   1.245  17.952  0.00  0.00    +0.000 A 
ATOM     15  N   UNL     1      53.658   0.187  18.278  0.00  0.00    +0.000 NA
ATOM     16  O   UNL     1      52.348   0.629  18.208  0.00  0.00    +0.000 OA
ENDBRANCH   9  12
ENDBRANCH   7   8
BRANCH   7  17
ATOM     17  N   UNL     1      48.689   3.491  18.978  0.00  0.00    +0.000 NA
ATOM     18  H   UNL     1      48.886   2.642  18.460  0.00  0.00    +0.000 HD
ATOM     19  H   UNL     1      47.790   3.845  18.666  0.00  0.00    +0.000 HD
ENDBRANCH   7  17
ENDBRANCH   1   7
BRANCH   4  20
ATOM     20  C   UNL     1      48.356   7.040  13.598  0.00  0.00    +0.000 C 
BRANCH  20  21
ATOM     21  N   UNL     1      47.520   6.192  12.794  0.00  0.00    +0.000 N 
ATOM     22  C   UNL     1      46.565   6.679  11.945  0.00  0.00    +0.000 C 
ATOM     23  O   UNL     1      46.351   7.881  11.808  0.00  0.00    +0.000 OA
ATOM     24  H   UNL     1      47.515   5.207  13.035  0.00  0.00    +0.000 HD
BRANCH  22  25
ATOM     25  C   UNL     1      45.858   5.683  11.128  0.00  0.00    +0.000 A 
ATOM     26  C   UNL     1      45.964   5.725   9.746  0.00  0.00    +0.000 A 
ATOM     27  S   UNL     1      45.117   4.470   8.958  0.00  0.00    +0.000 S 
ATOM     28  C   UNL     1      44.544   3.853  10.437  0.00  0.00    +0.000 A 
ATOM     29  N   UNL     1      43.721   2.772  10.471  0.00  0.00    +0.000 NA
ATOM     30  C   UNL     1      43.337   2.429  11.659  0.00  0.00    +0.000 A 
ATOM     31  N   UNL     1      43.711   3.066  12.808  0.00  0.00    +0.000 N 
ATOM     32  C   UNL     1      44.590   4.121  12.830  0.00  0.00    +0.000 A 
ATOM     33  O   UNL     1      44.994   4.588  13.888  0.00  0.00    +0.000 OA
ATOM     34  C   UNL     1      45.015   4.576  11.519  0.00  0.00    +0.000 A 
ATOM     35  H   UNL     1      43.398   2.729  13.710  0.00  0.00    +0.000 HD
ENDBRANCH  22  25
ENDBRANCH  20  21
ENDBRANCH   4  20
TORSDOF 7
ENDMDL
MODEL 6
REMARK VINA RESULT:    -7.087      2.398      3.184
REMARK INTER + INTRA:         -10.898
REMARK INTER:                 -10.096
REMARK INTRA:                  -0.802
REMARK UNBOUND:                -1.118
REMARK  Name = 
REMARK  7 active torsions:
REMARK  status: ('A' for Active; 'I' for Inactive)
REMARK    1  A    between atoms: N_1  and  C_2
REMARK    2  A    between atoms: C_2  and  N_3
REMARK    3  A    between atoms: C_2  and  C_11
REMARK    4  A    between atoms: C_4  and  C_6
REMARK    5  A    between atoms: C_14  and  C_15
REMARK    6  A    between atoms: C_15  and  N_16
REMARK    7  A    between atoms: C_17  and  C_19
REMARK                            x       y       z     vdW  Elec       q    Type
REMARK                         _______ _______ _______ _____ _____    ______ ____
ROOT
ATOM      1  C   UNL     1      45.132   4.280  11.515  0.00  0.00    +0.000 A 
ATOM      2  C   UNL     1      45.626   3.224  12.305  0.00  0.00    +0.000 A 
ATOM      3  C   UNL     1      46.259   3.464  13.525  0.00  0.00    +0.000 A 
ATOM      4  C   UNL     1      46.410   4.773  13.993  0.00  0.00    +0.000 A 
ATOM      5  C   UNL     1      45.970   5.833  13.190  0.00  0.00    +0.000 A 
ATOM      6  C   UNL     1      45.331   5.591  11.970  0.00  0.00    +0.000 A 
ENDROOT
BRANCH   1   7
ATOM      7  C   UNL     1      44.414   3.939  10.224  0.00  0.00    +0.000 C 
BRANCH   7   8
ATOM      8  N   UNL     1      45.259   3.661   9.111  0.00  0.00    +0.000 N 
ATOM      9  C   UNL     1      45.408   2.389   8.602  0.00  0.00    +0.000 C 
ATOM     10  O   UNL     1      44.823   1.415   9.064  0.00  0.00    +0.000 OA
ATOM     11  H   UNL     1      45.889   4.380   8.790  0.00  0.00    +0.000 HD
BRANCH   9  12
ATOM     12  C   UNL     1      46.299   2.303   7.469  0.00  0.00    +0.000 A 
ATOM     13  C   UNL     1      46.472   3.109   6.367  0.00  0.00    +0.000 A 
ATOM     14  C   UNL     1      47.522   2.506   5.656  0.00  0.00    +0.000 A 
ATOM     15  N   UNL     1      47.970   1.403   6.263  0.00  0.00    +0.000 NA
ATOM     16  O   UNL     1      47.198   1.276   7.405  0.00  0.00    +0.000 OA
ENDBRANCH   9  12
ENDBRANCH   7   8
BRANCH   7  17
ATOM     17  N   UNL     1      43.638   5.072   9.765  0.00  0.00    +0.000 NA
ATOM     18  H   UNL     1      42.993   5.337  10.502  0.00  0.00    +0.000 HD
ATOM     19  H   UNL     1      43.090   4.794   8.957  0.00  0.00    +0.000 HD
ENDBRANCH   7  17
ENDBRANCH   1   7
BRANCH   4  20
ATOM     20  C   UNL     1      47.041   5.055  15.327  0.00  0.00    +0.000 C 
BRANCH  20  21
ATOM     21  N   UNL     1      48.249   5.823  15.200  0.00  0.00    +0.000 N 
ATOM     22  C   UNL     1      48.847   6.449  16.259  0.00  0.00    +0.000 C 
ATOM     23  O   UNL     1      48.394   6.401  17.400  0.00  0.00    +0.000 OA
ATOM     24  H   UNL     1      48.531   6.065  14.257  0.00  0.00    +0.000 HD
BRANCH  22  25
ATOM     25  C   UNL     1      50.125   7.118  15.976  0.00  0.00    +0.000 A 
ATOM     26  C   UNL     1      50.133   8.326  15.293  0.00  0.00    +0.000 A 
ATOM     27  S   UNL     1      51.695   8.984  15.088  0.00  0.00    +0.000 S 
ATOM     28  C   UNL     1      52.417   7.654  15.868  0.00  0.00    +0.000 A 
ATOM     29  N   UNL     1      53.766   7.575  16.006  0.00  0.00    +0.000 NA
ATOM     30  C   UNL     1      54.182   6.496  16.591  0.00  0.00    +0.000 A 
ATOM     31  N   UNL     1      53.366   5.502  17.052  0.00  0.00    +0.000 N 
ATOM     32  C   UNL     1      51.996   5.566  16.992  0.00  0.00    +0.000 A 
ATOM     33  O   UNL     1      51.297   4.712  17.525  0.00  0.00    +0.000 OA
ATOM     34  C   UNL     1      51.478   6.735  16.304  0.00  0.00    +0.000 A 
ATOM     35  H   UNL     1      53.753   4.696  17.528  0.00  0.00    +0.000 HD
ENDBRANCH  22  25
ENDBRANCH  20  21
ENDBRANCH   4  20
TORSDOF 7
ENDMDL
MODEL 7
REMARK VINA RESULT:    -7.045      3.691      4.240
REMARK INTER + INTRA:         -10.841
REMARK INTER:                 -10.195
REMARK INTRA:                  -0.645
REMARK UNBOUND:                -1.118
REMARK  Name = 
REMARK  7 active torsions:
REMARK  status: ('A' for Active; 'I' for Inactive)
REMARK    1  A    between atoms: N_1  and  C_2
REMARK    2  A    between atoms: C_2  and  N_3
REMARK    3  A    between atoms: C_2  and  C_11
REMARK    4  A    between atoms: C_4  and  C_6
REMARK    5  A    between atoms: C_14  and  C_15
REMARK    6  A    between atoms: C_15  and  N_16
REMARK    7  A    between atoms: C_17  and  C_19
REMARK                            x       y       z     vdW  Elec       q    Type
REMARK                         _______ _______ _______ _____ _____    ______ ____
ROOT
ATOM      1  C   UNL     1      44.732   4.591  11.955  0.00  0.00    +0.000 A 
ATOM      2  C   UNL     1      43.834   5.602  11.561  0.00  0.00    +0.000 A 
ATOM      3  C   UNL     1      44.106   6.950  11.798  0.00  0.00    +0.000 A 
ATOM      4  C   UNL     1      45.293   7.325  12.434  0.00  0.00    +0.000 A 
ATOM      5  C   UNL     1      46.168   6.325  12.877  0.00  0.00    +0.000 A 
ATOM      6  C   UNL     1      45.897   4.976  12.634  0.00  0.00    +0.000 A 
ENDROOT
BRANCH   1   7
ATOM      7  C   UNL     1      44.391   3.153  11.621  0.00  0.00    +0.000 C 
BRANCH   7   8
ATOM      8  N   UNL     1      45.161   2.572  10.572  0.00  0.00    +0.000 N 
ATOM      9  C   UNL     1      45.072   3.007   9.267  0.00  0.00    +0.000 C 
ATOM     10  O   UNL     1      44.334   3.923   8.921  0.00  0.00    +0.000 OA
ATOM     11  H   UNL     1      45.661   1.715  10.757  0.00  0.00    +0.000 HD
BRANCH   9  12
ATOM     12  C   UNL     1      45.933   2.303   8.347  0.00  0.00    +0.000 A 
ATOM     13  C   UNL     1      46.772   2.741   7.348  0.00  0.00    +0.000 A 
ATOM     14  C   UNL     1      47.360   1.568   6.847  0.00  0.00    +0.000 A 
ATOM     15  N   UNL     1      46.920   0.477   7.480  0.00  0.00    +0.000 NA
ATOM     16  O   UNL     1      46.020   0.941   8.425  0.00  0.00    +0.000 OA
ENDBRANCH   9  12
ENDBRANCH   7   8
BRANCH   7  17
ATOM     17  N   UNL     1      43.037   3.059  11.118  0.00  0.00    +0.000 NA
ATOM     18  H   UNL     1      43.067   2.633  10.198  0.00  0.00    +0.000 HD
ATOM     19  H   UNL     1      42.654   3.994  11.015  0.00  0.00    +0.000 HD
ENDBRANCH   7  17
ENDBRANCH   1   7
BRANCH   4  20
ATOM     20  C   UNL     1      45.634   8.772  12.655  0.00  0.00    +0.000 C 
BRANCH  20  21
ATOM     21  N   UNL     1      46.958   8.938  13.189  0.00  0.00    +0.000 N 
ATOM     22  C   UNL     1      47.799   9.942  12.793  0.00  0.00    +0.000 C 
ATOM     23  O   UNL     1      47.483  10.777  11.949  0.00  0.00    +0.000 OA
ATOM     24  H   UNL     1      47.331   8.157  13.717  0.00  0.00    +0.000 HD
BRANCH  22  25
ATOM     25  C   UNL     1      49.084  10.025  13.501  0.00  0.00    +0.000 A 
ATOM     26  C   UNL     1      49.220  10.883  14.582  0.00  0.00    +0.000 A 
ATOM     27  S   UNL     1      50.761  10.821  15.313  0.00  0.00    +0.000 S 
ATOM     28  C   UNL     1      51.312   9.676  14.181  0.00  0.00    +0.000 A 
ATOM     29  N   UNL     1      52.589   9.210  14.225  0.00  0.00    +0.000 NA
ATOM     30  C   UNL     1      52.882   8.368  13.286  0.00  0.00    +0.000 A 
ATOM     31  N   UNL     1      52.012   7.949  12.320  0.00  0.00    +0.000 N 
ATOM     32  C   UNL     1      50.697   8.343  12.272  0.00  0.00    +0.000 A 
ATOM     33  O   UNL     1      49.917   7.853  11.464  0.00  0.00    +0.000 OA
ATOM     34  C   UNL     1      50.327   9.324  13.276  0.00  0.00    +0.000 A 
ATOM     35  H   UNL     1      52.297   7.265  11.630  0.00  0.00    +0.000 HD
ENDBRANCH  22  25
ENDBRANCH  20  21
ENDBRANCH   4  20
TORSDOF 7
ENDMDL
MODEL 8
REMARK VINA RESULT:    -6.950      4.618      9.517
REMARK INTER + INTRA:         -10.709
REMARK INTER:                  -9.534
REMARK INTRA:                  -1.175
REMARK UNBOUND:                -1.118
REMARK  Name = 
REMARK  7 active torsions:
REMARK  status: ('A' for Active; 'I' for Inactive)
REMARK    1  A    between atoms: N_1  and  C_2
REMARK    2  A    between atoms: C_2  and  N_3
REMARK    3  A    between atoms: C_2  and  C_11
REMARK    4  A    between atoms: C_4  and  C_6
REMARK    5  A    between atoms: C_14  and  C_15
REMARK    6  A    between atoms: C_15  and  N_16
REMARK    7  A    between atoms: C_17  and  C_19
REMARK                            x       y       z     vdW  Elec       q    Type
REMARK                         _______ _______ _______ _____ _____    ______ ____
ROOT
ATOM      1  C   UNL     1      51.237   2.926  17.818  0.00  0.00    +0.000 A 
ATOM      2  C   UNL     1      50.475   1.941  17.160  0.00  0.00    +0.000 A 
ATOM      3  C   UNL     1      49.140   2.162  16.819  0.00  0.00    +0.000 A 
ATOM      4  C   UNL     1      48.530   3.382  17.124  0.00  0.00    +0.000 A 
ATOM      5  C   UNL     1      49.263   4.348  17.826  0.00  0.00    +0.000 A 
ATOM      6  C   UNL     1      50.601   4.128  18.162  0.00  0.00    +0.000 A 
ENDROOT
BRANCH   1   7
ATOM      7  C   UNL     1      52.694   2.633  18.113  0.00  0.00    +0.000 C 
BRANCH   7   8
ATOM      8  N   UNL     1      52.993   1.272  18.415  0.00  0.00    +0.000 N 
ATOM      9  C   UNL     1      53.931   0.551  17.707  0.00  0.00    +0.000 C 
ATOM     10  O   UNL     1      54.573   1.029  16.777  0.00  0.00    +0.000 OA
ATOM     11  H   UNL     1      52.391   0.775  19.054  0.00  0.00    +0.000 HD
BRANCH   9  12
ATOM     12  C   UNL     1      54.102  -0.807  18.162  0.00  0.00    +0.000 A 
ATOM     13  C   UNL     1      55.000  -1.791  17.816  0.00  0.00    +0.000 A 
ATOM     14  C   UNL     1      54.668  -2.874  18.647  0.00  0.00    +0.000 A 
ATOM     15  N   UNL     1      53.638  -2.593  19.450  0.00  0.00    +0.000 NA
ATOM     16  O   UNL     1      53.281  -1.290  19.142  0.00  0.00    +0.000 OA
ENDBRANCH   9  12
ENDBRANCH   7   8
BRANCH   7  17
ATOM     17  N   UNL     1      53.116   3.329  19.309  0.00  0.00    +0.000 NA
ATOM     18  H   UNL     1      53.358   2.638  20.012  0.00  0.00    +0.000 HD
ATOM     19  H   UNL     1      52.341   3.878  19.667  0.00  0.00    +0.000 HD
ENDBRANCH   7  17
ENDBRANCH   1   7
BRANCH   4  20
ATOM     20  C   UNL     1      47.109   3.664  16.722  0.00  0.00    +0.000 C 
BRANCH  20  21
ATOM     21  N   UNL     1      47.029   4.657  15.686  0.00  0.00    +0.000 N 
ATOM     22  C   UNL     1      47.069   4.346  14.354  0.00  0.00    +0.000 C 
ATOM     23  O   UNL     1      47.177   3.193  13.946  0.00  0.00    +0.000 OA
ATOM     24  H   UNL     1      47.157   5.620  15.975  0.00  0.00    +0.000 HD
BRANCH  22  25
ATOM     25  C   UNL     1      46.886   5.469  13.424  0.00  0.00    +0.000 A 
ATOM     26  C   UNL     1      45.779   5.497  12.589  0.00  0.00    +0.000 A 
ATOM     27  S   UNL     1      45.700   6.891  11.606  0.00  0.00    +0.000 S 
ATOM     28  C   UNL     1      47.167   7.483  12.234  0.00  0.00    +0.000 A 
ATOM     29  N   UNL     1      47.697   8.652  11.786  0.00  0.00    +0.000 NA
ATOM     30  C   UNL     1      48.831   8.967  12.327  0.00  0.00    +0.000 A 
ATOM     31  N   UNL     1      49.471   8.222  13.276  0.00  0.00    +0.000 N 
ATOM     32  C   UNL     1      48.946   7.068  13.804  0.00  0.00    +0.000 A 
ATOM     33  O   UNL     1      49.491   6.493  14.739  0.00  0.00    +0.000 OA
ATOM     34  C   UNL     1      47.696   6.644  13.199  0.00  0.00    +0.000 A 
ATOM     35  H   UNL     1      50.343   8.539  13.680  0.00  0.00    +0.000 HD
ENDBRANCH  22  25
ENDBRANCH  20  21
ENDBRANCH   4  20
TORSDOF 7
ENDMDL
MODEL 9
REMARK VINA RESULT:    -6.871      2.058      2.663
REMARK INTER + INTRA:         -10.600
REMARK INTER:                  -9.485
REMARK INTRA:                  -1.116
REMARK UNBOUND:                -1.118
REMARK  Name = 
REMARK  7 active torsions:
REMARK  status: ('A' for Active; 'I' for Inactive)
REMARK    1  A    between atoms: N_1  and  C_2
REMARK    2  A    between atoms: C_2  and  N_3
REMARK    3  A    between atoms: C_2  and  C_11
REMARK    4  A    between atoms: C_4  and  C_6
REMARK    5  A    between atoms: C_14  and  C_15
REMARK    6  A    between atoms: C_15  and  N_16
REMARK    7  A    between atoms: C_17  and  C_19
REMARK                            x       y       z     vdW  Elec       q    Type
REMARK                         _______ _______ _______ _____ _____    ______ ____
ROOT
ATOM      1  C   UNL     1      45.734   7.034  12.321  0.00  0.00    +0.000 A 
ATOM      2  C   UNL     1      45.676   8.345  12.832  0.00  0.00    +0.000 A 
ATOM      3  C   UNL     1      46.727   8.883  13.576  0.00  0.00    +0.000 A 
ATOM      4  C   UNL     1      47.873   8.121  13.825  0.00  0.00    +0.000 A 
ATOM      5  C   UNL     1      47.918   6.798  13.368  0.00  0.00    +0.000 A 
ATOM      6  C   UNL     1      46.867   6.263  12.618  0.00  0.00    +0.000 A 
ENDROOT
BRANCH   1   7
ATOM      7  C   UNL     1      44.576   6.535  11.481  0.00  0.00    +0.000 C 
BRANCH   7   8
ATOM      8  N   UNL     1      44.939   5.887  10.265  0.00  0.00    +0.000 N 
ATOM      9  C   UNL     1      45.002   4.514  10.155  0.00  0.00    +0.000 C 
ATOM     10  O   UNL     1      44.745   3.759  11.087  0.00  0.00    +0.000 OA
ATOM     11  H   UNL     1      45.317   6.444   9.514  0.00  0.00    +0.000 HD
BRANCH   9  12
ATOM     12  C   UNL     1      45.380   4.041   8.845  0.00  0.00    +0.000 A 
ATOM     13  C   UNL     1      45.005   2.933   8.119  0.00  0.00    +0.000 A 
ATOM     14  C   UNL     1      45.695   3.064   6.902  0.00  0.00    +0.000 A 
ATOM     15  N   UNL     1      46.449   4.167   6.869  0.00  0.00    +0.000 NA
ATOM     16  O   UNL     1      46.250   4.781   8.095  0.00  0.00    +0.000 OA
ENDBRANCH   9  12
ENDBRANCH   7   8
BRANCH   7  17
ATOM     17  N   UNL     1      43.768   7.646  11.025  0.00  0.00    +0.000 NA
ATOM     18  H   UNL     1      44.033   8.471  11.553  0.00  0.00    +0.000 HD
ATOM     19  H   UNL     1      42.791   7.451  11.224  0.00  0.00    +0.000 HD
ENDBRANCH   7  17
ENDBRANCH   1   7
BRANCH   4  20
ATOM     20  C   UNL     1      49.040   8.694  14.580  0.00  0.00    +0.000 C 
BRANCH  20  21
ATOM     21  N   UNL     1      49.233   8.044  15.847  0.00  0.00    +0.000 N 
ATOM     22  C   UNL     1      48.596   8.443  16.991  0.00  0.00    +0.000 C 
ATOM     23  O   UNL     1      47.811   9.388  17.019  0.00  0.00    +0.000 OA
ATOM     24  H   UNL     1      50.021   7.412  15.913  0.00  0.00    +0.000 HD
BRANCH  22  25
ATOM     25  C   UNL     1      48.834   7.617  18.183  0.00  0.00    +0.000 A 
ATOM     26  C   UNL     1      49.246   8.216  19.365  0.00  0.00    +0.000 A 
ATOM     27  S   UNL     1      49.433   7.117  20.658  0.00  0.00    +0.000 S 
ATOM     28  C   UNL     1      49.012   5.797  19.670  0.00  0.00    +0.000 A 
ATOM     29  N   UNL     1      49.003   4.531  20.163  0.00  0.00    +0.000 NA
ATOM     30  C   UNL     1      48.695   3.621  19.294  0.00  0.00    +0.000 A 
ATOM     31  N   UNL     1      48.389   3.869  17.986  0.00  0.00    +0.000 N 
ATOM     32  C   UNL     1      48.323   5.136  17.458  0.00  0.00    +0.000 A 
ATOM     33  O   UNL     1      47.927   5.326  16.314  0.00  0.00    +0.000 OA
ATOM     34  C   UNL     1      48.705   6.191  18.379  0.00  0.00    +0.000 A 
ATOM     35  H   UNL     1      48.127   3.114  17.365  0.00  0.00    +0.000 HD
ENDBRANCH  22  25
ENDBRANCH  20  21
ENDBRANCH   4  20
TORSDOF 7
ENDMDL
