MODEL 1
REMARK VINA RESULT:    -8.681      0.000      0.000
REMARK INTER + INTRA:         -12.984
REMARK INTER:                 -11.726
REMARK INTRA:                  -1.258
REMARK UNBOUND:                -1.258
REMARK  Name = 
REMARK  6 active torsions:
REMARK  status: ('A' for Active; 'I' for Inactive)
REMARK    1  A    between atoms: C_2  and  C_26
REMARK    2  A    between atoms: N_3  and  C_4
REMARK    3  A    between atoms: C_4  and  C_5
REMARK    4  A    between atoms: C_8  and  C_9
REMARK    5  A    between atoms: C_9  and  N_10
REMARK    6  A    between atoms: C_11  and  C_13
REMARK                            x       y       z     vdW  Elec       q    Type
REMARK                         _______ _______ _______ _____ _____    ______ ____
ROOT
ATOM      1  C   UNL     1      44.680   5.792  10.911  0.00  0.00    +0.000 A 
ATOM      2  C   UNL     1      44.125   6.407  12.043  0.00  0.00    +0.000 A 
ATOM      3  C   UNL     1      44.913   7.205  12.882  0.00  0.00    +0.000 A 
ATOM      4  C   UNL     1      46.278   7.381  12.621  0.00  0.00    +0.000 A 
ATOM      5  C   UNL     1      46.824   6.760  11.497  0.00  0.00    +0.000 A 
ATOM      6  F   UNL     1      48.126   6.910  11.217  0.00  0.00    +0.000 F 
ATOM      7  C   UNL     1      46.045   5.969  10.652  0.00  0.00    +0.000 A 
ENDROOT
BRANCH   1   8
ATOM      8  C   UNL     1      43.835   4.938  10.003  0.00  0.00    +0.000 C 
BRANCH   8  11
ATOM      9  O   UNL     1      45.123   2.458  10.098  0.00  0.00    +0.000 OA
ATOM     10  C   UNL     1      45.212   3.133   9.079  0.00  0.00    +0.000 C 
ATOM     11  N   UNL     1      44.621   4.369   8.933  0.00  0.00    +0.000 N 
ATOM     12  H   UNL     1      44.568   4.803   8.022  0.00  0.00    +0.000 HD
BRANCH  10  13
ATOM     13  C   UNL     1      45.960   2.620   7.909  0.00  0.00    +0.000 A 
ATOM     14  C   UNL     1      46.227   3.398   6.781  0.00  0.00    +0.000 A 
ATOM     15  C   UNL     1      46.933   2.839   5.717  0.00  0.00    +0.000 A 
ATOM     16  C   UNL     1      47.351   1.521   5.821  0.00  0.00    +0.000 A 
ATOM     17  N   UNL     1      47.123   0.747   6.904  0.00  0.00    +0.000 NA
ATOM     18  C   UNL     1      46.442   1.318   7.930  0.00  0.00    +0.000 A 
ENDBRANCH  10  13
ENDBRANCH   8  11
ENDBRANCH   1   8
BRANCH   4  19
ATOM     19  C   UNL     1      47.128   8.237  13.519  0.00  0.00    +0.000 C 
BRANCH  19  20
ATOM     20  N   UNL     1      47.593   7.509  14.673  0.00  0.00    +0.000 N 
ATOM     21  C   UNL     1      48.837   6.938  14.751  0.00  0.00    +0.000 C 
ATOM     22  O   UNL     1      49.664   7.040  13.849  0.00  0.00    +0.000 OA
ATOM     23  H   UNL     1      46.887   7.264  15.359  0.00  0.00    +0.000 HD
BRANCH  21  24
ATOM     24  C   UNL     1      49.155   6.242  16.007  0.00  0.00    +0.000 A 
ATOM     25  C   UNL     1      50.215   6.680  16.790  0.00  0.00    +0.000 A 
ATOM     26  S   UNL     1      50.431   5.773  18.219  0.00  0.00    +0.000 S 
ATOM     27  C   UNL     1      49.138   4.741  17.825  0.00  0.00    +0.000 A 
ATOM     28  N   UNL     1      48.795   3.704  18.640  0.00  0.00    +0.000 NA
ATOM     29  C   UNL     1      47.810   2.991  18.207  0.00  0.00    +0.000 A 
ATOM     30  N   UNL     1      47.131   3.221  17.041  0.00  0.00    +0.000 N 
ATOM     31  C   UNL     1      47.417   4.275  16.207  0.00  0.00    +0.000 A 
ATOM     32  O   UNL     1      46.740   4.496  15.209  0.00  0.00    +0.000 OA
ATOM     33  C   UNL     1      48.534   5.096  16.631  0.00  0.00    +0.000 A 
ATOM     34  H   UNL     1      46.353   2.639  16.769  0.00  0.00    +0.000 HD
ENDBRANCH  21  24
ENDBRANCH  19  20
ENDBRANCH   4  19
TORSDOF 6
ENDMDL
MODEL 2
REMARK VINA RESULT:    -7.699      1.689      1.932
REMARK INTER + INTRA:         -11.657
REMARK INTER:                 -10.556
REMARK INTRA:                  -1.101
REMARK UNBOUND:                -1.258
REMARK  Name = 
REMARK  6 active torsions:
REMARK  status: ('A' for Active; 'I' for Inactive)
REMARK    1  A    between atoms: C_2  and  C_26
REMARK    2  A    between atoms: N_3  and  C_4
REMARK    3  A    between atoms: C_4  and  C_5
REMARK    4  A    between atoms: C_8  and  C_9
REMARK    5  A    between atoms: C_9  and  N_10
REMARK    6  A    between atoms: C_11  and  C_13
REMARK                            x       y       z     vdW  Elec       q    Type
REMARK                         _______ _______ _______ _____ _____    ______ ____
ROOT
ATOM      1  C   UNL     1      45.005   6.194  11.167  0.00  0.00    +0.000 A 
ATOM      2  C   UNL     1      44.506   7.415  11.642  0.00  0.00    +0.000 A 
ATOM      3  C   UNL     1      45.317   8.278  12.388  0.00  0.00    +0.000 A 
ATOM      4  C   UNL     1      46.637   7.925  12.698  0.00  0.00    +0.000 A 
ATOM      5  C   UNL     1      47.125   6.705  12.228  0.00  0.00    +0.000 A 
ATOM      6  F   UNL     1      48.383   6.337  12.503  0.00  0.00    +0.000 F 
ATOM      7  C   UNL     1      46.325   5.842  11.477  0.00  0.00    +0.000 A 
ENDROOT
BRANCH   1   8
ATOM      8  C   UNL     1      44.138   5.266  10.358  0.00  0.00    +0.000 C 
BRANCH   8  11
ATOM      9  O   UNL     1      44.883   2.577  10.166  0.00  0.00    +0.000 OA
ATOM     10  C   UNL     1      45.186   3.342   9.258  0.00  0.00    +0.000 C 
ATOM     11  N   UNL     1      44.871   4.684   9.258  0.00  0.00    +0.000 N 
ATOM     12  H   UNL     1      44.978   5.231   8.416  0.00  0.00    +0.000 HD
BRANCH  10  13
ATOM     13  C   UNL     1      45.900   2.836   8.064  0.00  0.00    +0.000 A 
ATOM     14  C   UNL     1      46.185   3.636   6.956  0.00  0.00    +0.000 A 
ATOM     15  C   UNL     1      46.858   3.082   5.869  0.00  0.00    +0.000 A 
ATOM     16  C   UNL     1      47.226   1.746   5.930  0.00  0.00    +0.000 A 
ATOM     17  N   UNL     1      46.980   0.950   6.992  0.00  0.00    +0.000 NA
ATOM     18  C   UNL     1      46.332   1.516   8.042  0.00  0.00    +0.000 A 
ENDBRANCH  10  13
ENDBRANCH   8  11
ENDBRANCH   1   8
BRANCH   4  19
ATOM     19  C   UNL     1      47.512   8.848  13.498  0.00  0.00    +0.000 C 
BRANCH  19  20
ATOM     20  N   UNL     1      47.668   8.397  14.859  0.00  0.00    +0.000 N 
ATOM     21  C   UNL     1      48.378   9.089  15.805  0.00  0.00    +0.000 C 
ATOM     22  O   UNL     1      48.905  10.172  15.568  0.00  0.00    +0.000 OA
ATOM     23  H   UNL     1      47.393   7.437  15.043  0.00  0.00    +0.000 HD
BRANCH  21  24
ATOM     24  C   UNL     1      48.426   8.492  17.148  0.00  0.00    +0.000 A 
ATOM     25  C   UNL     1      48.029   9.237  18.250  0.00  0.00    +0.000 A 
ATOM     26  S   UNL     1      48.130   8.386  19.725  0.00  0.00    +0.000 S 
ATOM     27  C   UNL     1      48.741   7.002  18.948  0.00  0.00    +0.000 A 
ATOM     28  N   UNL     1      49.067   5.886  19.658  0.00  0.00    +0.000 NA
ATOM     29  C   UNL     1      49.539   4.920  18.943  0.00  0.00    +0.000 A 
ATOM     30  N   UNL     1      49.707   4.961  17.585  0.00  0.00    +0.000 N 
ATOM     31  C   UNL     1      49.357   6.051  16.824  0.00  0.00    +0.000 A 
ATOM     32  O   UNL     1      49.451   6.026  15.601  0.00  0.00    +0.000 OA
ATOM     33  C   UNL     1      48.845   7.178  17.579  0.00  0.00    +0.000 A 
ATOM     34  H   UNL     1      50.060   4.163  17.080  0.00  0.00    +0.000 HD
ENDBRANCH  21  24
ENDBRANCH  19  20
ENDBRANCH   4  19
TORSDOF 6
ENDMDL
MODEL 3
REMARK VINA RESULT:    -7.519      2.027      2.334
REMARK INTER + INTRA:         -11.415
REMARK INTER:                 -10.614
REMARK INTRA:                  -0.801
REMARK UNBOUND:                -1.258
REMARK  Name = 
REMARK  6 active torsions:
REMARK  status: ('A' for Active; 'I' for Inactive)
REMARK    1  A    between atoms: C_2  and  C_26
REMARK    2  A    between atoms: N_3  and  C_4
REMARK    3  A    between atoms: C_4  and  C_5
REMARK    4  A    between atoms: C_8  and  C_9
REMARK    5  A    between atoms: C_9  and  N_10
REMARK    6  A    between atoms: C_11  and  C_13
REMARK                            x       y       z     vdW  Elec       q    Type
REMARK                         _______ _______ _______ _____ _____    ______ ____
ROOT
ATOM      1  C   UNL     1      45.162   5.882  11.231  0.00  0.00    +0.000 A 
ATOM      2  C   UNL     1      45.126   7.273  11.404  0.00  0.00    +0.000 A 
ATOM      3  C   UNL     1      45.997   7.905  12.301  0.00  0.00    +0.000 A 
ATOM      4  C   UNL     1      46.903   7.155  13.062  0.00  0.00    +0.000 A 
ATOM      5  C   UNL     1      46.927   5.770  12.889  0.00  0.00    +0.000 A 
ATOM      6  F   UNL     1      47.783   5.023  13.599  0.00  0.00    +0.000 F 
ATOM      7  C   UNL     1      46.068   5.133  11.992  0.00  0.00    +0.000 A 
ENDROOT
BRANCH   1   8
ATOM      8  C   UNL     1      44.232   5.200  10.263  0.00  0.00    +0.000 C 
BRANCH   8  11
ATOM      9  O   UNL     1      44.881   2.487  10.070  0.00  0.00    +0.000 OA
ATOM     10  C   UNL     1      45.224   3.243   9.169  0.00  0.00    +0.000 C 
ATOM     11  N   UNL     1      44.958   4.595   9.171  0.00  0.00    +0.000 N 
ATOM     12  H   UNL     1      45.097   5.141   8.331  0.00  0.00    +0.000 HD
BRANCH  10  13
ATOM     13  C   UNL     1      45.937   2.715   7.984  0.00  0.00    +0.000 A 
ATOM     14  C   UNL     1      46.163   3.476   6.835  0.00  0.00    +0.000 A 
ATOM     15  C   UNL     1      46.838   2.903   5.759  0.00  0.00    +0.000 A 
ATOM     16  C   UNL     1      47.266   1.589   5.871  0.00  0.00    +0.000 A 
ATOM     17  N   UNL     1      47.079   0.832   6.973  0.00  0.00    +0.000 NA
ATOM     18  C   UNL     1      46.427   1.416   8.011  0.00  0.00    +0.000 A 
ENDBRANCH  10  13
ENDBRANCH   8  11
ENDBRANCH   1   8
BRANCH   4  19
ATOM     19  C   UNL     1      47.840   7.828  14.025  0.00  0.00    +0.000 C 
BRANCH  19  20
ATOM     20  N   UNL     1      47.830   7.191  15.319  0.00  0.00    +0.000 N 
ATOM     21  C   UNL     1      48.945   6.635  15.892  0.00  0.00    +0.000 C 
ATOM     22  O   UNL     1      50.048   6.675  15.355  0.00  0.00    +0.000 OA
ATOM     23  H   UNL     1      46.915   6.994  15.711  0.00  0.00    +0.000 HD
BRANCH  21  24
ATOM     24  C   UNL     1      48.762   6.038  17.222  0.00  0.00    +0.000 A 
ATOM     25  C   UNL     1      49.023   4.687  17.415  0.00  0.00    +0.000 A 
ATOM     26  S   UNL     1      48.777   4.164  19.021  0.00  0.00    +0.000 S 
ATOM     27  C   UNL     1      48.277   5.716  19.508  0.00  0.00    +0.000 A 
ATOM     28  N   UNL     1      47.894   5.957  20.792  0.00  0.00    +0.000 NA
ATOM     29  C   UNL     1      47.519   7.172  21.016  0.00  0.00    +0.000 A 
ATOM     30  N   UNL     1      47.500   8.170  20.079  0.00  0.00    +0.000 N 
ATOM     31  C   UNL     1      47.912   7.981  18.781  0.00  0.00    +0.000 A 
ATOM     32  O   UNL     1      47.953   8.915  17.987  0.00  0.00    +0.000 OA
ATOM     33  C   UNL     1      48.320   6.626  18.466  0.00  0.00    +0.000 A 
ATOM     34  H   UNL     1      47.217   9.107  20.322  0.00  0.00    +0.000 HD
ENDBRANCH  21  24
ENDBRANCH  19  20
ENDBRANCH   4  19
TORSDOF 6
ENDMDL
MODEL 4
REMARK VINA RESULT:    -7.437      5.095      9.399
REMARK INTER + INTRA:         -11.304
REMARK INTER:                 -10.407
REMARK INTRA:                  -0.898
REMARK UNBOUND:                -1.258
REMARK  Name = 
REMARK  6 active torsions:
REMARK  status: ('A' for Active; 'I' for Inactive)
REMARK    1  A    between atoms: C_2  and  C_26
REMARK    2  A    between atoms: N_3  and  C_4
REMARK    3  A    between atoms: C_4  and  C_5
REMARK    4  A    between atoms: C_8  and  C_9
REMARK    5  A    between atoms: C_9  and  N_10
REMARK    6  A    between atoms: C_11  and  C_13
REMARK                            x       y       z     vdW  Elec       q    Type
REMARK                         _______ _______ _______ _____ _____    ______ ____
ROOT
ATOM      1  C   UNL     1      51.403   3.113  17.710  0.00  0.00    +0.000 A 
ATOM      2  C   UNL     1      50.675   2.058  17.141  0.00  0.00    +0.000 A 
ATOM      3  C   UNL     1      49.301   2.183  16.904  0.00  0.00    +0.000 A 
ATOM      4  C   UNL     1      48.621   3.357  17.256  0.00  0.00    +0.000 A 
ATOM      5  C   UNL     1      49.351   4.399  17.828  0.00  0.00    +0.000 A 
ATOM      6  F   UNL     1      48.733   5.537  18.175  0.00  0.00    +0.000 F 
ATOM      7  C   UNL     1      50.722   4.286  18.062  0.00  0.00    +0.000 A 
ENDROOT
BRANCH   1   8
ATOM      8  C   UNL     1      52.882   2.985  17.961  0.00  0.00    +0.000 C 
BRANCH   8  11
ATOM      9  O   UNL     1      54.251   1.096  19.504  0.00  0.00    +0.000 OA
ATOM     10  C   UNL     1      54.052   0.860  18.318  0.00  0.00    +0.000 C 
ATOM     11  N   UNL     1      53.393   1.726  17.472  0.00  0.00    +0.000 N 
ATOM     12  H   UNL     1      53.094   1.414  16.558  0.00  0.00    +0.000 HD
BRANCH  10  13
ATOM     13  C   UNL     1      54.498  -0.423  17.728  0.00  0.00    +0.000 A 
ATOM     14  C   UNL     1      54.836  -0.560  16.381  0.00  0.00    +0.000 A 
ATOM     15  C   UNL     1      55.241  -1.804  15.901  0.00  0.00    +0.000 A 
ATOM     16  C   UNL     1      55.298  -2.867  16.789  0.00  0.00    +0.000 A 
ATOM     17  N   UNL     1      54.994  -2.765  18.101  0.00  0.00    +0.000 NA
ATOM     18  C   UNL     1      54.611  -1.540  18.545  0.00  0.00    +0.000 A 
ENDBRANCH  10  13
ENDBRANCH   8  11
ENDBRANCH   1   8
BRANCH   4  19
ATOM     19  C   UNL     1      47.146   3.496  17.003  0.00  0.00    +0.000 C 
BRANCH  19  20
ATOM     20  N   UNL     1      46.869   4.435  15.943  0.00  0.00    +0.000 N 
ATOM     21  C   UNL     1      46.972   4.120  14.613  0.00  0.00    +0.000 C 
ATOM     22  O   UNL     1      47.274   2.994  14.227  0.00  0.00    +0.000 OA
ATOM     23  H   UNL     1      46.782   5.406  16.222  0.00  0.00    +0.000 HD
BRANCH  21  24
ATOM     24  C   UNL     1      46.640   5.192  13.664  0.00  0.00    +0.000 A 
ATOM     25  C   UNL     1      47.575   6.179  13.381  0.00  0.00    +0.000 A 
ATOM     26  S   UNL     1      47.033   7.332  12.247  0.00  0.00    +0.000 S 
ATOM     27  C   UNL     1      45.515   6.575  12.121  0.00  0.00    +0.000 A 
ATOM     28  N   UNL     1      44.545   7.082  11.310  0.00  0.00    +0.000 NA
ATOM     29  C   UNL     1      43.437   6.419  11.328  0.00  0.00    +0.000 A 
ATOM     30  N   UNL     1      43.211   5.293  12.073  0.00  0.00    +0.000 N 
ATOM     31  C   UNL     1      44.172   4.726  12.875  0.00  0.00    +0.000 A 
ATOM     32  O   UNL     1      43.960   3.674  13.471  0.00  0.00    +0.000 OA
ATOM     33  C   UNL     1      45.431   5.444  12.914  0.00  0.00    +0.000 A 
ATOM     34  H   UNL     1      42.329   4.806  12.026  0.00  0.00    +0.000 HD
ENDBRANCH  21  24
ENDBRANCH  19  20
ENDBRANCH   4  19
TORSDOF 6
ENDMDL
MODEL 5
REMARK VINA RESULT:    -7.407      3.712      4.835
REMARK INTER + INTRA:         -11.263
REMARK INTER:                 -10.851
REMARK INTRA:                  -0.412
REMARK UNBOUND:                -1.258
REMARK  Name = 
REMARK  6 active torsions:
REMARK  status: ('A' for Active; 'I' for Inactive)
REMARK    1  A    between atoms: C_2  and  C_26
REMARK    2  A    between atoms: N_3  and  C_4
REMARK    3  A    between atoms: C_4  and  C_5
REMARK    4  A    between atoms: C_8  and  C_9
REMARK    5  A    between atoms: C_9  and  N_10
REMARK    6  A    between atoms: C_11  and  C_13
REMARK                            x       y       z     vdW  Elec       q    Type
REMARK                         _______ _______ _______ _____ _____    ______ ____
ROOT
ATOM      1  C   UNL     1      44.551   4.300  11.546  0.00  0.00    +0.000 A 
ATOM      2  C   UNL     1      44.034   5.495  11.024  0.00  0.00    +0.000 A 
ATOM      3  C   UNL     1      44.397   6.731  11.571  0.00  0.00    +0.000 A 
ATOM      4  C   UNL     1      45.264   6.797  12.670  0.00  0.00    +0.000 A 
ATOM      5  C   UNL     1      45.769   5.604  13.188  0.00  0.00    +0.000 A 
ATOM      6  F   UNL     1      46.603   5.630  14.236  0.00  0.00    +0.000 F 
ATOM      7  C   UNL     1      45.418   4.367  12.644  0.00  0.00    +0.000 A 
ENDROOT
BRANCH   1   8
ATOM      8  C   UNL     1      44.168   2.969  10.956  0.00  0.00    +0.000 C 
BRANCH   8  11
ATOM      9  O   UNL     1      44.194   4.034   8.370  0.00  0.00    +0.000 OA
ATOM     10  C   UNL     1      45.010   3.168   8.662  0.00  0.00    +0.000 C 
ATOM     11  N   UNL     1      45.078   2.576   9.905  0.00  0.00    +0.000 N 
ATOM     12  H   UNL     1      45.874   2.006  10.154  0.00  0.00    +0.000 HD
BRANCH  10  13
ATOM     13  C   UNL     1      46.015   2.726   7.669  0.00  0.00    +0.000 A 
ATOM     14  C   UNL     1      46.292   3.441   6.503  0.00  0.00    +0.000 A 
ATOM     15  C   UNL     1      47.250   2.954   5.614  0.00  0.00    +0.000 A 
ATOM     16  C   UNL     1      47.900   1.770   5.927  0.00  0.00    +0.000 A 
ATOM     17  N   UNL     1      47.668   1.064   7.054  0.00  0.00    +0.000 NA
ATOM     18  C   UNL     1      46.737   1.564   7.907  0.00  0.00    +0.000 A 
ENDBRANCH  10  13
ENDBRANCH   8  11
ENDBRANCH   1   8
BRANCH   4  19
ATOM     19  C   UNL     1      45.658   8.122  13.260  0.00  0.00    +0.000 C 
BRANCH  19  20
ATOM     20  N   UNL     1      46.933   8.575  12.762  0.00  0.00    +0.000 N 
ATOM     21  C   UNL     1      47.079   9.674  11.956  0.00  0.00    +0.000 C 
ATOM     22  O   UNL     1      46.128  10.379  11.629  0.00  0.00    +0.000 OA
ATOM     23  H   UNL     1      47.708   7.929  12.872  0.00  0.00    +0.000 HD
BRANCH  21  24
ATOM     24  C   UNL     1      48.452  10.004  11.549  0.00  0.00    +0.000 A 
ATOM     25  C   UNL     1      48.770  11.303  11.175  0.00  0.00    +0.000 A 
ATOM     26  S   UNL     1      50.409  11.513  10.752  0.00  0.00    +0.000 S 
ATOM     27  C   UNL     1      50.746   9.867  11.019  0.00  0.00    +0.000 A 
ATOM     28  N   UNL     1      51.996   9.366  10.813  0.00  0.00    +0.000 NA
ATOM     29  C   UNL     1      52.103   8.099  11.034  0.00  0.00    +0.000 A 
ATOM     30  N   UNL     1      51.081   7.288  11.449  0.00  0.00    +0.000 N 
ATOM     31  C   UNL     1      49.815   7.757  11.704  0.00  0.00    +0.000 A 
ATOM     32  O   UNL     1      48.942   7.017  12.147  0.00  0.00    +0.000 OA
ATOM     33  C   UNL     1      49.629   9.171  11.448  0.00  0.00    +0.000 A 
ATOM     34  H   UNL     1      51.235   6.307  11.626  0.00  0.00    +0.000 HD
ENDBRANCH  21  24
ENDBRANCH  19  20
ENDBRANCH   4  19
TORSDOF 6
ENDMDL
MODEL 6
REMARK VINA RESULT:    -7.171      3.284      8.591
REMARK INTER + INTRA:         -10.944
REMARK INTER:                  -9.879
REMARK INTRA:                  -1.065
REMARK UNBOUND:                -1.258
REMARK  Name = 
REMARK  6 active torsions:
REMARK  status: ('A' for Active; 'I' for Inactive)
REMARK    1  A    between atoms: C_2  and  C_26
REMARK    2  A    between atoms: N_3  and  C_4
REMARK    3  A    between atoms: C_4  and  C_5
REMARK    4  A    between atoms: C_8  and  C_9
REMARK    5  A    between atoms: C_9  and  N_10
REMARK    6  A    between atoms: C_11  and  C_13
REMARK                            x       y       z     vdW  Elec       q    Type
REMARK                         _______ _______ _______ _____ _____    ______ ____
ROOT
ATOM      1  C   UNL     1      50.237   7.299  15.292  0.00  0.00    +0.000 A 
ATOM      2  C   UNL     1      48.971   6.697  15.300  0.00  0.00    +0.000 A 
ATOM      3  C   UNL     1      48.103   6.839  14.211  0.00  0.00    +0.000 A 
ATOM      4  C   UNL     1      48.473   7.611  13.101  0.00  0.00    +0.000 A 
ATOM      5  C   UNL     1      49.732   8.213  13.104  0.00  0.00    +0.000 A 
ATOM      6  F   UNL     1      50.120   8.956  12.058  0.00  0.00    +0.000 F 
ATOM      7  C   UNL     1      50.606   8.070  14.182  0.00  0.00    +0.000 A 
ENDROOT
BRANCH   1   8
ATOM      8  C   UNL     1      51.175   7.142  16.459  0.00  0.00    +0.000 C 
BRANCH   8  11
ATOM      9  O   UNL     1      50.359   5.402  18.490  0.00  0.00    +0.000 OA
ATOM     10  C   UNL     1      51.144   4.995  17.642  0.00  0.00    +0.000 C 
ATOM     11  N   UNL     1      51.612   5.773  16.604  0.00  0.00    +0.000 N 
ATOM     12  H   UNL     1      52.108   5.347  15.833  0.00  0.00    +0.000 HD
BRANCH  10  13
ATOM     13  C   UNL     1      51.619   3.593  17.676  0.00  0.00    +0.000 A 
ATOM     14  C   UNL     1      52.906   3.239  18.086  0.00  0.00    +0.000 A 
ATOM     15  C   UNL     1      53.277   1.896  18.085  0.00  0.00    +0.000 A 
ATOM     16  C   UNL     1      52.346   0.953  17.677  0.00  0.00    +0.000 A 
ATOM     17  N   UNL     1      51.089   1.260  17.292  0.00  0.00    +0.000 NA
ATOM     18  C   UNL     1      50.749   2.574  17.310  0.00  0.00    +0.000 A 
ENDBRANCH  10  13
ENDBRANCH   8  11
ENDBRANCH   1   8
BRANCH   4  19
ATOM     19  C   UNL     1      47.546   7.767  11.929  0.00  0.00    +0.000 C 
BRANCH  19  20
ATOM     20  N   UNL     1      46.797   6.562  11.672  0.00  0.00    +0.000 N 
ATOM     21  C   UNL     1      45.427   6.515  11.659  0.00  0.00    +0.000 C 
ATOM     22  O   UNL     1      44.735   7.515  11.830  0.00  0.00    +0.000 OA
ATOM     23  H   UNL     1      47.326   5.696  11.694  0.00  0.00    +0.000 HD
BRANCH  21  24
ATOM     24  C   UNL     1      44.824   5.207  11.367  0.00  0.00    +0.000 A 
ATOM     25  C   UNL     1      44.014   4.592  12.313  0.00  0.00    +0.000 A 
ATOM     26  S   UNL     1      43.383   3.091  11.804  0.00  0.00    +0.000 S 
ATOM     27  C   UNL     1      44.200   3.191  10.315  0.00  0.00    +0.000 A 
ATOM     28  N   UNL     1      44.102   2.192   9.394  0.00  0.00    +0.000 NA
ATOM     29  C   UNL     1      44.791   2.389   8.320  0.00  0.00    +0.000 A 
ATOM     30  N   UNL     1      45.560   3.496   8.076  0.00  0.00    +0.000 N 
ATOM     31  C   UNL     1      45.658   4.544   8.959  0.00  0.00    +0.000 A 
ATOM     32  O   UNL     1      46.295   5.553   8.677  0.00  0.00    +0.000 OA
ATOM     33  C   UNL     1      44.925   4.364  10.197  0.00  0.00    +0.000 A 
ATOM     34  H   UNL     1      46.056   3.602   7.205  0.00  0.00    +0.000 HD
ENDBRANCH  21  24
ENDBRANCH  19  20
ENDBRANCH   4  19
TORSDOF 6
ENDMDL
MODEL 7
REMARK VINA RESULT:    -7.083      3.175      4.867
REMARK INTER + INTRA:         -10.825
REMARK INTER:                  -9.827
REMARK INTRA:                  -0.998
REMARK UNBOUND:                -1.258
REMARK  Name = 
REMARK  6 active torsions:
REMARK  status: ('A' for Active; 'I' for Inactive)
REMARK    1  A    between atoms: C_2  and  C_26
REMARK    2  A    between atoms: N_3  and  C_4
REMARK    3  A    between atoms: C_4  and  C_5
REMARK    4  A    between atoms: C_8  and  C_9
REMARK    5  A    between atoms: C_9  and  N_10
REMARK    6  A    between atoms: C_11  and  C_13
REMARK                            x       y       z     vdW  Elec       q    Type
REMARK                         _______ _______ _______ _____ _____    ______ ____
ROOT
ATOM      1  C   UNL     1      45.304   3.948  12.174  0.00  0.00    +0.000 A 
ATOM      2  C   UNL     1      45.402   5.345  12.106  0.00  0.00    +0.000 A 
ATOM      3  C   UNL     1      46.250   6.045  12.972  0.00  0.00    +0.000 A 
ATOM      4  C   UNL     1      46.997   5.364  13.942  0.00  0.00    +0.000 A 
ATOM      5  C   UNL     1      46.889   3.975  14.008  0.00  0.00    +0.000 A 
ATOM      6  F   UNL     1      47.592   3.292  14.922  0.00  0.00    +0.000 F 
ATOM      7  C   UNL     1      46.051   3.268  13.144  0.00  0.00    +0.000 A 
ENDROOT
BRANCH   1   8
ATOM      8  C   UNL     1      44.397   3.190  11.240  0.00  0.00    +0.000 C 
BRANCH   8  11
ATOM      9  O   UNL     1      44.553   4.402   8.724  0.00  0.00    +0.000 OA
ATOM     10  C   UNL     1      45.143   3.345   8.909  0.00  0.00    +0.000 C 
ATOM     11  N   UNL     1      45.126   2.665  10.108  0.00  0.00    +0.000 N 
ATOM     12  H   UNL     1      45.769   1.902  10.269  0.00  0.00    +0.000 HD
BRANCH  10  13
ATOM     13  C   UNL     1      45.954   2.745   7.826  0.00  0.00    +0.000 A 
ATOM     14  C   UNL     1      46.286   3.434   6.658  0.00  0.00    +0.000 A 
ATOM     15  C   UNL     1      47.050   2.797   5.682  0.00  0.00    +0.000 A 
ATOM     16  C   UNL     1      47.458   1.491   5.911  0.00  0.00    +0.000 A 
ATOM     17  N   UNL     1      47.169   0.802   7.036  0.00  0.00    +0.000 NA
ATOM     18  C   UNL     1      46.431   1.449   7.975  0.00  0.00    +0.000 A 
ENDBRANCH  10  13
ENDBRANCH   8  11
ENDBRANCH   1   8
BRANCH   4  19
ATOM     19  C   UNL     1      47.910   6.112  14.874  0.00  0.00    +0.000 C 
BRANCH  19  20
ATOM     20  N   UNL     1      48.900   6.877  14.157  0.00  0.00    +0.000 N 
ATOM     21  C   UNL     1      49.321   8.121  14.552  0.00  0.00    +0.000 C 
ATOM     22  O   UNL     1      48.907   8.659  15.575  0.00  0.00    +0.000 OA
ATOM     23  H   UNL     1      49.136   6.541  13.229  0.00  0.00    +0.000 HD
BRANCH  21  24
ATOM     24  C   UNL     1      50.347   8.756  13.713  0.00  0.00    +0.000 A 
ATOM     25  C   UNL     1      51.690   8.604  14.030  0.00  0.00    +0.000 A 
ATOM     26  S   UNL     1      52.744   9.389  12.942  0.00  0.00    +0.000 S 
ATOM     27  C   UNL     1      51.442   9.991  12.029  0.00  0.00    +0.000 A 
ATOM     28  N   UNL     1      51.656  10.781  10.940  0.00  0.00    +0.000 NA
ATOM     29  C   UNL     1      50.577  11.184  10.355  0.00  0.00    +0.000 A 
ATOM     30  N   UNL     1      49.306  10.864  10.752  0.00  0.00    +0.000 N 
ATOM     31  C   UNL     1      49.044  10.042  11.821  0.00  0.00    +0.000 A 
ATOM     32  O   UNL     1      47.896   9.715  12.102  0.00  0.00    +0.000 OA
ATOM     33  C   UNL     1      50.220   9.580  12.532  0.00  0.00    +0.000 A 
ATOM     34  H   UNL     1      48.503  11.193  10.237  0.00  0.00    +0.000 HD
ENDBRANCH  21  24
ENDBRANCH  19  20
ENDBRANCH   4  19
TORSDOF 6
ENDMDL
MODEL 8
REMARK VINA RESULT:    -7.045      2.736      3.781
REMARK INTER + INTRA:         -10.775
REMARK INTER:                  -9.718
REMARK INTRA:                  -1.057
REMARK UNBOUND:                -1.258
REMARK  Name = 
REMARK  6 active torsions:
REMARK  status: ('A' for Active; 'I' for Inactive)
REMARK    1  A    between atoms: C_2  and  C_26
REMARK    2  A    between atoms: N_3  and  C_4
REMARK    3  A    between atoms: C_4  and  C_5
REMARK    4  A    between atoms: C_8  and  C_9
REMARK    5  A    between atoms: C_9  and  N_10
REMARK    6  A    between atoms: C_11  and  C_13
REMARK                            x       y       z     vdW  Elec       q    Type
REMARK                         _______ _______ _______ _____ _____    ______ ____
ROOT
ATOM      1  C   UNL     1      45.772   5.262  12.069  0.00  0.00    +0.000 A 
ATOM      2  C   UNL     1      45.284   4.283  12.946  0.00  0.00    +0.000 A 
ATOM      3  C   UNL     1      45.920   4.037  14.169  0.00  0.00    +0.000 A 
ATOM      4  C   UNL     1      47.074   4.747  14.528  0.00  0.00    +0.000 A 
ATOM      5  C   UNL     1      47.557   5.715  13.646  0.00  0.00    +0.000 A 
ATOM      6  F   UNL     1      48.656   6.415  13.959  0.00  0.00    +0.000 F 
ATOM      7  C   UNL     1      46.925   5.972  12.428  0.00  0.00    +0.000 A 
ENDROOT
BRANCH   1   8
ATOM      8  C   UNL     1      45.087   5.534  10.755  0.00  0.00    +0.000 C 
BRANCH   8  11
ATOM      9  O   UNL     1      44.335   2.978   9.905  0.00  0.00    +0.000 OA
ATOM     10  C   UNL     1      45.257   3.546   9.331  0.00  0.00    +0.000 C 
ATOM     11  N   UNL     1      45.707   4.802   9.676  0.00  0.00    +0.000 N 
ATOM     12  H   UNL     1      46.340   5.300   9.065  0.00  0.00    +0.000 HD
BRANCH  10  13
ATOM     13  C   UNL     1      45.931   2.898   8.183  0.00  0.00    +0.000 A 
ATOM     14  C   UNL     1      46.296   1.551   8.181  0.00  0.00    +0.000 A 
ATOM     15  C   UNL     1      46.933   1.018   7.062  0.00  0.00    +0.000 A 
ATOM     16  C   UNL     1      47.180   1.852   5.982  0.00  0.00    +0.000 A 
ATOM     17  N   UNL     1      46.826   3.154   5.946  0.00  0.00    +0.000 NA
ATOM     18  C   UNL     1      46.198   3.647   7.044  0.00  0.00    +0.000 A 
ENDBRANCH  10  13
ENDBRANCH   8  11
ENDBRANCH   1   8
BRANCH   4  19
ATOM     19  C   UNL     1      47.760   4.488  15.839  0.00  0.00    +0.000 C 
BRANCH  19  20
ATOM     20  N   UNL     1      47.568   5.573  16.770  0.00  0.00    +0.000 N 
ATOM     21  C   UNL     1      48.596   6.170  17.451  0.00  0.00    +0.000 C 
ATOM     22  O   UNL     1      49.769   5.846  17.286  0.00  0.00    +0.000 OA
ATOM     23  H   UNL     1      46.610   5.751  17.054  0.00  0.00    +0.000 HD
BRANCH  21  24
ATOM     24  C   UNL     1      48.225   7.271  18.352  0.00  0.00    +0.000 A 
ATOM     25  C   UNL     1      47.985   7.013  19.696  0.00  0.00    +0.000 A 
ATOM     26  S   UNL     1      47.585   8.404  20.599  0.00  0.00    +0.000 S 
ATOM     27  C   UNL     1      47.684   9.395  19.220  0.00  0.00    +0.000 A 
ATOM     28  N   UNL     1      47.429  10.731  19.299  0.00  0.00    +0.000 NA
ATOM     29  C   UNL     1      47.520  11.356  18.173  0.00  0.00    +0.000 A 
ATOM     30  N   UNL     1      47.850  10.774  16.979  0.00  0.00    +0.000 N 
ATOM     31  C   UNL     1      48.152   9.438  16.860  0.00  0.00    +0.000 A 
ATOM     32  O   UNL     1      48.517   8.964  15.789  0.00  0.00    +0.000 OA
ATOM     33  C   UNL     1      48.040   8.680  18.091  0.00  0.00    +0.000 A 
ATOM     34  H   UNL     1      47.927  11.322  16.136  0.00  0.00    +0.000 HD
ENDBRANCH  21  24
ENDBRANCH  19  20
ENDBRANCH   4  19
TORSDOF 6
ENDMDL
MODEL 9
REMARK VINA RESULT:    -6.965      1.854      2.098
REMARK INTER + INTRA:         -10.666
REMARK INTER:                 -10.154
REMARK INTRA:                  -0.512
REMARK UNBOUND:                -1.258
REMARK  Name = 
REMARK  6 active torsions:
REMARK  status: ('A' for Active; 'I' for Inactive)
REMARK    1  A    between atoms: C_2  and  C_26
REMARK    2  A    between atoms: N_3  and  C_4
REMARK    3  A    between atoms: C_4  and  C_5
REMARK    4  A    between atoms: C_8  and  C_9
REMARK    5  A    between atoms: C_9  and  N_10
REMARK    6  A    between atoms: C_11  and  C_13
REMARK                            x       y       z     vdW  Elec       q    Type
REMARK                         _______ _______ _______ _____ _____    ______ ____
ROOT
ATOM      1  C   UNL     1      45.472   5.483  11.687  0.00  0.00    +0.000 A 
ATOM      2  C   UNL     1      45.737   6.831  11.412  0.00  0.00    +0.000 A 
ATOM      3  C   UNL     1      46.523   7.598  12.281  0.00  0.00    +0.000 A 
ATOM      4  C   UNL     1      47.036   7.039  13.458  0.00  0.00    +0.000 A 
ATOM      5  C   UNL     1      46.761   5.697  13.729  0.00  0.00    +0.000 A 
ATOM      6  F   UNL     1      47.239   5.130  14.845  0.00  0.00    +0.000 F 
ATOM      7  C   UNL     1      45.986   4.924  12.865  0.00  0.00    +0.000 A 
ENDROOT
BRANCH   1   8
ATOM      8  C   UNL     1      44.633   4.653  10.752  0.00  0.00    +0.000 C 
BRANCH   8  11
ATOM      9  O   UNL     1      44.369   2.148   9.537  0.00  0.00    +0.000 OA
ATOM     10  C   UNL     1      45.192   2.938   9.092  0.00  0.00    +0.000 C 
ATOM     11  N   UNL     1      45.404   4.193   9.620  0.00  0.00    +0.000 N 
ATOM     12  H   UNL     1      45.956   4.871   9.114  0.00  0.00    +0.000 HD
BRANCH  10  13
ATOM     13  C   UNL     1      46.004   2.579   7.906  0.00  0.00    +0.000 A 
ATOM     14  C   UNL     1      46.196   3.447   6.830  0.00  0.00    +0.000 A 
ATOM     15  C   UNL     1      46.969   3.032   5.747  0.00  0.00    +0.000 A 
ATOM     16  C   UNL     1      47.528   1.763   5.782  0.00  0.00    +0.000 A 
ATOM     17  N   UNL     1      47.375   0.906   6.815  0.00  0.00    +0.000 NA
ATOM     18  C   UNL     1      46.625   1.338   7.860  0.00  0.00    +0.000 A 
ENDBRANCH  10  13
ENDBRANCH   8  11
ENDBRANCH   1   8
BRANCH   4  19
ATOM     19  C   UNL     1      47.880   7.858  14.394  0.00  0.00    +0.000 C 
BRANCH  19  20
ATOM     20  N   UNL     1      48.992   7.102  14.916  0.00  0.00    +0.000 N 
ATOM     21  C   UNL     1      49.601   7.387  16.110  0.00  0.00    +0.000 C 
ATOM     22  O   UNL     1      49.214   8.291  16.845  0.00  0.00    +0.000 OA
ATOM     23  H   UNL     1      49.440   6.464  14.266  0.00  0.00    +0.000 HD
BRANCH  21  24
ATOM     24  C   UNL     1      50.713   6.507  16.498  0.00  0.00    +0.000 A 
ATOM     25  C   UNL     1      52.024   6.920  16.296  0.00  0.00    +0.000 A 
ATOM     26  S   UNL     1      53.188   5.787  16.820  0.00  0.00    +0.000 S 
ATOM     27  C   UNL     1      51.982   4.689  17.302  0.00  0.00    +0.000 A 
ATOM     28  N   UNL     1      52.309   3.476  17.829  0.00  0.00    +0.000 NA
ATOM     29  C   UNL     1      51.295   2.736  18.130  0.00  0.00    +0.000 A 
ATOM     30  N   UNL     1      49.985   3.098  17.962  0.00  0.00    +0.000 N 
ATOM     31  C   UNL     1      49.609   4.324  17.469  0.00  0.00    +0.000 A 
ATOM     32  O   UNL     1      48.426   4.644  17.402  0.00  0.00    +0.000 OA
ATOM     33  C   UNL     1      50.709   5.188  17.089  0.00  0.00    +0.000 A 
ATOM     34  H   UNL     1      49.236   2.482  18.239  0.00  0.00    +0.000 HD
ENDBRANCH  21  24
ENDBRANCH  19  20
ENDBRANCH   4  19
TORSDOF 6
ENDMDL
