MODEL 1
REMARK VINA RESULT:    -7.953      0.000      0.000
REMARK INTER + INTRA:         -11.803
REMARK INTER:                 -10.742
REMARK INTRA:                  -1.061
REMARK UNBOUND:                -1.061
REMARK  Name = 
REMARK  6 active torsions:
REMARK  status: ('A' for Active; 'I' for Inactive)
REMARK    1  A    between atoms: C_2  and  C_3
REMARK    2  A    between atoms: C_6  and  O_7
REMARK    3  A    between atoms: O_7  and  C_8
REMARK    4  A    between atoms: C_11  and  C_12
REMARK    5  A    between atoms: C_12  and  N_13
REMARK    6  A    between atoms: C_14  and  C_16
REMARK                            x       y       z     vdW  Elec       q    Type
REMARK                         _______ _______ _______ _____ _____    ______ ____
ROOT
ATOM      1  C   UNL     1      45.134   6.149  11.260  0.00  0.00    +0.000 A 
ATOM      2  C   UNL     1      46.390   5.726  11.706  0.00  0.00    +0.000 A 
ATOM      3  C   UNL     1      47.124   6.516  12.593  0.00  0.00    +0.000 A 
ATOM      4  C   UNL     1      46.648   7.773  12.980  0.00  0.00    +0.000 A 
ATOM      5  C   UNL     1      45.425   8.213  12.466  0.00  0.00    +0.000 A 
ATOM      6  F   UNL     1      44.961   9.427  12.795  0.00  0.00    +0.000 F 
ATOM      7  C   UNL     1      44.668   7.414  11.612  0.00  0.00    +0.000 A 
ENDROOT
BRANCH   1   8
ATOM      8  O   UNL     1      44.316   5.408  10.435  0.00  0.00    +0.000 OA
BRANCH   8  12
ATOM      9  C   UNL     1      46.031   2.414   8.080  0.00  0.00    +0.000 A 
ATOM     10  C   UNL     1      45.187   2.042   9.130  0.00  0.00    +0.000 A 
ATOM     11  C   UNL     1      44.571   3.022   9.915  0.00  0.00    +0.000 A 
ATOM     12  C   UNL     1      44.845   4.375   9.694  0.00  0.00    +0.000 A 
ATOM     13  C   UNL     1      45.662   4.746   8.623  0.00  0.00    +0.000 A 
ATOM     14  C   UNL     1      46.254   3.772   7.818  0.00  0.00    +0.000 A 
BRANCH   9  16
ATOM     15  N   UNL     1      47.158   0.599   6.610  0.00  0.00    +0.000 NA
ATOM     16  C   UNL     1      46.656   1.411   7.270  0.00  0.00    +0.000 C 
ENDBRANCH   9  16
ENDBRANCH   8  12
ENDBRANCH   1   8
BRANCH   4  17
ATOM     17  C   UNL     1      47.429   8.613  13.948  0.00  0.00    +0.000 C 
BRANCH  17  18
ATOM     18  N   UNL     1      47.874   7.842  15.083  0.00  0.00    +0.000 N 
ATOM     19  C   UNL     1      49.154   7.366  15.207  0.00  0.00    +0.000 C 
ATOM     20  O   UNL     1      50.014   7.567  14.354  0.00  0.00    +0.000 OA
ATOM     21  H   UNL     1      47.148   7.493  15.702  0.00  0.00    +0.000 HD
BRANCH  19  22
ATOM     22  C   UNL     1      49.466   6.657  16.457  0.00  0.00    +0.000 A 
ATOM     23  C   UNL     1      50.429   7.171  17.315  0.00  0.00    +0.000 A 
ATOM     24  S   UNL     1      50.628   6.264  18.745  0.00  0.00    +0.000 S 
ATOM     25  C   UNL     1      49.469   5.123  18.248  0.00  0.00    +0.000 A 
ATOM     26  N   UNL     1      49.166   4.049  19.026  0.00  0.00    +0.000 NA
ATOM     27  C   UNL     1      48.295   3.246  18.513  0.00  0.00    +0.000 A 
ATOM     28  N   UNL     1      47.695   3.423  17.293  0.00  0.00    +0.000 N 
ATOM     29  C   UNL     1      47.936   4.515  16.493  0.00  0.00    +0.000 A 
ATOM     30  O   UNL     1      47.329   4.680  15.440  0.00  0.00    +0.000 OA
ATOM     31  C   UNL     1      48.925   5.439  17.015  0.00  0.00    +0.000 A 
ATOM     32  H   UNL     1      47.009   2.766  16.953  0.00  0.00    +0.000 HD
ENDBRANCH  19  22
ENDBRANCH  17  18
ENDBRANCH   4  17
TORSDOF 6
ENDMDL
MODEL 2
REMARK VINA RESULT:    -6.953      2.152      2.415
REMARK INTER + INTRA:         -10.453
REMARK INTER:                  -9.303
REMARK INTRA:                  -1.150
REMARK UNBOUND:                -1.061
REMARK  Name = 
REMARK  6 active torsions:
REMARK  status: ('A' for Active; 'I' for Inactive)
REMARK    1  A    between atoms: C_2  and  C_3
REMARK    2  A    between atoms: C_6  and  O_7
REMARK    3  A    between atoms: O_7  and  C_8
REMARK    4  A    between atoms: C_11  and  C_12
REMARK    5  A    between atoms: C_12  and  N_13
REMARK    6  A    between atoms: C_14  and  C_16
REMARK                            x       y       z     vdW  Elec       q    Type
REMARK                         _______ _______ _______ _____ _____    ______ ____
ROOT
ATOM      1  C   UNL     1      45.321   6.168  11.799  0.00  0.00    +0.000 A 
ATOM      2  C   UNL     1      46.462   5.766  12.500  0.00  0.00    +0.000 A 
ATOM      3  C   UNL     1      47.199   6.697  13.235  0.00  0.00    +0.000 A 
ATOM      4  C   UNL     1      46.852   8.052  13.211  0.00  0.00    +0.000 A 
ATOM      5  C   UNL     1      45.753   8.447  12.443  0.00  0.00    +0.000 A 
ATOM      6  F   UNL     1      45.417   9.744  12.376  0.00  0.00    +0.000 F 
ATOM      7  C   UNL     1      44.989   7.520  11.740  0.00  0.00    +0.000 A 
ENDROOT
BRANCH   1   8
ATOM      8  O   UNL     1      44.501   5.309  11.099  0.00  0.00    +0.000 OA
BRANCH   8  12
ATOM      9  C   UNL     1      46.031   2.694   8.222  0.00  0.00    +0.000 A 
ATOM     10  C   UNL     1      46.202   4.070   8.039  0.00  0.00    +0.000 A 
ATOM     11  C   UNL     1      45.731   4.968   9.002  0.00  0.00    +0.000 A 
ATOM     12  C   UNL     1      45.032   4.501  10.119  0.00  0.00    +0.000 A 
ATOM     13  C   UNL     1      44.891   3.125  10.317  0.00  0.00    +0.000 A 
ATOM     14  C   UNL     1      45.388   2.223   9.375  0.00  0.00    +0.000 A 
BRANCH   9  16
ATOM     15  N   UNL     1      46.915   1.021   6.450  0.00  0.00    +0.000 NA
ATOM     16  C   UNL     1      46.521   1.772   7.241  0.00  0.00    +0.000 C 
ENDBRANCH   9  16
ENDBRANCH   8  12
ENDBRANCH   1   8
BRANCH   4  17
ATOM     17  C   UNL     1      47.633   9.048  14.016  0.00  0.00    +0.000 C 
BRANCH  17  18
ATOM     18  N   UNL     1      47.521   8.795  15.431  0.00  0.00    +0.000 N 
ATOM     19  C   UNL     1      48.144   9.565  16.380  0.00  0.00    +0.000 C 
ATOM     20  O   UNL     1      48.844  10.530  16.085  0.00  0.00    +0.000 OA
ATOM     21  H   UNL     1      47.120   7.901  15.697  0.00  0.00    +0.000 HD
BRANCH  19  22
ATOM     22  C   UNL     1      47.873   9.216  17.782  0.00  0.00    +0.000 A 
ATOM     23  C   UNL     1      47.503  10.211  18.678  0.00  0.00    +0.000 A 
ATOM     24  S   UNL     1      47.167   9.631  20.246  0.00  0.00    +0.000 S 
ATOM     25  C   UNL     1      47.551   8.036  19.798  0.00  0.00    +0.000 A 
ATOM     26  N   UNL     1      47.487   7.022  20.702  0.00  0.00    +0.000 NA
ATOM     27  C   UNL     1      47.838   5.869  20.238  0.00  0.00    +0.000 A 
ATOM     28  N   UNL     1      48.242   5.639  18.948  0.00  0.00    +0.000 N 
ATOM     29  C   UNL     1      48.281   6.623  17.990  0.00  0.00    +0.000 A 
ATOM     30  O   UNL     1      48.578   6.370  16.828  0.00  0.00    +0.000 OA
ATOM     31  C   UNL     1      47.916   7.944  18.466  0.00  0.00    +0.000 A 
ATOM     32  H   UNL     1      48.490   4.709  18.642  0.00  0.00    +0.000 HD
ENDBRANCH  19  22
ENDBRANCH  17  18
ENDBRANCH   4  17
TORSDOF 6
ENDMDL
MODEL 3
REMARK VINA RESULT:    -6.916      3.622      4.788
REMARK INTER + INTRA:         -10.403
REMARK INTER:                  -8.967
REMARK INTRA:                  -1.436
REMARK UNBOUND:                -1.061
REMARK  Name = 
REMARK  6 active torsions:
REMARK  status: ('A' for Active; 'I' for Inactive)
REMARK    1  A    between atoms: C_2  and  C_3
REMARK    2  A    between atoms: C_6  and  O_7
REMARK    3  A    between atoms: O_7  and  C_8
REMARK    4  A    between atoms: C_11  and  C_12
REMARK    5  A    between atoms: C_12  and  N_13
REMARK    6  A    between atoms: C_14  and  C_16
REMARK                            x       y       z     vdW  Elec       q    Type
REMARK                         _______ _______ _______ _____ _____    ______ ____
ROOT
ATOM      1  C   UNL     1      44.942   6.016  11.398  0.00  0.00    +0.000 A 
ATOM      2  C   UNL     1      46.036   5.618  12.172  0.00  0.00    +0.000 A 
ATOM      3  C   UNL     1      46.684   6.537  13.000  0.00  0.00    +0.000 A 
ATOM      4  C   UNL     1      46.298   7.881  13.002  0.00  0.00    +0.000 A 
ATOM      5  C   UNL     1      45.251   8.278  12.166  0.00  0.00    +0.000 A 
ATOM      6  F   UNL     1      44.882   9.566  12.124  0.00  0.00    +0.000 F 
ATOM      7  C   UNL     1      44.573   7.360  11.367  0.00  0.00    +0.000 A 
ENDROOT
BRANCH   1   8
ATOM      8  O   UNL     1      44.206   5.166  10.602  0.00  0.00    +0.000 OA
BRANCH   8  12
ATOM      9  C   UNL     1      46.064   2.436   8.042  0.00  0.00    +0.000 A 
ATOM     10  C   UNL     1      46.260   3.803   7.825  0.00  0.00    +0.000 A 
ATOM     11  C   UNL     1      45.679   4.740   8.685  0.00  0.00    +0.000 A 
ATOM     12  C   UNL     1      44.849   4.318   9.728  0.00  0.00    +0.000 A 
ATOM     13  C   UNL     1      44.681   2.952   9.964  0.00  0.00    +0.000 A 
ATOM     14  C   UNL     1      45.285   2.012   9.127  0.00  0.00    +0.000 A 
BRANCH   9  16
ATOM     15  N   UNL     1      47.154   0.701   6.453  0.00  0.00    +0.000 NA
ATOM     16  C   UNL     1      46.665   1.475   7.167  0.00  0.00    +0.000 C 
ENDBRANCH   9  16
ENDBRANCH   8  12
ENDBRANCH   1   8
BRANCH   4  17
ATOM     17  C   UNL     1      46.983   8.864  13.906  0.00  0.00    +0.000 C 
BRANCH  17  18
ATOM     18  N   UNL     1      48.343   9.107  13.495  0.00  0.00    +0.000 N 
ATOM     19  C   UNL     1      48.706  10.162  12.698  0.00  0.00    +0.000 C 
ATOM     20  O   UNL     1      47.889  10.979  12.279  0.00  0.00    +0.000 OA
ATOM     21  H   UNL     1      49.003   8.352  13.655  0.00  0.00    +0.000 HD
BRANCH  19  22
ATOM     22  C   UNL     1      50.143  10.309  12.426  0.00  0.00    +0.000 A 
ATOM     23  C   UNL     1      50.774  11.516  12.700  0.00  0.00    +0.000 A 
ATOM     24  S   UNL     1      52.450  11.501  12.385  0.00  0.00    +0.000 S 
ATOM     25  C   UNL     1      52.385   9.896  11.825  0.00  0.00    +0.000 A 
ATOM     26  N   UNL     1      53.505   9.267  11.375  0.00  0.00    +0.000 NA
ATOM     27  C   UNL     1      53.307   8.065  10.947  0.00  0.00    +0.000 A 
ATOM     28  N   UNL     1      52.091   7.433  10.933  0.00  0.00    +0.000 N 
ATOM     29  C   UNL     1      50.942   8.012  11.418  0.00  0.00    +0.000 A 
ATOM     30  O   UNL     1      49.884   7.393  11.458  0.00  0.00    +0.000 OA
ATOM     31  C   UNL     1      51.106   9.373  11.891  0.00  0.00    +0.000 A 
ATOM     32  H   UNL     1      52.004   6.485  10.599  0.00  0.00    +0.000 HD
ENDBRANCH  19  22
ENDBRANCH  17  18
ENDBRANCH   4  17
TORSDOF 6
ENDMDL
MODEL 4
REMARK VINA RESULT:    -6.689      3.560      4.842
REMARK INTER + INTRA:         -10.096
REMARK INTER:                  -8.759
REMARK INTRA:                  -1.337
REMARK UNBOUND:                -1.061
REMARK  Name = 
REMARK  6 active torsions:
REMARK  status: ('A' for Active; 'I' for Inactive)
REMARK    1  A    between atoms: C_2  and  C_3
REMARK    2  A    between atoms: C_6  and  O_7
REMARK    3  A    between atoms: O_7  and  C_8
REMARK    4  A    between atoms: C_11  and  C_12
REMARK    5  A    between atoms: C_12  and  N_13
REMARK    6  A    between atoms: C_14  and  C_16
REMARK                            x       y       z     vdW  Elec       q    Type
REMARK                         _______ _______ _______ _____ _____    ______ ____
ROOT
ATOM      1  C   UNL     1      45.674   5.780  11.667  0.00  0.00    +0.000 A 
ATOM      2  C   UNL     1      46.210   7.070  11.610  0.00  0.00    +0.000 A 
ATOM      3  C   UNL     1      47.149   7.483  12.557  0.00  0.00    +0.000 A 
ATOM      4  C   UNL     1      47.503   6.641  13.617  0.00  0.00    +0.000 A 
ATOM      5  C   UNL     1      46.901   5.383  13.700  0.00  0.00    +0.000 A 
ATOM      6  F   UNL     1      47.197   4.568  14.724  0.00  0.00    +0.000 F 
ATOM      7  C   UNL     1      45.993   4.948  12.738  0.00  0.00    +0.000 A 
ENDROOT
BRANCH   1   8
ATOM      8  O   UNL     1      44.790   5.267  10.741  0.00  0.00    +0.000 OA
BRANCH   8  12
ATOM      9  C   UNL     1      46.196   2.589   7.859  0.00  0.00    +0.000 A 
ATOM     10  C   UNL     1      45.492   2.087   8.958  0.00  0.00    +0.000 A 
ATOM     11  C   UNL     1      44.979   2.961   9.922  0.00  0.00    +0.000 A 
ATOM     12  C   UNL     1      45.222   4.335   9.825  0.00  0.00    +0.000 A 
ATOM     13  C   UNL     1      45.896   4.839   8.710  0.00  0.00    +0.000 A 
ATOM     14  C   UNL     1      46.382   3.972   7.730  0.00  0.00    +0.000 A 
BRANCH   9  16
ATOM     15  N   UNL     1      47.128   0.971   6.061  0.00  0.00    +0.000 NA
ATOM     16  C   UNL     1      46.714   1.695   6.868  0.00  0.00    +0.000 C 
ENDBRANCH   9  16
ENDBRANCH   8  12
ENDBRANCH   1   8
BRANCH   4  17
ATOM     17  C   UNL     1      48.526   7.080  14.622  0.00  0.00    +0.000 C 
BRANCH  17  18
ATOM     18  N   UNL     1      49.804   7.335  14.005  0.00  0.00    +0.000 N 
ATOM     19  C   UNL     1      50.399   8.570  14.003  0.00  0.00    +0.000 C 
ATOM     20  O   UNL     1      49.880   9.550  14.532  0.00  0.00    +0.000 OA
ATOM     21  H   UNL     1      50.162   6.606  13.395  0.00  0.00    +0.000 HD
BRANCH  19  22
ATOM     22  C   UNL     1      51.734   8.649  13.391  0.00  0.00    +0.000 A 
ATOM     23  C   UNL     1      52.806   9.115  14.140  0.00  0.00    +0.000 A 
ATOM     24  S   UNL     1      54.292   9.086  13.304  0.00  0.00    +0.000 S 
ATOM     25  C   UNL     1      53.549   8.494  11.893  0.00  0.00    +0.000 A 
ATOM     26  N   UNL     1      54.274   8.260  10.766  0.00  0.00    +0.000 NA
ATOM     27  C   UNL     1      53.579   7.845   9.760  0.00  0.00    +0.000 A 
ATOM     28  N   UNL     1      52.224   7.638   9.781  0.00  0.00    +0.000 N 
ATOM     29  C   UNL     1      51.458   7.819  10.908  0.00  0.00    +0.000 A 
ATOM     30  O   UNL     1      50.261   7.556  10.913  0.00  0.00    +0.000 OA
ATOM     31  C   UNL     1      52.188   8.306  12.062  0.00  0.00    +0.000 A 
ATOM     32  H   UNL     1      51.741   7.298   8.963  0.00  0.00    +0.000 HD
ENDBRANCH  19  22
ENDBRANCH  17  18
ENDBRANCH   4  17
TORSDOF 6
ENDMDL
MODEL 5
REMARK VINA RESULT:    -6.191      2.910      3.883
REMARK INTER + INTRA:          -9.423
REMARK INTER:                  -8.250
REMARK INTRA:                  -1.173
REMARK UNBOUND:                -1.061
REMARK  Name = 
REMARK  6 active torsions:
REMARK  status: ('A' for Active; 'I' for Inactive)
REMARK    1  A    between atoms: C_2  and  C_3
REMARK    2  A    between atoms: C_6  and  O_7
REMARK    3  A    between atoms: O_7  and  C_8
REMARK    4  A    between atoms: C_11  and  C_12
REMARK    5  A    between atoms: C_12  and  N_13
REMARK    6  A    between atoms: C_14  and  C_16
REMARK                            x       y       z     vdW  Elec       q    Type
REMARK                         _______ _______ _______ _____ _____    ______ ____
ROOT
ATOM      1  C   UNL     1      47.758   7.800  13.079  0.00  0.00    +0.000 A 
ATOM      2  C   UNL     1      48.795   6.901  13.350  0.00  0.00    +0.000 A 
ATOM      3  C   UNL     1      49.620   7.093  14.460  0.00  0.00    +0.000 A 
ATOM      4  C   UNL     1      49.469   8.227  15.266  0.00  0.00    +0.000 A 
ATOM      5  C   UNL     1      48.476   9.153  14.937  0.00  0.00    +0.000 A 
ATOM      6  F   UNL     1      48.331  10.265  15.673  0.00  0.00    +0.000 F 
ATOM      7  C   UNL     1      47.624   8.950  13.855  0.00  0.00    +0.000 A 
ENDROOT
BRANCH   1   8
ATOM      8  O   UNL     1      46.860   7.656  12.044  0.00  0.00    +0.000 OA
BRANCH   8  12
ATOM      9  C   UNL     1      44.418   4.281  11.723  0.00  0.00    +0.000 A 
ATOM     10  C   UNL     1      44.479   4.954  12.947  0.00  0.00    +0.000 A 
ATOM     11  C   UNL     1      45.260   6.107  13.076  0.00  0.00    +0.000 A 
ATOM     12  C   UNL     1      46.034   6.555  12.001  0.00  0.00    +0.000 A 
ATOM     13  C   UNL     1      45.947   5.903  10.770  0.00  0.00    +0.000 A 
ATOM     14  C   UNL     1      45.143   4.770  10.628  0.00  0.00    +0.000 A 
BRANCH   9  16
ATOM     15  N   UNL     1      42.954   2.156  11.473  0.00  0.00    +0.000 NA
ATOM     16  C   UNL     1      43.611   3.106  11.587  0.00  0.00    +0.000 C 
ENDBRANCH   9  16
ENDBRANCH   8  12
ENDBRANCH   1   8
BRANCH   4  17
ATOM     17  C   UNL     1      50.343   8.421  16.470  0.00  0.00    +0.000 C 
BRANCH  17  18
ATOM     18  N   UNL     1      51.114   7.239  16.765  0.00  0.00    +0.000 N 
ATOM     19  C   UNL     1      50.858   6.429  17.841  0.00  0.00    +0.000 C 
ATOM     20  O   UNL     1      49.945   6.656  18.630  0.00  0.00    +0.000 OA
ATOM     21  H   UNL     1      51.987   7.133  16.256  0.00  0.00    +0.000 HD
BRANCH  19  22
ATOM     22  C   UNL     1      51.693   5.224  17.963  0.00  0.00    +0.000 A 
ATOM     23  C   UNL     1      53.004   5.340  18.405  0.00  0.00    +0.000 A 
ATOM     24  S   UNL     1      53.815   3.847  18.547  0.00  0.00    +0.000 S 
ATOM     25  C   UNL     1      52.458   2.994  17.977  0.00  0.00    +0.000 A 
ATOM     26  N   UNL     1      52.491   1.642  17.836  0.00  0.00    +0.000 NA
ATOM     27  C   UNL     1      51.406   1.127  17.361  0.00  0.00    +0.000 A 
ATOM     28  N   UNL     1      50.289   1.844  17.019  0.00  0.00    +0.000 N 
ATOM     29  C   UNL     1      50.194   3.205  17.185  0.00  0.00    +0.000 A 
ATOM     30  O   UNL     1      49.155   3.806  16.936  0.00  0.00    +0.000 OA
ATOM     31  C   UNL     1      51.396   3.836  17.696  0.00  0.00    +0.000 A 
ATOM     32  H   UNL     1      49.465   1.380  16.666  0.00  0.00    +0.000 HD
ENDBRANCH  19  22
ENDBRANCH  17  18
ENDBRANCH   4  17
TORSDOF 6
ENDMDL
MODEL 6
REMARK VINA RESULT:    -5.790      4.159      5.840
REMARK INTER + INTRA:          -8.882
REMARK INTER:                  -8.326
REMARK INTRA:                  -0.556
REMARK UNBOUND:                -1.061
REMARK  Name = 
REMARK  6 active torsions:
REMARK  status: ('A' for Active; 'I' for Inactive)
REMARK    1  A    between atoms: C_2  and  C_3
REMARK    2  A    between atoms: C_6  and  O_7
REMARK    3  A    between atoms: O_7  and  C_8
REMARK    4  A    between atoms: C_11  and  C_12
REMARK    5  A    between atoms: C_12  and  N_13
REMARK    6  A    between atoms: C_14  and  C_16
REMARK                            x       y       z     vdW  Elec       q    Type
REMARK                         _______ _______ _______ _____ _____    ______ ____
ROOT
ATOM      1  C   UNL     1      48.271   5.942  15.457  0.00  0.00    +0.000 A 
ATOM      2  C   UNL     1      49.198   6.763  16.106  0.00  0.00    +0.000 A 
ATOM      3  C   UNL     1      49.674   6.421  17.373  0.00  0.00    +0.000 A 
ATOM      4  C   UNL     1      49.169   5.299  18.039  0.00  0.00    +0.000 A 
ATOM      5  C   UNL     1      48.187   4.532  17.407  0.00  0.00    +0.000 A 
ATOM      6  F   UNL     1      47.662   3.470  18.036  0.00  0.00    +0.000 F 
ATOM      7  C   UNL     1      47.736   4.843  16.126  0.00  0.00    +0.000 A 
ENDROOT
BRANCH   1   8
ATOM      8  O   UNL     1      47.794   6.169  14.183  0.00  0.00    +0.000 OA
BRANCH   8  12
ATOM      9  C   UNL     1      44.800   3.779  12.516  0.00  0.00    +0.000 A 
ATOM     10  C   UNL     1      45.994   3.176  12.923  0.00  0.00    +0.000 A 
ATOM     11  C   UNL     1      47.001   3.944  13.515  0.00  0.00    +0.000 A 
ATOM     12  C   UNL     1      46.846   5.327  13.647  0.00  0.00    +0.000 A 
ATOM     13  C   UNL     1      45.640   5.924  13.272  0.00  0.00    +0.000 A 
ATOM     14  C   UNL     1      44.619   5.155  12.709  0.00  0.00    +0.000 A 
BRANCH   9  16
ATOM     15  N   UNL     1      42.922   2.354  11.437  0.00  0.00    +0.000 NA
ATOM     16  C   UNL     1      43.764   2.992  11.917  0.00  0.00    +0.000 C 
ENDBRANCH   9  16
ENDBRANCH   8  12
ENDBRANCH   1   8
BRANCH   4  17
ATOM     17  C   UNL     1      49.695   4.922  19.393  0.00  0.00    +0.000 C 
BRANCH  17  18
ATOM     18  N   UNL     1      50.824   4.031  19.296  0.00  0.00    +0.000 N 
ATOM     19  C   UNL     1      52.123   4.469  19.288  0.00  0.00    +0.000 C 
ATOM     20  O   UNL     1      52.415   5.660  19.366  0.00  0.00    +0.000 OA
ATOM     21  H   UNL     1      50.618   3.072  19.033  0.00  0.00    +0.000 HD
BRANCH  19  22
ATOM     22  C   UNL     1      53.161   3.428  19.254  0.00  0.00    +0.000 A 
ATOM     23  C   UNL     1      54.317   3.586  20.007  0.00  0.00    +0.000 A 
ATOM     24  S   UNL     1      55.390   2.264  19.903  0.00  0.00    +0.000 S 
ATOM     25  C   UNL     1      54.371   1.453  18.809  0.00  0.00    +0.000 A 
ATOM     26  N   UNL     1      54.717   0.240  18.299  0.00  0.00    +0.000 NA
ATOM     27  C   UNL     1      53.869  -0.246  17.455  0.00  0.00    +0.000 A 
ATOM     28  N   UNL     1      52.703   0.370  17.079  0.00  0.00    +0.000 N 
ATOM     29  C   UNL     1      52.292   1.573  17.600  0.00  0.00    +0.000 A 
ATOM     30  O   UNL     1      51.209   2.062  17.297  0.00  0.00    +0.000 OA
ATOM     31  C   UNL     1      53.220   2.173  18.539  0.00  0.00    +0.000 A 
ATOM     32  H   UNL     1      52.074  -0.070  16.424  0.00  0.00    +0.000 HD
ENDBRANCH  19  22
ENDBRANCH  17  18
ENDBRANCH   4  17
TORSDOF 6
ENDMDL
MODEL 7
REMARK VINA RESULT:    -5.689      2.375      3.253
REMARK INTER + INTRA:          -8.745
REMARK INTER:                  -8.461
REMARK INTRA:                  -0.283
REMARK UNBOUND:                -1.061
REMARK  Name = 
REMARK  6 active torsions:
REMARK  status: ('A' for Active; 'I' for Inactive)
REMARK    1  A    between atoms: C_2  and  C_3
REMARK    2  A    between atoms: C_6  and  O_7
REMARK    3  A    between atoms: O_7  and  C_8
REMARK    4  A    between atoms: C_11  and  C_12
REMARK    5  A    between atoms: C_12  and  N_13
REMARK    6  A    between atoms: C_14  and  C_16
REMARK                            x       y       z     vdW  Elec       q    Type
REMARK                         _______ _______ _______ _____ _____    ______ ____
ROOT
ATOM      1  C   UNL     1      45.182   5.997  11.453  0.00  0.00    +0.000 A 
ATOM      2  C   UNL     1      46.383   5.664  12.087  0.00  0.00    +0.000 A 
ATOM      3  C   UNL     1      47.063   6.615  12.849  0.00  0.00    +0.000 A 
ATOM      4  C   UNL     1      46.595   7.931  12.920  0.00  0.00    +0.000 A 
ATOM      5  C   UNL     1      45.434   8.266  12.218  0.00  0.00    +0.000 A 
ATOM      6  F   UNL     1      44.980   9.528  12.242  0.00  0.00    +0.000 F 
ATOM      7  C   UNL     1      44.727   7.314  11.488  0.00  0.00    +0.000 A 
ENDROOT
BRANCH   1   8
ATOM      8  O   UNL     1      44.414   5.108  10.733  0.00  0.00    +0.000 OA
BRANCH   8  12
ATOM      9  C   UNL     1      46.118   2.522   7.928  0.00  0.00    +0.000 A 
ATOM     10  C   UNL     1      46.290   3.900   7.764  0.00  0.00    +0.000 A 
ATOM     11  C   UNL     1      45.761   4.789   8.705  0.00  0.00    +0.000 A 
ATOM     12  C   UNL     1      45.004   4.310   9.778  0.00  0.00    +0.000 A 
ATOM     13  C   UNL     1      44.860   2.932   9.959  0.00  0.00    +0.000 A 
ATOM     14  C   UNL     1      45.414   2.039   9.039  0.00  0.00    +0.000 A 
BRANCH   9  16
ATOM     15  N   UNL     1      47.109   0.867   6.195  0.00  0.00    +0.000 NA
ATOM     16  C   UNL     1      46.667   1.611   6.969  0.00  0.00    +0.000 C 
ENDBRANCH   9  16
ENDBRANCH   8  12
ENDBRANCH   1   8
BRANCH   4  17
ATOM     17  C   UNL     1      47.316   8.948  13.755  0.00  0.00    +0.000 C 
BRANCH  17  18
ATOM     18  N   UNL     1      47.570   8.459  15.088  0.00  0.00    +0.000 N 
ATOM     19  C   UNL     1      48.349   9.132  15.994  0.00  0.00    +0.000 C 
ATOM     20  O   UNL     1      48.884  10.205  15.731  0.00  0.00    +0.000 OA
ATOM     21  H   UNL     1      47.312   7.494  15.269  0.00  0.00    +0.000 HD
BRANCH  19  22
ATOM     22  C   UNL     1      48.453   8.533  17.334  0.00  0.00    +0.000 A 
ATOM     23  C   UNL     1      48.017   7.231  17.539  0.00  0.00    +0.000 A 
ATOM     24  S   UNL     1      48.263   6.668  19.130  0.00  0.00    +0.000 S 
ATOM     25  C   UNL     1      48.917   8.161  19.615  0.00  0.00    +0.000 A 
ATOM     26  N   UNL     1      49.325   8.362  20.897  0.00  0.00    +0.000 NA
ATOM     27  C   UNL     1      49.769   9.551  21.137  0.00  0.00    +0.000 A 
ATOM     28  N   UNL     1      49.847  10.555  20.208  0.00  0.00    +0.000 N 
ATOM     29  C   UNL     1      49.489  10.385  18.892  0.00  0.00    +0.000 A 
ATOM     30  O   UNL     1      49.639  11.282  18.069  0.00  0.00    +0.000 OA
ATOM     31  C   UNL     1      48.962   9.072  18.574  0.00  0.00    +0.000 A 
ATOM     32  H   UNL     1      50.219  11.460  20.455  0.00  0.00    +0.000 HD
ENDBRANCH  19  22
ENDBRANCH  17  18
ENDBRANCH   4  17
TORSDOF 6
ENDMDL
MODEL 8
REMARK VINA RESULT:    -5.164     10.989     12.928
REMARK INTER + INTRA:          -8.035
REMARK INTER:                  -7.095
REMARK INTRA:                  -0.940
REMARK UNBOUND:                -1.061
REMARK  Name = 
REMARK  6 active torsions:
REMARK  status: ('A' for Active; 'I' for Inactive)
REMARK    1  A    between atoms: C_2  and  C_3
REMARK    2  A    between atoms: C_6  and  O_7
REMARK    3  A    between atoms: O_7  and  C_8
REMARK    4  A    between atoms: C_11  and  C_12
REMARK    5  A    between atoms: C_12  and  N_13
REMARK    6  A    between atoms: C_14  and  C_16
REMARK                            x       y       z     vdW  Elec       q    Type
REMARK                         _______ _______ _______ _____ _____    ______ ____
ROOT
ATOM      1  C   UNL     1      42.170  -4.845  17.762  0.00  0.00    +0.000 A 
ATOM      2  C   UNL     1      41.513  -3.880  18.532  0.00  0.00    +0.000 A 
ATOM      3  C   UNL     1      40.782  -2.864  17.911  0.00  0.00    +0.000 A 
ATOM      4  C   UNL     1      40.768  -2.755  16.517  0.00  0.00    +0.000 A 
ATOM      5  C   UNL     1      41.492  -3.683  15.765  0.00  0.00    +0.000 A 
ATOM      6  F   UNL     1      41.522  -3.582  14.428  0.00  0.00    +0.000 F 
ATOM      7  C   UNL     1      42.190  -4.723  16.374  0.00  0.00    +0.000 A 
ENDROOT
BRANCH   1   8
ATOM      8  O   UNL     1      42.861  -5.915  18.289  0.00  0.00    +0.000 OA
BRANCH   8  12
ATOM      9  C   UNL     1      46.919  -6.465  17.460  0.00  0.00    +0.000 A 
ATOM     10  C   UNL     1      46.526  -5.328  18.174  0.00  0.00    +0.000 A 
ATOM     11  C   UNL     1      45.179  -5.134  18.497  0.00  0.00    +0.000 A 
ATOM     12  C   UNL     1      44.212  -6.041  18.052  0.00  0.00    +0.000 A 
ATOM     13  C   UNL     1      44.609  -7.192  17.368  0.00  0.00    +0.000 A 
ATOM     14  C   UNL     1      45.957  -7.406  17.072  0.00  0.00    +0.000 A 
BRANCH   9  16
ATOM     15  N   UNL     1      49.416  -6.836  16.870  0.00  0.00    +0.000 NA
ATOM     16  C   UNL     1      48.299  -6.668  17.137  0.00  0.00    +0.000 C 
ENDBRANCH   9  16
ENDBRANCH   8  12
ENDBRANCH   1   8
BRANCH   4  17
ATOM     17  C   UNL     1      39.967  -1.674  15.851  0.00  0.00    +0.000 C 
BRANCH  17  18
ATOM     18  N   UNL     1      39.164  -0.944  16.801  0.00  0.00    +0.000 N 
ATOM     19  C   UNL     1      38.227  -0.015  16.429  0.00  0.00    +0.000 C 
ATOM     20  O   UNL     1      38.006   0.259  15.252  0.00  0.00    +0.000 OA
ATOM     21  H   UNL     1      39.456  -0.998  17.772  0.00  0.00    +0.000 HD
BRANCH  19  22
ATOM     22  C   UNL     1      37.445   0.592  17.516  0.00  0.00    +0.000 A 
ATOM     23  C   UNL     1      36.495  -0.169  18.186  0.00  0.00    +0.000 A 
ATOM     24  S   UNL     1      35.720   0.664  19.456  0.00  0.00    +0.000 S 
ATOM     25  C   UNL     1      36.590   2.087  19.127  0.00  0.00    +0.000 A 
ATOM     26  N   UNL     1      36.386   3.216  19.858  0.00  0.00    +0.000 NA
ATOM     27  C   UNL     1      37.087   4.232  19.479  0.00  0.00    +0.000 A 
ATOM     28  N   UNL     1      37.979   4.219  18.438  0.00  0.00    +0.000 N 
ATOM     29  C   UNL     1      38.250   3.091  17.701  0.00  0.00    +0.000 A 
ATOM     30  O   UNL     1      39.107   3.095  16.823  0.00  0.00    +0.000 OA
ATOM     31  C   UNL     1      37.472   1.925  18.072  0.00  0.00    +0.000 A 
ATOM     32  H   UNL     1      38.509   5.045  18.201  0.00  0.00    +0.000 HD
ENDBRANCH  19  22
ENDBRANCH  17  18
ENDBRANCH   4  17
TORSDOF 6
ENDMDL
MODEL 9
REMARK VINA RESULT:    -5.062     11.230     13.917
REMARK INTER + INTRA:          -7.898
REMARK INTER:                  -6.750
REMARK INTRA:                  -1.148
REMARK UNBOUND:                -1.061
REMARK  Name = 
REMARK  6 active torsions:
REMARK  status: ('A' for Active; 'I' for Inactive)
REMARK    1  A    between atoms: C_2  and  C_3
REMARK    2  A    between atoms: C_6  and  O_7
REMARK    3  A    between atoms: O_7  and  C_8
REMARK    4  A    between atoms: C_11  and  C_12
REMARK    5  A    between atoms: C_12  and  N_13
REMARK    6  A    between atoms: C_14  and  C_16
REMARK                            x       y       z     vdW  Elec       q    Type
REMARK                         _______ _______ _______ _____ _____    ______ ____
ROOT
ATOM      1  C   UNL     1      42.488  -5.193  17.648  0.00  0.00    +0.000 A 
ATOM      2  C   UNL     1      42.274  -5.130  16.268  0.00  0.00    +0.000 A 
ATOM      3  C   UNL     1      41.576  -4.056  15.713  0.00  0.00    +0.000 A 
ATOM      4  C   UNL     1      41.015  -3.075  16.538  0.00  0.00    +0.000 A 
ATOM      5  C   UNL     1      41.174  -3.194  17.922  0.00  0.00    +0.000 A 
ATOM      6  F   UNL     1      40.619  -2.285  18.737  0.00  0.00    +0.000 F 
ATOM      7  C   UNL     1      41.902  -4.240  18.480  0.00  0.00    +0.000 A 
ENDROOT
BRANCH   1   8
ATOM      8  O   UNL     1      43.216  -6.182  18.275  0.00  0.00    +0.000 OA
BRANCH   8  12
ATOM      9  C   UNL     1      47.273  -6.606  17.374  0.00  0.00    +0.000 A 
ATOM     10  C   UNL     1      46.376  -7.570  16.906  0.00  0.00    +0.000 A 
ATOM     11  C   UNL     1      45.007  -7.438  17.161  0.00  0.00    +0.000 A 
ATOM     12  C   UNL     1      44.537  -6.376  17.940  0.00  0.00    +0.000 A 
ATOM     13  C   UNL     1      45.430  -5.395  18.379  0.00  0.00    +0.000 A 
ATOM     14  C   UNL     1      46.793  -5.507  18.098  0.00  0.00    +0.000 A 
BRANCH   9  16
ATOM     15  N   UNL     1      49.810  -6.838  16.891  0.00  0.00    +0.000 NA
ATOM     16  C   UNL     1      48.674  -6.736  17.105  0.00  0.00    +0.000 C 
ENDBRANCH   9  16
ENDBRANCH   8  12
ENDBRANCH   1   8
BRANCH   4  17
ATOM     17  C   UNL     1      40.282  -1.911  15.939  0.00  0.00    +0.000 C 
BRANCH  17  18
ATOM     18  N   UNL     1      39.442  -2.319  14.840  0.00  0.00    +0.000 N 
ATOM     19  C   UNL     1      38.415  -1.548  14.358  0.00  0.00    +0.000 C 
ATOM     20  O   UNL     1      38.141  -0.449  14.833  0.00  0.00    +0.000 OA
ATOM     21  H   UNL     1      39.511  -3.292  14.559  0.00  0.00    +0.000 HD
BRANCH  19  22
ATOM     22  C   UNL     1      37.698  -2.077  13.188  0.00  0.00    +0.000 A 
ATOM     23  C   UNL     1      36.330  -2.303  13.267  0.00  0.00    +0.000 A 
ATOM     24  S   UNL     1      35.642  -2.859  11.809  0.00  0.00    +0.000 S 
ATOM     25  C   UNL     1      37.155  -2.864  11.033  0.00  0.00    +0.000 A 
ATOM     26  N   UNL     1      37.275  -3.263   9.738  0.00  0.00    +0.000 NA
ATOM     27  C   UNL     1      38.485  -3.250   9.285  0.00  0.00    +0.000 A 
ATOM     28  N   UNL     1      39.584  -2.870  10.009  0.00  0.00    +0.000 N 
ATOM     29  C   UNL     1      39.506  -2.418  11.305  0.00  0.00    +0.000 A 
ATOM     30  O   UNL     1      40.499  -2.017  11.902  0.00  0.00    +0.000 OA
ATOM     31  C   UNL     1      38.170  -2.433  11.870  0.00  0.00    +0.000 A 
ATOM     32  H   UNL     1      40.503  -2.868   9.592  0.00  0.00    +0.000 HD
ENDBRANCH  19  22
ENDBRANCH  17  18
ENDBRANCH   4  17
TORSDOF 6
ENDMDL
