MODEL 1
REMARK VINA RESULT:    -8.115      0.000      0.000
REMARK INTER + INTRA:         -13.345
REMARK INTER:                 -12.147
REMARK INTRA:                  -1.198
REMARK UNBOUND:                -1.198
REMARK  Name = 
REMARK  10 active torsions:
REMARK  status: ('A' for Active; 'I' for Inactive)
REMARK    1  A    between atoms: C_1  and  C_2
REMARK    2  A    between atoms: C_2  and  N_3
REMARK    3  A    between atoms: C_2  and  C_27
REMARK    4  A    between atoms: N_3  and  C_4
REMARK    5  A    between atoms: C_4  and  C_5
REMARK    6  A    between atoms: C_8  and  CA_9
REMARK    7  A    between atoms: CA_9  and  C_10
REMARK    8  A    between atoms: CA_9  and  N_12
REMARK    9  A    between atoms: C_10  and  O_11
REMARK   10  A    between atoms: C_13  and  C_15
REMARK                            x       y       z     vdW  Elec       q    Type
REMARK                         _______ _______ _______ _____ _____    ______ ____
ROOT
ATOM      1  CA  UNL     1      48.481   7.029  14.704  0.00  0.00    +0.000 C 
ENDROOT
BRANCH   1   5
ATOM      2  C   UNL     1      45.501   4.500  12.762  0.00  0.00    +0.000 A 
ATOM      3  C   UNL     1      46.494   3.924  13.562  0.00  0.00    +0.000 A 
ATOM      4  C   UNL     1      47.461   4.721  14.182  0.00  0.00    +0.000 A 
ATOM      5  C   UNL     1      47.467   6.117  14.016  0.00  0.00    +0.000 A 
ATOM      6  C   UNL     1      46.476   6.684  13.203  0.00  0.00    +0.000 A 
ATOM      7  C   UNL     1      45.511   5.888  12.581  0.00  0.00    +0.000 A 
BRANCH   2   8
ATOM      8  C   UNL     1      44.539   3.647  11.967  0.00  0.00    +0.000 C 
BRANCH   8   9
ATOM      9  N   UNL     1      45.185   2.703  11.045  0.00  0.00    +0.000 NA
ATOM     10  H   UNL     1      44.956   1.758  11.360  0.00  0.00    +0.000 HD
BRANCH   9  12
ATOM     11  C   UNL     1      44.128   4.289   9.419  0.00  0.00    +0.000 C 
ATOM     12  C   UNL     1      44.661   2.867   9.665  0.00  0.00    +0.000 C 
BRANCH  12  13
ATOM     13  C   UNL     1      45.675   2.595   8.549  0.00  0.00    +0.000 A 
ATOM     14  C   UNL     1      46.000   3.553   7.589  0.00  0.00    +0.000 A 
ATOM     15  C   UNL     1      46.779   3.176   6.495  0.00  0.00    +0.000 A 
ATOM     16  C   UNL     1      47.206   1.859   6.379  0.00  0.00    +0.000 A 
ATOM     17  C   UNL     1      46.861   0.973   7.381  0.00  0.00    +0.000 A 
ATOM     18  N   UNL     1      46.119   1.312   8.458  0.00  0.00    +0.000 NA
ENDBRANCH  12  13
ENDBRANCH   9  12
ENDBRANCH   8   9
ENDBRANCH   2   8
ENDBRANCH   1   5
BRANCH   1  19
ATOM     19  N   UNL     1      49.461   6.275  15.462  0.00  0.00    +0.000 N 
ATOM     20  C   UNL     1      49.330   5.938  16.779  0.00  0.00    +0.000 C 
ATOM     21  O   UNL     1      48.348   6.243  17.449  0.00  0.00    +0.000 OA
ATOM     22  H   UNL     1      50.331   6.088  14.975  0.00  0.00    +0.000 HD
BRANCH  20  23
ATOM     23  C   UNL     1      50.436   5.150  17.339  0.00  0.00    +0.000 A 
ATOM     24  C   UNL     1      51.502   5.791  17.956  0.00  0.00    +0.000 A 
ATOM     25  S   UNL     1      52.696   4.717  18.531  0.00  0.00    +0.000 S 
ATOM     26  C   UNL     1      51.852   3.367  17.931  0.00  0.00    +0.000 A 
ATOM     27  N   UNL     1      52.360   2.111  18.049  0.00  0.00    +0.000 NA
ATOM     28  C   UNL     1      51.633   1.186  17.509  0.00  0.00    +0.000 A 
ATOM     29  N   UNL     1      50.435   1.398  16.887  0.00  0.00    +0.000 N 
ATOM     30  C   UNL     1      49.841   2.632  16.846  0.00  0.00    +0.000 A 
ATOM     31  O   UNL     1      48.687   2.757  16.457  0.00  0.00    +0.000 OA
ATOM     32  C   UNL     1      50.650   3.722  17.352  0.00  0.00    +0.000 A 
ATOM     33  H   UNL     1      49.886   0.626  16.534  0.00  0.00    +0.000 HD
ENDBRANCH  20  23
ENDBRANCH   1  19
BRANCH   1  34
ATOM     34  C   UNL     1      49.235   7.950  13.708  0.00  0.00    +0.000 C 
BRANCH  34  35
ATOM     35  O   UNL     1      49.992   7.229  12.731  0.00  0.00    +0.000 OA
ATOM     36  H   UNL     1      49.682   6.307  12.721  0.00  0.00    +0.000 HD
ENDBRANCH  34  35
ENDBRANCH   1  34
TORSDOF 9
ENDMDL
MODEL 2
REMARK VINA RESULT:    -7.969      2.793      4.225
REMARK INTER + INTRA:         -13.127
REMARK INTER:                 -11.615
REMARK INTRA:                  -1.512
REMARK UNBOUND:                -1.198
REMARK  Name = 
REMARK  10 active torsions:
REMARK  status: ('A' for Active; 'I' for Inactive)
REMARK    1  A    between atoms: C_1  and  C_2
REMARK    2  A    between atoms: C_2  and  N_3
REMARK    3  A    between atoms: C_2  and  C_27
REMARK    4  A    between atoms: N_3  and  C_4
REMARK    5  A    between atoms: C_4  and  C_5
REMARK    6  A    between atoms: C_8  and  CA_9
REMARK    7  A    between atoms: CA_9  and  C_10
REMARK    8  A    between atoms: CA_9  and  N_12
REMARK    9  A    between atoms: C_10  and  O_11
REMARK   10  A    between atoms: C_13  and  C_15
REMARK                            x       y       z     vdW  Elec       q    Type
REMARK                         _______ _______ _______ _____ _____    ______ ____
ROOT
ATOM      1  CA  UNL     1      47.811   4.503  15.160  0.00  0.00    +0.000 C 
ENDROOT
BRANCH   1   5
ATOM      2  C   UNL     1      44.787   4.525  12.011  0.00  0.00    +0.000 A 
ATOM      3  C   UNL     1      45.437   3.333  12.349  0.00  0.00    +0.000 A 
ATOM      4  C   UNL     1      46.415   3.313  13.349  0.00  0.00    +0.000 A 
ATOM      5  C   UNL     1      46.776   4.486  14.036  0.00  0.00    +0.000 A 
ATOM      6  C   UNL     1      46.128   5.677  13.682  0.00  0.00    +0.000 A 
ATOM      7  C   UNL     1      45.153   5.698  12.682  0.00  0.00    +0.000 A 
BRANCH   2   8
ATOM      8  C   UNL     1      43.838   4.596  10.838  0.00  0.00    +0.000 C 
BRANCH   8   9
ATOM      9  N   UNL     1      44.060   3.566   9.814  0.00  0.00    +0.000 NA
ATOM     10  H   UNL     1      43.144   3.264   9.476  0.00  0.00    +0.000 HD
BRANCH   9  12
ATOM     11  C   UNL     1      45.777   5.241   9.090  0.00  0.00    +0.000 C 
ATOM     12  C   UNL     1      44.816   4.119   8.662  0.00  0.00    +0.000 C 
BRANCH  12  13
ATOM     13  C   UNL     1      45.666   3.102   7.894  0.00  0.00    +0.000 A 
ATOM     14  C   UNL     1      45.879   1.805   8.362  0.00  0.00    +0.000 A 
ATOM     15  C   UNL     1      46.816   0.999   7.717  0.00  0.00    +0.000 A 
ATOM     16  C   UNL     1      47.522   1.502   6.631  0.00  0.00    +0.000 A 
ATOM     17  C   UNL     1      47.240   2.789   6.213  0.00  0.00    +0.000 A 
ATOM     18  N   UNL     1      46.330   3.589   6.810  0.00  0.00    +0.000 NA
ENDBRANCH  12  13
ENDBRANCH   9  12
ENDBRANCH   8   9
ENDBRANCH   2   8
ENDBRANCH   1   5
BRANCH   1  19
ATOM     19  N   UNL     1      47.767   5.741  15.915  0.00  0.00    +0.000 N 
ATOM     20  C   UNL     1      48.841   6.559  16.124  0.00  0.00    +0.000 C 
ATOM     21  O   UNL     1      49.957   6.320  15.674  0.00  0.00    +0.000 OA
ATOM     22  H   UNL     1      46.889   5.927  16.387  0.00  0.00    +0.000 HD
BRANCH  20  23
ATOM     23  C   UNL     1      48.563   7.774  16.901  0.00  0.00    +0.000 A 
ATOM     24  C   UNL     1      48.792   9.024  16.341  0.00  0.00    +0.000 A 
ATOM     25  S   UNL     1      48.426  10.314  17.395  0.00  0.00    +0.000 S 
ATOM     26  C   UNL     1      47.996   9.246  18.647  0.00  0.00    +0.000 A 
ATOM     27  N   UNL     1      47.622   9.710  19.869  0.00  0.00    +0.000 NA
ATOM     28  C   UNL     1      47.365   8.784  20.738  0.00  0.00    +0.000 A 
ATOM     29  N   UNL     1      47.423   7.443  20.489  0.00  0.00    +0.000 N 
ATOM     30  C   UNL     1      47.688   6.941  19.242  0.00  0.00    +0.000 A 
ATOM     31  O   UNL     1      47.544   5.749  19.004  0.00  0.00    +0.000 OA
ATOM     32  C   UNL     1      48.075   7.926  18.252  0.00  0.00    +0.000 A 
ATOM     33  H   UNL     1      47.156   6.769  21.194  0.00  0.00    +0.000 HD
ENDBRANCH  20  23
ENDBRANCH   1  19
BRANCH   1  34
ATOM     34  C   UNL     1      47.644   3.319  16.149  0.00  0.00    +0.000 C 
BRANCH  34  35
ATOM     35  O   UNL     1      46.626   3.537  17.130  0.00  0.00    +0.000 OA
ATOM     36  H   UNL     1      46.352   4.470  17.086  0.00  0.00    +0.000 HD
ENDBRANCH  34  35
ENDBRANCH   1  34
TORSDOF 9
ENDMDL
MODEL 3
REMARK VINA RESULT:    -7.891      2.201      2.847
REMARK INTER + INTRA:         -13.011
REMARK INTER:                 -11.783
REMARK INTRA:                  -1.228
REMARK UNBOUND:                -1.198
REMARK  Name = 
REMARK  10 active torsions:
REMARK  status: ('A' for Active; 'I' for Inactive)
REMARK    1  A    between atoms: C_1  and  C_2
REMARK    2  A    between atoms: C_2  and  N_3
REMARK    3  A    between atoms: C_2  and  C_27
REMARK    4  A    between atoms: N_3  and  C_4
REMARK    5  A    between atoms: C_4  and  C_5
REMARK    6  A    between atoms: C_8  and  CA_9
REMARK    7  A    between atoms: CA_9  and  C_10
REMARK    8  A    between atoms: CA_9  and  N_12
REMARK    9  A    between atoms: C_10  and  O_11
REMARK   10  A    between atoms: C_13  and  C_15
REMARK                            x       y       z     vdW  Elec       q    Type
REMARK                         _______ _______ _______ _____ _____    ______ ____
ROOT
ATOM      1  CA  UNL     1      48.171   7.633  13.852  0.00  0.00    +0.000 C 
ENDROOT
BRANCH   1   5
ATOM      2  C   UNL     1      45.400   4.832  11.973  0.00  0.00    +0.000 A 
ATOM      3  C   UNL     1      45.636   6.081  11.389  0.00  0.00    +0.000 A 
ATOM      4  C   UNL     1      46.514   6.992  11.984  0.00  0.00    +0.000 A 
ATOM      5  C   UNL     1      47.176   6.684  13.186  0.00  0.00    +0.000 A 
ATOM      6  C   UNL     1      46.924   5.435  13.771  0.00  0.00    +0.000 A 
ATOM      7  C   UNL     1      46.045   4.525  13.177  0.00  0.00    +0.000 A 
BRANCH   2   8
ATOM      8  C   UNL     1      44.347   3.896  11.426  0.00  0.00    +0.000 C 
BRANCH   8   9
ATOM      9  N   UNL     1      44.885   2.717  10.733  0.00  0.00    +0.000 NA
ATOM     10  H   UNL     1      44.422   1.893  11.119  0.00  0.00    +0.000 HD
BRANCH   9  12
ATOM     11  C   UNL     1      44.099   4.169   8.848  0.00  0.00    +0.000 C 
ATOM     12  C   UNL     1      44.583   2.774   9.279  0.00  0.00    +0.000 C 
BRANCH  12  13
ATOM     13  C   UNL     1      45.758   2.429   8.358  0.00  0.00    +0.000 A 
ATOM     14  C   UNL     1      46.299   3.353   7.464  0.00  0.00    +0.000 A 
ATOM     15  C   UNL     1      47.232   2.916   6.524  0.00  0.00    +0.000 A 
ATOM     16  C   UNL     1      47.598   1.576   6.492  0.00  0.00    +0.000 A 
ATOM     17  C   UNL     1      47.034   0.726   7.424  0.00  0.00    +0.000 A 
ATOM     18  N   UNL     1      46.137   1.122   8.354  0.00  0.00    +0.000 NA
ENDBRANCH  12  13
ENDBRANCH   9  12
ENDBRANCH   8   9
ENDBRANCH   2   8
ENDBRANCH   1   5
BRANCH   1  19
ATOM     19  N   UNL     1      48.193   7.470  15.293  0.00  0.00    +0.000 N 
ATOM     20  C   UNL     1      48.604   8.429  16.174  0.00  0.00    +0.000 C 
ATOM     21  O   UNL     1      48.991   9.537  15.819  0.00  0.00    +0.000 OA
ATOM     22  H   UNL     1      47.975   6.536  15.624  0.00  0.00    +0.000 HD
BRANCH  20  23
ATOM     23  C   UNL     1      48.520   8.054  17.593  0.00  0.00    +0.000 A 
ATOM     24  C   UNL     1      47.932   8.919  18.505  0.00  0.00    +0.000 A 
ATOM     25  S   UNL     1      47.939   8.323  20.103  0.00  0.00    +0.000 S 
ATOM     26  C   UNL     1      48.770   6.915  19.636  0.00  0.00    +0.000 A 
ATOM     27  N   UNL     1      49.140   5.980  20.552  0.00  0.00    +0.000 NA
ATOM     28  C   UNL     1      49.805   4.983  20.061  0.00  0.00    +0.000 A 
ATOM     29  N   UNL     1      50.109   4.823  18.740  0.00  0.00    +0.000 N 
ATOM     30  C   UNL     1      49.660   5.686  17.775  0.00  0.00    +0.000 A 
ATOM     31  O   UNL     1      49.782   5.416  16.588  0.00  0.00    +0.000 OA
ATOM     32  C   UNL     1      48.990   6.871  18.274  0.00  0.00    +0.000 A 
ATOM     33  H   UNL     1      50.583   3.993  18.410  0.00  0.00    +0.000 HD
ENDBRANCH  20  23
ENDBRANCH   1  19
BRANCH   1  34
ATOM     34  C   UNL     1      49.618   7.459  13.317  0.00  0.00    +0.000 C 
BRANCH  34  35
ATOM     35  O   UNL     1      50.553   7.066  14.326  0.00  0.00    +0.000 OA
ATOM     36  H   UNL     1      51.097   6.340  13.974  0.00  0.00    +0.000 HD
ENDBRANCH  34  35
ENDBRANCH   1  34
TORSDOF 9
ENDMDL
MODEL 4
REMARK VINA RESULT:    -7.629      1.893      2.270
REMARK INTER + INTRA:         -12.618
REMARK INTER:                 -11.320
REMARK INTRA:                  -1.298
REMARK UNBOUND:                -1.198
REMARK  Name = 
REMARK  10 active torsions:
REMARK  status: ('A' for Active; 'I' for Inactive)
REMARK    1  A    between atoms: C_1  and  C_2
REMARK    2  A    between atoms: C_2  and  N_3
REMARK    3  A    between atoms: C_2  and  C_27
REMARK    4  A    between atoms: N_3  and  C_4
REMARK    5  A    between atoms: C_4  and  C_5
REMARK    6  A    between atoms: C_8  and  CA_9
REMARK    7  A    between atoms: CA_9  and  C_10
REMARK    8  A    between atoms: CA_9  and  N_12
REMARK    9  A    between atoms: C_10  and  O_11
REMARK   10  A    between atoms: C_13  and  C_15
REMARK                            x       y       z     vdW  Elec       q    Type
REMARK                         _______ _______ _______ _____ _____    ______ ____
ROOT
ATOM      1  CA  UNL     1      48.058   7.864  12.897  0.00  0.00    +0.000 C 
ENDROOT
BRANCH   1   5
ATOM      2  C   UNL     1      44.697   5.796  11.029  0.00  0.00    +0.000 A 
ATOM      3  C   UNL     1      44.568   6.317  12.322  0.00  0.00    +0.000 A 
ATOM      4  C   UNL     1      45.639   6.973  12.936  0.00  0.00    +0.000 A 
ATOM      5  C   UNL     1      46.874   7.122  12.279  0.00  0.00    +0.000 A 
ATOM      6  C   UNL     1      46.998   6.586  10.990  0.00  0.00    +0.000 A 
ATOM      7  C   UNL     1      45.928   5.929  10.376  0.00  0.00    +0.000 A 
BRANCH   2   8
ATOM      8  C   UNL     1      43.604   4.959  10.407  0.00  0.00    +0.000 C 
BRANCH   8   9
ATOM      9  N   UNL     1      43.985   4.300   9.151  0.00  0.00    +0.000 NA
ATOM     10  H   UNL     1      44.512   4.976   8.594  0.00  0.00    +0.000 HD
BRANCH   9  12
ATOM     11  C   UNL     1      44.058   1.852   9.685  0.00  0.00    +0.000 C 
ATOM     12  C   UNL     1      44.866   3.133   9.410  0.00  0.00    +0.000 C 
BRANCH  12  13
ATOM     13  C   UNL     1      45.837   2.786   8.277  0.00  0.00    +0.000 A 
ATOM     14  C   UNL     1      46.079   3.655   7.213  0.00  0.00    +0.000 A 
ATOM     15  C   UNL     1      46.820   3.198   6.123  0.00  0.00    +0.000 A 
ATOM     16  C   UNL     1      47.293   1.892   6.114  0.00  0.00    +0.000 A 
ATOM     17  C   UNL     1      47.029   1.098   7.214  0.00  0.00    +0.000 A 
ATOM     18  N   UNL     1      46.326   1.516   8.289  0.00  0.00    +0.000 NA
ENDBRANCH  12  13
ENDBRANCH   9  12
ENDBRANCH   8   9
ENDBRANCH   2   8
ENDBRANCH   1   5
BRANCH   1  19
ATOM     19  N   UNL     1      48.580   7.174  14.061  0.00  0.00    +0.000 N 
ATOM     20  C   UNL     1      48.571   7.679  15.330  0.00  0.00    +0.000 C 
ATOM     21  O   UNL     1      48.105   8.780  15.604  0.00  0.00    +0.000 OA
ATOM     22  H   UNL     1      49.064   6.304  13.865  0.00  0.00    +0.000 HD
BRANCH  20  23
ATOM     23  C   UNL     1      49.133   6.797  16.361  0.00  0.00    +0.000 A 
ATOM     24  C   UNL     1      50.148   7.256  17.190  0.00  0.00    +0.000 A 
ATOM     25  S   UNL     1      50.683   6.089  18.314  0.00  0.00    +0.000 S 
ATOM     26  C   UNL     1      49.612   4.920  17.698  0.00  0.00    +0.000 A 
ATOM     27  N   UNL     1      49.592   3.654  18.193  0.00  0.00    +0.000 NA
ATOM     28  C   UNL     1      48.759   2.859  17.600  0.00  0.00    +0.000 A 
ATOM     29  N   UNL     1      47.929   3.221  16.578  0.00  0.00    +0.000 N 
ATOM     30  C   UNL     1      47.844   4.512  16.126  0.00  0.00    +0.000 A 
ATOM     31  O   UNL     1      46.960   4.845  15.348  0.00  0.00    +0.000 OA
ATOM     32  C   UNL     1      48.817   5.426  16.688  0.00  0.00    +0.000 A 
ATOM     33  H   UNL     1      47.260   2.568  16.193  0.00  0.00    +0.000 HD
ENDBRANCH  20  23
ENDBRANCH   1  19
BRANCH   1  34
ATOM     34  C   UNL     1      49.221   8.081  11.893  0.00  0.00    +0.000 C 
BRANCH  34  35
ATOM     35  O   UNL     1      50.411   7.365  12.239  0.00  0.00    +0.000 OA
ATOM     36  H   UNL     1      51.155   7.749  11.744  0.00  0.00    +0.000 HD
ENDBRANCH  34  35
ENDBRANCH   1  34
TORSDOF 9
ENDMDL
MODEL 5
REMARK VINA RESULT:    -7.619      1.952      2.429
REMARK INTER + INTRA:         -12.603
REMARK INTER:                 -11.359
REMARK INTRA:                  -1.244
REMARK UNBOUND:                -1.198
REMARK  Name = 
REMARK  10 active torsions:
REMARK  status: ('A' for Active; 'I' for Inactive)
REMARK    1  A    between atoms: C_1  and  C_2
REMARK    2  A    between atoms: C_2  and  N_3
REMARK    3  A    between atoms: C_2  and  C_27
REMARK    4  A    between atoms: N_3  and  C_4
REMARK    5  A    between atoms: C_4  and  C_5
REMARK    6  A    between atoms: C_8  and  CA_9
REMARK    7  A    between atoms: CA_9  and  C_10
REMARK    8  A    between atoms: CA_9  and  N_12
REMARK    9  A    between atoms: C_10  and  O_11
REMARK   10  A    between atoms: C_13  and  C_15
REMARK                            x       y       z     vdW  Elec       q    Type
REMARK                         _______ _______ _______ _____ _____    ______ ____
ROOT
ATOM      1  CA  UNL     1      47.721   7.337  13.771  0.00  0.00    +0.000 C 
ENDROOT
BRANCH   1   5
ATOM      2  C   UNL     1      44.553   5.469  11.418  0.00  0.00    +0.000 A 
ATOM      3  C   UNL     1      44.974   4.882  12.617  0.00  0.00    +0.000 A 
ATOM      4  C   UNL     1      45.995   5.463  13.376  0.00  0.00    +0.000 A 
ATOM      5  C   UNL     1      46.629   6.647  12.956  0.00  0.00    +0.000 A 
ATOM      6  C   UNL     1      46.209   7.221  11.747  0.00  0.00    +0.000 A 
ATOM      7  C   UNL     1      45.191   6.638  10.988  0.00  0.00    +0.000 A 
BRANCH   2   8
ATOM      8  C   UNL     1      43.559   4.780  10.513  0.00  0.00    +0.000 C 
BRANCH   8   9
ATOM      9  N   UNL     1      44.107   4.362   9.216  0.00  0.00    +0.000 NA
ATOM     10  H   UNL     1      44.666   5.136   8.853  0.00  0.00    +0.000 HD
BRANCH   9  12
ATOM     11  C   UNL     1      44.223   1.931   9.811  0.00  0.00    +0.000 C 
ATOM     12  C   UNL     1      44.998   3.184   9.372  0.00  0.00    +0.000 C 
BRANCH  12  13
ATOM     13  C   UNL     1      45.772   2.784   8.111  0.00  0.00    +0.000 A 
ATOM     14  C   UNL     1      46.428   1.558   7.998  0.00  0.00    +0.000 A 
ATOM     15  C   UNL     1      47.270   1.341   6.907  0.00  0.00    +0.000 A 
ATOM     16  C   UNL     1      47.445   2.346   5.964  0.00  0.00    +0.000 A 
ATOM     17  C   UNL     1      46.745   3.525   6.134  0.00  0.00    +0.000 A 
ATOM     18  N   UNL     1      45.913   3.761   7.173  0.00  0.00    +0.000 NA
ENDBRANCH  12  13
ENDBRANCH   9  12
ENDBRANCH   8   9
ENDBRANCH   2   8
ENDBRANCH   1   5
BRANCH   1  19
ATOM     19  N   UNL     1      48.228   6.483  14.828  0.00  0.00    +0.000 N 
ATOM     20  C   UNL     1      48.727   6.934  16.016  0.00  0.00    +0.000 C 
ATOM     21  O   UNL     1      48.784   8.125  16.304  0.00  0.00    +0.000 OA
ATOM     22  H   UNL     1      48.291   5.498  14.593  0.00  0.00    +0.000 HD
BRANCH  20  23
ATOM     23  C   UNL     1      49.165   5.889  16.951  0.00  0.00    +0.000 A 
ATOM     24  C   UNL     1      48.225   5.137  17.641  0.00  0.00    +0.000 A 
ATOM     25  S   UNL     1      48.919   3.984  18.689  0.00  0.00    +0.000 S 
ATOM     26  C   UNL     1      50.494   4.485  18.292  0.00  0.00    +0.000 A 
ATOM     27  N   UNL     1      51.582   3.926  18.887  0.00  0.00    +0.000 NA
ATOM     28  C   UNL     1      52.715   4.435  18.521  0.00  0.00    +0.000 A 
ATOM     29  N   UNL     1      52.860   5.432  17.599  0.00  0.00    +0.000 N 
ATOM     30  C   UNL     1      51.798   5.943  16.900  0.00  0.00    +0.000 A 
ATOM     31  O   UNL     1      51.978   6.692  15.949  0.00  0.00    +0.000 OA
ATOM     32  C   UNL     1      50.496   5.478  17.332  0.00  0.00    +0.000 A 
ATOM     33  H   UNL     1      53.777   5.750  17.313  0.00  0.00    +0.000 HD
ENDBRANCH  20  23
ENDBRANCH   1  19
BRANCH   1  34
ATOM     34  C   UNL     1      48.917   7.802  12.900  0.00  0.00    +0.000 C 
BRANCH  34  35
ATOM     35  O   UNL     1      49.791   6.734  12.517  0.00  0.00    +0.000 OA
ATOM     36  H   UNL     1      50.661   6.889  12.924  0.00  0.00    +0.000 HD
ENDBRANCH  34  35
ENDBRANCH   1  34
TORSDOF 9
ENDMDL
MODEL 6
REMARK VINA RESULT:    -7.170      4.194      5.950
REMARK INTER + INTRA:         -11.932
REMARK INTER:                 -10.778
REMARK INTRA:                  -1.154
REMARK UNBOUND:                -1.198
REMARK  Name = 
REMARK  10 active torsions:
REMARK  status: ('A' for Active; 'I' for Inactive)
REMARK    1  A    between atoms: C_1  and  C_2
REMARK    2  A    between atoms: C_2  and  N_3
REMARK    3  A    between atoms: C_2  and  C_27
REMARK    4  A    between atoms: N_3  and  C_4
REMARK    5  A    between atoms: C_4  and  C_5
REMARK    6  A    between atoms: C_8  and  CA_9
REMARK    7  A    between atoms: CA_9  and  C_10
REMARK    8  A    between atoms: CA_9  and  N_12
REMARK    9  A    between atoms: C_10  and  O_11
REMARK   10  A    between atoms: C_13  and  C_15
REMARK                            x       y       z     vdW  Elec       q    Type
REMARK                         _______ _______ _______ _____ _____    ______ ____
ROOT
ATOM      1  CA  UNL     1      48.924   7.689  13.607  0.00  0.00    +0.000 C 
ENDROOT
BRANCH   1   5
ATOM      2  C   UNL     1      45.834   5.035  12.037  0.00  0.00    +0.000 A 
ATOM      3  C   UNL     1      46.248   6.145  11.292  0.00  0.00    +0.000 A 
ATOM      4  C   UNL     1      47.230   7.010  11.787  0.00  0.00    +0.000 A 
ATOM      5  C   UNL     1      47.822   6.793  13.044  0.00  0.00    +0.000 A 
ATOM      6  C   UNL     1      47.392   5.686  13.789  0.00  0.00    +0.000 A 
ATOM      7  C   UNL     1      46.409   4.823  13.295  0.00  0.00    +0.000 A 
BRANCH   2   8
ATOM      8  C   UNL     1      44.675   4.177  11.587  0.00  0.00    +0.000 C 
BRANCH   8   9
ATOM      9  N   UNL     1      45.068   2.927  10.922  0.00  0.00    +0.000 NA
ATOM     10  H   UNL     1      44.602   2.158  11.408  0.00  0.00    +0.000 HD
BRANCH   9  12
ATOM     11  C   UNL     1      44.031   4.272   9.079  0.00  0.00    +0.000 C 
ATOM     12  C   UNL     1      44.617   2.915   9.507  0.00  0.00    +0.000 C 
BRANCH  12  13
ATOM     13  C   UNL     1      45.705   2.581   8.482  0.00  0.00    +0.000 A 
ATOM     14  C   UNL     1      46.136   3.502   7.526  0.00  0.00    +0.000 A 
ATOM     15  C   UNL     1      46.984   3.070   6.507  0.00  0.00    +0.000 A 
ATOM     16  C   UNL     1      47.376   1.738   6.458  0.00  0.00    +0.000 A 
ATOM     17  C   UNL     1      46.925   0.891   7.452  0.00  0.00    +0.000 A 
ATOM     18  N   UNL     1      46.113   1.282   8.459  0.00  0.00    +0.000 NA
ENDBRANCH  12  13
ENDBRANCH   9  12
ENDBRANCH   8   9
ENDBRANCH   2   8
ENDBRANCH   1   5
BRANCH   1  19
ATOM     19  N   UNL     1      49.625   8.407  12.560  0.00  0.00    +0.000 N 
ATOM     20  C   UNL     1      50.972   8.634  12.546  0.00  0.00    +0.000 C 
ATOM     21  O   UNL     1      51.724   8.237  13.430  0.00  0.00    +0.000 OA
ATOM     22  H   UNL     1      49.031   8.838  11.861  0.00  0.00    +0.000 HD
BRANCH  20  23
ATOM     23  C   UNL     1      51.473   9.365  11.374  0.00  0.00    +0.000 A 
ATOM     24  C   UNL     1      51.375  10.749  11.325  0.00  0.00    +0.000 A 
ATOM     25  S   UNL     1      51.994  11.419   9.883  0.00  0.00    +0.000 S 
ATOM     26  C   UNL     1      52.366   9.882   9.259  0.00  0.00    +0.000 A 
ATOM     27  N   UNL     1      52.891   9.737   8.013  0.00  0.00    +0.000 NA
ATOM     28  C   UNL     1      53.083   8.508   7.652  0.00  0.00    +0.000 A 
ATOM     29  N   UNL     1      52.823   7.416   8.430  0.00  0.00    +0.000 N 
ATOM     30  C   UNL     1      52.398   7.527   9.728  0.00  0.00    +0.000 A 
ATOM     31  O   UNL     1      52.359   6.547  10.459  0.00  0.00    +0.000 OA
ATOM     32  C   UNL     1      52.077   8.874  10.157  0.00  0.00    +0.000 A 
ATOM     33  H   UNL     1      53.047   6.483   8.112  0.00  0.00    +0.000 HD
ENDBRANCH  20  23
ENDBRANCH   1  19
BRANCH   1  34
ATOM     34  C   UNL     1      48.392   8.721  14.637  0.00  0.00    +0.000 C 
BRANCH  34  35
ATOM     35  O   UNL     1      46.976   8.918  14.564  0.00  0.00    +0.000 OA
ATOM     36  H   UNL     1      46.724   8.987  13.626  0.00  0.00    +0.000 HD
ENDBRANCH  34  35
ENDBRANCH   1  34
TORSDOF 9
ENDMDL
MODEL 7
REMARK VINA RESULT:    -7.127      2.409      3.263
REMARK INTER + INTRA:         -11.867
REMARK INTER:                 -10.409
REMARK INTRA:                  -1.458
REMARK UNBOUND:                -1.198
REMARK  Name = 
REMARK  10 active torsions:
REMARK  status: ('A' for Active; 'I' for Inactive)
REMARK    1  A    between atoms: C_1  and  C_2
REMARK    2  A    between atoms: C_2  and  N_3
REMARK    3  A    between atoms: C_2  and  C_27
REMARK    4  A    between atoms: N_3  and  C_4
REMARK    5  A    between atoms: C_4  and  C_5
REMARK    6  A    between atoms: C_8  and  CA_9
REMARK    7  A    between atoms: CA_9  and  C_10
REMARK    8  A    between atoms: CA_9  and  N_12
REMARK    9  A    between atoms: C_10  and  O_11
REMARK   10  A    between atoms: C_13  and  C_15
REMARK                            x       y       z     vdW  Elec       q    Type
REMARK                         _______ _______ _______ _____ _____    ______ ____
ROOT
ATOM      1  CA  UNL     1      48.044   8.200  13.419  0.00  0.00    +0.000 C 
ENDROOT
BRANCH   1   5
ATOM      2  C   UNL     1      45.433   5.027  11.943  0.00  0.00    +0.000 A 
ATOM      3  C   UNL     1      45.478   6.261  11.284  0.00  0.00    +0.000 A 
ATOM      4  C   UNL     1      46.302   7.290  11.751  0.00  0.00    +0.000 A 
ATOM      5  C   UNL     1      47.102   7.118  12.895  0.00  0.00    +0.000 A 
ATOM      6  C   UNL     1      47.041   5.883  13.556  0.00  0.00    +0.000 A 
ATOM      7  C   UNL     1      46.216   4.856  13.091  0.00  0.00    +0.000 A 
BRANCH   2   8
ATOM      8  C   UNL     1      44.444   3.958  11.543  0.00  0.00    +0.000 C 
BRANCH   8   9
ATOM      9  N   UNL     1      45.042   2.804  10.859  0.00  0.00    +0.000 NA
ATOM     10  H   UNL     1      44.685   1.959  11.309  0.00  0.00    +0.000 HD
BRANCH   9  12
ATOM     11  C   UNL     1      44.060   4.114   8.962  0.00  0.00    +0.000 C 
ATOM     12  C   UNL     1      44.639   2.768   9.430  0.00  0.00    +0.000 C 
BRANCH  12  13
ATOM     13  C   UNL     1      45.762   2.425   8.446  0.00  0.00    +0.000 A 
ATOM     14  C   UNL     1      46.285   3.363   7.556  0.00  0.00    +0.000 A 
ATOM     15  C   UNL     1      47.165   2.934   6.562  0.00  0.00    +0.000 A 
ATOM     16  C   UNL     1      47.496   1.588   6.474  0.00  0.00    +0.000 A 
ATOM     17  C   UNL     1      46.954   0.723   7.405  0.00  0.00    +0.000 A 
ATOM     18  N   UNL     1      46.109   1.110   8.386  0.00  0.00    +0.000 NA
ENDBRANCH  12  13
ENDBRANCH   9  12
ENDBRANCH   8   9
ENDBRANCH   2   8
ENDBRANCH   1   5
BRANCH   1  19
ATOM     19  N   UNL     1      49.195   7.634  14.096  0.00  0.00    +0.000 N 
ATOM     20  C   UNL     1      49.455   7.775  15.429  0.00  0.00    +0.000 C 
ATOM     21  O   UNL     1      48.721   8.399  16.188  0.00  0.00    +0.000 OA
ATOM     22  H   UNL     1      49.879   7.194  13.489  0.00  0.00    +0.000 HD
BRANCH  20  23
ATOM     23  C   UNL     1      50.668   7.097  15.907  0.00  0.00    +0.000 A 
ATOM     24  C   UNL     1      50.579   6.144  16.912  0.00  0.00    +0.000 A 
ATOM     25  S   UNL     1      52.088   5.476  17.346  0.00  0.00    +0.000 S 
ATOM     26  C   UNL     1      52.912   6.473  16.242  0.00  0.00    +0.000 A 
ATOM     27  N   UNL     1      54.267   6.439  16.139  0.00  0.00    +0.000 NA
ATOM     28  C   UNL     1      54.762   7.282  15.290  0.00  0.00    +0.000 A 
ATOM     29  N   UNL     1      54.026   8.135  14.518  0.00  0.00    +0.000 N 
ATOM     30  C   UNL     1      52.656   8.120  14.514  0.00  0.00    +0.000 A 
ATOM     31  O   UNL     1      52.026   8.754  13.678  0.00  0.00    +0.000 OA
ATOM     32  C   UNL     1      52.047   7.263  15.511  0.00  0.00    +0.000 A 
ATOM     33  H   UNL     1      54.468   8.732  13.831  0.00  0.00    +0.000 HD
ENDBRANCH  20  23
ENDBRANCH   1  19
BRANCH   1  34
ATOM     34  C   UNL     1      48.552   9.147  12.299  0.00  0.00    +0.000 C 
BRANCH  34  35
ATOM     35  O   UNL     1      49.759   8.697  11.678  0.00  0.00    +0.000 OA
ATOM     36  H   UNL     1      50.401   9.428  11.688  0.00  0.00    +0.000 HD
ENDBRANCH  34  35
ENDBRANCH   1  34
TORSDOF 9
ENDMDL
MODEL 8
REMARK VINA RESULT:    -6.920      2.588      3.359
REMARK INTER + INTRA:         -11.556
REMARK INTER:                 -10.863
REMARK INTRA:                  -0.694
REMARK UNBOUND:                -1.198
REMARK  Name = 
REMARK  10 active torsions:
REMARK  status: ('A' for Active; 'I' for Inactive)
REMARK    1  A    between atoms: C_1  and  C_2
REMARK    2  A    between atoms: C_2  and  N_3
REMARK    3  A    between atoms: C_2  and  C_27
REMARK    4  A    between atoms: N_3  and  C_4
REMARK    5  A    between atoms: C_4  and  C_5
REMARK    6  A    between atoms: C_8  and  CA_9
REMARK    7  A    between atoms: CA_9  and  C_10
REMARK    8  A    between atoms: CA_9  and  N_12
REMARK    9  A    between atoms: C_10  and  O_11
REMARK   10  A    between atoms: C_13  and  C_15
REMARK                            x       y       z     vdW  Elec       q    Type
REMARK                         _______ _______ _______ _____ _____    ______ ____
ROOT
ATOM      1  CA  UNL     1      47.914   7.758  13.706  0.00  0.00    +0.000 C 
ENDROOT
BRANCH   1   5
ATOM      2  C   UNL     1      44.563   5.922  11.595  0.00  0.00    +0.000 A 
ATOM      3  C   UNL     1      45.379   5.143  12.423  0.00  0.00    +0.000 A 
ATOM      4  C   UNL     1      46.462   5.716  13.097  0.00  0.00    +0.000 A 
ATOM      5  C   UNL     1      46.764   7.083  12.959  0.00  0.00    +0.000 A 
ATOM      6  C   UNL     1      45.948   7.852  12.117  0.00  0.00    +0.000 A 
ATOM      7  C   UNL     1      44.867   7.279  11.442  0.00  0.00    +0.000 A 
BRANCH   2   8
ATOM      8  C   UNL     1      43.482   5.295  10.745  0.00  0.00    +0.000 C 
BRANCH   8   9
ATOM      9  N   UNL     1      43.958   4.730   9.476  0.00  0.00    +0.000 NA
ATOM     10  H   UNL     1      44.501   5.453   9.000  0.00  0.00    +0.000 HD
BRANCH   9  12
ATOM     11  C   UNL     1      44.092   2.374  10.320  0.00  0.00    +0.000 C 
ATOM     12  C   UNL     1      44.852   3.568   9.715  0.00  0.00    +0.000 C 
BRANCH  12  13
ATOM     13  C   UNL     1      45.565   3.030   8.471  0.00  0.00    +0.000 A 
ATOM     14  C   UNL     1      45.977   1.701   8.364  0.00  0.00    +0.000 A 
ATOM     15  C   UNL     1      46.789   1.329   7.293  0.00  0.00    +0.000 A 
ATOM     16  C   UNL     1      47.176   2.285   6.362  0.00  0.00    +0.000 A 
ATOM     17  C   UNL     1      46.711   3.576   6.523  0.00  0.00    +0.000 A 
ATOM     18  N   UNL     1      45.914   3.963   7.543  0.00  0.00    +0.000 NA
ENDBRANCH  12  13
ENDBRANCH   9  12
ENDBRANCH   8   9
ENDBRANCH   2   8
ENDBRANCH   1   5
BRANCH   1  19
ATOM     19  N   UNL     1      48.238   7.066  14.938  0.00  0.00    +0.000 N 
ATOM     20  C   UNL     1      48.839   7.648  16.018  0.00  0.00    +0.000 C 
ATOM     21  O   UNL     1      49.155   8.832  16.045  0.00  0.00    +0.000 OA
ATOM     22  H   UNL     1      48.084   6.063  14.922  0.00  0.00    +0.000 HD
BRANCH  20  23
ATOM     23  C   UNL     1      49.053   6.762  17.170  0.00  0.00    +0.000 A 
ATOM     24  C   UNL     1      49.848   5.631  17.037  0.00  0.00    +0.000 A 
ATOM     25  S   UNL     1      49.970   4.718  18.473  0.00  0.00    +0.000 S 
ATOM     26  C   UNL     1      48.927   5.775  19.302  0.00  0.00    +0.000 A 
ATOM     27  N   UNL     1      48.567   5.539  20.592  0.00  0.00    +0.000 NA
ATOM     28  C   UNL     1      47.734   6.402  21.082  0.00  0.00    +0.000 A 
ATOM     29  N   UNL     1      47.251   7.488  20.411  0.00  0.00    +0.000 N 
ATOM     30  C   UNL     1      47.676   7.818  19.151  0.00  0.00    +0.000 A 
ATOM     31  O   UNL     1      47.376   8.895  18.652  0.00  0.00    +0.000 OA
ATOM     32  C   UNL     1      48.536   6.840  18.516  0.00  0.00    +0.000 A 
ATOM     33  H   UNL     1      46.645   8.157  20.868  0.00  0.00    +0.000 HD
ENDBRANCH  20  23
ENDBRANCH   1  19
BRANCH   1  34
ATOM     34  C   UNL     1      49.203   7.867  12.850  0.00  0.00    +0.000 C 
BRANCH  34  35
ATOM     35  O   UNL     1      49.137   8.890  11.851  0.00  0.00    +0.000 OA
ATOM     36  H   UNL     1      49.434   8.511  11.005  0.00  0.00    +0.000 HD
ENDBRANCH  34  35
ENDBRANCH   1  34
TORSDOF 9
ENDMDL
MODEL 9
REMARK VINA RESULT:    -6.745      3.601      8.198
REMARK INTER + INTRA:         -11.295
REMARK INTER:                  -9.951
REMARK INTRA:                  -1.344
REMARK UNBOUND:                -1.198
REMARK  Name = 
REMARK  10 active torsions:
REMARK  status: ('A' for Active; 'I' for Inactive)
REMARK    1  A    between atoms: C_1  and  C_2
REMARK    2  A    between atoms: C_2  and  N_3
REMARK    3  A    between atoms: C_2  and  C_27
REMARK    4  A    between atoms: N_3  and  C_4
REMARK    5  A    between atoms: C_4  and  C_5
REMARK    6  A    between atoms: C_8  and  CA_9
REMARK    7  A    between atoms: CA_9  and  C_10
REMARK    8  A    between atoms: CA_9  and  N_12
REMARK    9  A    between atoms: C_10  and  O_11
REMARK   10  A    between atoms: C_13  and  C_15
REMARK                            x       y       z     vdW  Elec       q    Type
REMARK                         _______ _______ _______ _____ _____    ______ ____
ROOT
ATOM      1  CA  UNL     1      48.599   8.085  12.277  0.00  0.00    +0.000 C 
ENDROOT
BRANCH   1   5
ATOM      2  C   UNL     1      48.690   7.831  16.634  0.00  0.00    +0.000 A 
ATOM      3  C   UNL     1      49.033   6.717  15.860  0.00  0.00    +0.000 A 
ATOM      4  C   UNL     1      48.999   6.780  14.464  0.00  0.00    +0.000 A 
ATOM      5  C   UNL     1      48.615   7.959  13.799  0.00  0.00    +0.000 A 
ATOM      6  C   UNL     1      48.260   9.066  14.583  0.00  0.00    +0.000 A 
ATOM      7  C   UNL     1      48.293   9.002  15.978  0.00  0.00    +0.000 A 
BRANCH   2   8
ATOM      8  C   UNL     1      48.579   7.739  18.138  0.00  0.00    +0.000 C 
BRANCH   8   9
ATOM      9  N   UNL     1      49.587   6.876  18.769  0.00  0.00    +0.000 NA
ATOM     10  H   UNL     1      50.063   7.429  19.485  0.00  0.00    +0.000 HD
BRANCH   9  12
ATOM     11  C   UNL     1      47.554   6.064  19.989  0.00  0.00    +0.000 C 
ATOM     12  C   UNL     1      48.947   5.714  19.437  0.00  0.00    +0.000 C 
BRANCH  12  13
ATOM     13  C   UNL     1      48.754   4.480  18.549  0.00  0.00    +0.000 A 
ATOM     14  C   UNL     1      49.825   3.699  18.117  0.00  0.00    +0.000 A 
ATOM     15  C   UNL     1      49.597   2.711  17.158  0.00  0.00    +0.000 A 
ATOM     16  C   UNL     1      48.317   2.531  16.650  0.00  0.00    +0.000 A 
ATOM     17  C   UNL     1      47.304   3.330  17.143  0.00  0.00    +0.000 A 
ATOM     18  N   UNL     1      47.491   4.286  18.080  0.00  0.00    +0.000 NA
ENDBRANCH  12  13
ENDBRANCH   9  12
ENDBRANCH   8   9
ENDBRANCH   2   8
ENDBRANCH   1   5
BRANCH   1  19
ATOM     19  N   UNL     1      47.792   7.052  11.657  0.00  0.00    +0.000 N 
ATOM     20  C   UNL     1      46.445   6.910  11.834  0.00  0.00    +0.000 C 
ATOM     21  O   UNL     1      45.784   7.665  12.540  0.00  0.00    +0.000 OA
ATOM     22  H   UNL     1      48.313   6.348  11.145  0.00  0.00    +0.000 HD
BRANCH  20  23
ATOM     23  C   UNL     1      45.827   5.805  11.090  0.00  0.00    +0.000 A 
ATOM     24  C   UNL     1      45.948   5.744   9.708  0.00  0.00    +0.000 A 
ATOM     25  S   UNL     1      45.155   4.401   9.018  0.00  0.00    +0.000 S 
ATOM     26  C   UNL     1      44.584   3.886  10.534  0.00  0.00    +0.000 A 
ATOM     27  N   UNL     1      43.782   2.794  10.650  0.00  0.00    +0.000 NA
ATOM     28  C   UNL     1      43.387   2.544  11.857  0.00  0.00    +0.000 A 
ATOM     29  N   UNL     1      43.742   3.268  12.960  0.00  0.00    +0.000 N 
ATOM     30  C   UNL     1      44.634   4.306  12.897  0.00  0.00    +0.000 A 
ATOM     31  O   UNL     1      45.080   4.809  13.920  0.00  0.00    +0.000 OA
ATOM     32  C   UNL     1      45.037   4.691  11.560  0.00  0.00    +0.000 A 
ATOM     33  H   UNL     1      43.445   2.988  13.885  0.00  0.00    +0.000 HD
ENDBRANCH  20  23
ENDBRANCH   1  19
BRANCH   1  34
ATOM     34  C   UNL     1      48.082   9.466  11.794  0.00  0.00    +0.000 C 
BRANCH  34  35
ATOM     35  O   UNL     1      49.110  10.299  11.249  0.00  0.00    +0.000 OA
ATOM     36  H   UNL     1      49.374   9.936  10.386  0.00  0.00    +0.000 HD
ENDBRANCH  34  35
ENDBRANCH   1  34
TORSDOF 9
ENDMDL
