MODEL 1
REMARK VINA RESULT:    -7.991      0.000      0.000
REMARK INTER + INTRA:         -10.141
REMARK INTER:                  -9.859
REMARK INTRA:                  -0.281
REMARK UNBOUND:                -0.281
REMARK  Name = 
REMARK  5 active torsions:
REMARK  status: ('A' for Active; 'I' for Inactive)
REMARK    1  A    between atoms: N_1  and  S_2
REMARK    2  A    between atoms: S_2  and  C_5
REMARK    3  A    between atoms: N_9  and  C_10
REMARK    4  A    between atoms: C_10  and  C_11
REMARK    5  A    between atoms: C_14  and  O_15
REMARK                            x       y       z     vdW  Elec       q    Type
REMARK                         _______ _______ _______ _____ _____    ______ ____
ROOT
ATOM      1  C   UNL     1      46.820   5.928  12.541  0.00  0.00    +0.000 A 
ATOM      2  C   UNL     1      46.551   6.628  11.399  0.00  0.00    +0.000 A 
ATOM      3  N   UNL     1      45.759   6.142  10.418  0.00  0.00    +0.000 NA
ATOM      4  C   UNL     1      45.242   4.908  10.590  0.00  0.00    +0.000 A 
ATOM      5  N   UNL     1      44.351   4.494   9.620  0.00  0.00    +0.000 N 
ATOM      6  N   UNL     1      45.501   4.135  11.654  0.00  0.00    +0.000 NA
ATOM      7  C   UNL     1      46.299   4.662  12.609  0.00  0.00    +0.000 A 
ATOM      8  H   UNL     1      44.479   5.082   8.801  0.00  0.00    +0.000 HD
ENDROOT
BRANCH   1   9
ATOM      9  S   UNL     1      47.819   6.556  13.807  0.00  0.00    +0.000 S 
ATOM     10  O   UNL     1      47.929   5.581  14.862  0.00  0.00    +0.000 OA
ATOM     11  O   UNL     1      47.455   7.932  14.058  0.00  0.00    +0.000 OA
BRANCH   9  12
ATOM     12  N   UNL     1      49.333   6.624  13.069  0.00  0.00    +0.000 NA
ATOM     13  H   UNL     1      49.590   7.599  12.904  0.00  0.00    +0.000 HD
ATOM     14  H   UNL     1      49.359   6.052  12.220  0.00  0.00    +0.000 HD
ENDBRANCH   9  12
ENDBRANCH   1   9
BRANCH   5  15
ATOM     15  C   UNL     1      44.296   3.070   9.358  0.00  0.00    +0.000 C 
BRANCH  15  16
ATOM     16  C   UNL     1      45.419   2.689   8.410  0.00  0.00    +0.000 A 
ATOM     17  C   UNL     1      45.965   1.395   8.405  0.00  0.00    +0.000 A 
ATOM     18  C   UNL     1      46.985   1.050   7.508  0.00  0.00    +0.000 A 
ATOM     19  C   UNL     1      47.458   2.008   6.612  0.00  0.00    +0.000 A 
ATOM     20  C   UNL     1      46.933   3.293   6.602  0.00  0.00    +0.000 A 
ATOM     21  C   UNL     1      45.916   3.632   7.494  0.00  0.00    +0.000 A 
BRANCH  19  22
ATOM     22  O   UNL     1      48.446   1.720   5.719  0.00  0.00    +0.000 OA
ATOM     23  H   UNL     1      48.508   0.755   5.624  0.00  0.00    +0.000 HD
ENDBRANCH  19  22
ENDBRANCH  15  16
ENDBRANCH   5  15
TORSDOF 5
ENDMDL
MODEL 2
REMARK VINA RESULT:    -7.762      1.448      2.108
REMARK INTER + INTRA:          -9.859
REMARK INTER:                  -9.784
REMARK INTRA:                  -0.074
REMARK UNBOUND:                -0.281
REMARK  Name = 
REMARK  5 active torsions:
REMARK  status: ('A' for Active; 'I' for Inactive)
REMARK    1  A    between atoms: N_1  and  S_2
REMARK    2  A    between atoms: S_2  and  C_5
REMARK    3  A    between atoms: N_9  and  C_10
REMARK    4  A    between atoms: C_10  and  C_11
REMARK    5  A    between atoms: C_14  and  O_15
REMARK                            x       y       z     vdW  Elec       q    Type
REMARK                         _______ _______ _______ _____ _____    ______ ____
ROOT
ATOM      1  C   UNL     1      46.098   6.486  12.256  0.00  0.00    +0.000 A 
ATOM      2  C   UNL     1      45.632   5.472  13.043  0.00  0.00    +0.000 A 
ATOM      3  N   UNL     1      45.221   4.288  12.536  0.00  0.00    +0.000 NA
ATOM      4  C   UNL     1      45.265   4.136  11.197  0.00  0.00    +0.000 A 
ATOM      5  N   UNL     1      44.944   2.878  10.728  0.00  0.00    +0.000 N 
ATOM      6  N   UNL     1      45.656   5.100  10.352  0.00  0.00    +0.000 NA
ATOM      7  C   UNL     1      46.058   6.267  10.903  0.00  0.00    +0.000 A 
ATOM      8  H   UNL     1      44.447   2.383  11.465  0.00  0.00    +0.000 HD
ENDROOT
BRANCH   1   9
ATOM      9  S   UNL     1      46.642   7.996  12.904  0.00  0.00    +0.000 S 
ATOM     10  O   UNL     1      45.504   8.796  13.282  0.00  0.00    +0.000 OA
ATOM     11  O   UNL     1      47.710   8.509  12.077  0.00  0.00    +0.000 OA
BRANCH   9  12
ATOM     12  N   UNL     1      47.382   7.523  14.343  0.00  0.00    +0.000 NA
ATOM     13  H   UNL     1      46.817   7.832  15.137  0.00  0.00    +0.000 HD
ATOM     14  H   UNL     1      48.352   7.850  14.387  0.00  0.00    +0.000 HD
ENDBRANCH   9  12
ENDBRANCH   1   9
BRANCH   5  15
ATOM     15  C   UNL     1      44.333   2.813   9.417  0.00  0.00    +0.000 C 
BRANCH  15  16
ATOM     16  C   UNL     1      45.403   2.537   8.376  0.00  0.00    +0.000 A 
ATOM     17  C   UNL     1      45.775   3.509   7.432  0.00  0.00    +0.000 A 
ATOM     18  C   UNL     1      46.781   3.249   6.493  0.00  0.00    +0.000 A 
ATOM     19  C   UNL     1      47.416   2.008   6.500  0.00  0.00    +0.000 A 
ATOM     20  C   UNL     1      47.062   1.033   7.423  0.00  0.00    +0.000 A 
ATOM     21  C   UNL     1      46.063   1.296   8.359  0.00  0.00    +0.000 A 
BRANCH  19  22
ATOM     22  O   UNL     1      48.402   1.709   5.608  0.00  0.00    +0.000 OA
ATOM     23  H   UNL     1      48.591   0.758   5.658  0.00  0.00    +0.000 HD
ENDBRANCH  19  22
ENDBRANCH  15  16
ENDBRANCH   5  15
TORSDOF 5
ENDMDL
MODEL 3
REMARK VINA RESULT:    -6.713      4.651      7.664
REMARK INTER + INTRA:          -8.565
REMARK INTER:                  -8.281
REMARK INTRA:                  -0.283
REMARK UNBOUND:                -0.281
REMARK  Name = 
REMARK  5 active torsions:
REMARK  status: ('A' for Active; 'I' for Inactive)
REMARK    1  A    between atoms: N_1  and  S_2
REMARK    2  A    between atoms: S_2  and  C_5
REMARK    3  A    between atoms: N_9  and  C_10
REMARK    4  A    between atoms: C_10  and  C_11
REMARK    5  A    between atoms: C_14  and  O_15
REMARK                            x       y       z     vdW  Elec       q    Type
REMARK                         _______ _______ _______ _____ _____    ______ ____
ROOT
ATOM      1  C   UNL     1      45.269   4.521  11.681  0.00  0.00    +0.000 A 
ATOM      2  C   UNL     1      45.635   5.762  12.120  0.00  0.00    +0.000 A 
ATOM      3  N   UNL     1      46.298   5.957  13.281  0.00  0.00    +0.000 NA
ATOM      4  C   UNL     1      46.580   4.869  14.026  0.00  0.00    +0.000 A 
ATOM      5  N   UNL     1      47.353   5.097  15.147  0.00  0.00    +0.000 N 
ATOM      6  N   UNL     1      46.208   3.624  13.695  0.00  0.00    +0.000 NA
ATOM      7  C   UNL     1      45.547   3.477  12.525  0.00  0.00    +0.000 A 
ATOM      8  H   UNL     1      47.317   6.090  15.360  0.00  0.00    +0.000 HD
ENDROOT
BRANCH   1   9
ATOM      9  S   UNL     1      44.437   4.268  10.185  0.00  0.00    +0.000 S 
ATOM     10  O   UNL     1      43.754   2.999  10.223  0.00  0.00    +0.000 OA
ATOM     11  O   UNL     1      45.301   4.651   9.092  0.00  0.00    +0.000 OA
BRANCH   9  12
ATOM     12  N   UNL     1      43.236   5.450  10.238  0.00  0.00    +0.000 NA
ATOM     13  H   UNL     1      42.994   5.735   9.287  0.00  0.00    +0.000 HD
ATOM     14  H   UNL     1      43.513   6.235  10.835  0.00  0.00    +0.000 HD
ENDBRANCH   9  12
ENDBRANCH   1   9
BRANCH   5  15
ATOM     15  C   UNL     1      47.136   4.213  16.274  0.00  0.00    +0.000 C 
BRANCH  15  16
ATOM     16  C   UNL     1      48.474   3.721  16.794  0.00  0.00    +0.000 A 
ATOM     17  C   UNL     1      48.882   2.388  16.619  0.00  0.00    +0.000 A 
ATOM     18  C   UNL     1      50.131   1.954  17.083  0.00  0.00    +0.000 A 
ATOM     19  C   UNL     1      50.973   2.861  17.726  0.00  0.00    +0.000 A 
ATOM     20  C   UNL     1      50.587   4.182  17.911  0.00  0.00    +0.000 A 
ATOM     21  C   UNL     1      49.345   4.612  17.444  0.00  0.00    +0.000 A 
BRANCH  19  22
ATOM     22  O   UNL     1      52.197   2.486  18.193  0.00  0.00    +0.000 OA
ATOM     23  H   UNL     1      52.076   1.959  18.999  0.00  0.00    +0.000 HD
ENDBRANCH  19  22
ENDBRANCH  15  16
ENDBRANCH   5  15
TORSDOF 5
ENDMDL
MODEL 4
REMARK VINA RESULT:    -6.575      1.248      2.133
REMARK INTER + INTRA:          -8.394
REMARK INTER:                  -8.242
REMARK INTRA:                  -0.152
REMARK UNBOUND:                -0.281
REMARK  Name = 
REMARK  5 active torsions:
REMARK  status: ('A' for Active; 'I' for Inactive)
REMARK    1  A    between atoms: N_1  and  S_2
REMARK    2  A    between atoms: S_2  and  C_5
REMARK    3  A    between atoms: N_9  and  C_10
REMARK    4  A    between atoms: C_10  and  C_11
REMARK    5  A    between atoms: C_14  and  O_15
REMARK                            x       y       z     vdW  Elec       q    Type
REMARK                         _______ _______ _______ _____ _____    ______ ____
ROOT
ATOM      1  C   UNL     1      47.348   5.775  13.774  0.00  0.00    +0.000 A 
ATOM      2  C   UNL     1      46.674   4.785  14.430  0.00  0.00    +0.000 A 
ATOM      3  N   UNL     1      45.846   3.925  13.797  0.00  0.00    +0.000 NA
ATOM      4  C   UNL     1      45.681   4.085  12.467  0.00  0.00    +0.000 A 
ATOM      5  N   UNL     1      44.917   3.121  11.841  0.00  0.00    +0.000 N 
ATOM      6  N   UNL     1      46.261   5.064  11.759  0.00  0.00    +0.000 NA
ATOM      7  C   UNL     1      47.080   5.900  12.435  0.00  0.00    +0.000 A 
ATOM      8  H   UNL     1      44.376   2.634  12.551  0.00  0.00    +0.000 HD
ENDROOT
BRANCH   1   9
ATOM      9  S   UNL     1      48.423   6.865  14.580  0.00  0.00    +0.000 S 
ATOM     10  O   UNL     1      48.960   6.229  15.756  0.00  0.00    +0.000 OA
ATOM     11  O   UNL     1      47.825   8.180  14.614  0.00  0.00    +0.000 OA
BRANCH   9  12
ATOM     12  N   UNL     1      49.699   6.985  13.485  0.00  0.00    +0.000 NA
ATOM     13  H   UNL     1      50.579   6.778  13.962  0.00  0.00    +0.000 HD
ATOM     14  H   UNL     1      49.700   7.894  13.014  0.00  0.00    +0.000 HD
ENDBRANCH   9  12
ENDBRANCH   1   9
BRANCH   5  15
ATOM     15  C   UNL     1      44.168   3.546  10.675  0.00  0.00    +0.000 C 
BRANCH  15  16
ATOM     16  C   UNL     1      44.964   3.229   9.422  0.00  0.00    +0.000 A 
ATOM     17  C   UNL     1      45.359   4.240   8.530  0.00  0.00    +0.000 A 
ATOM     18  C   UNL     1      46.114   3.935   7.390  0.00  0.00    +0.000 A 
ATOM     19  C   UNL     1      46.473   2.611   7.144  0.00  0.00    +0.000 A 
ATOM     20  C   UNL     1      46.092   1.597   8.012  0.00  0.00    +0.000 A 
ATOM     21  C   UNL     1      45.343   1.904   9.148  0.00  0.00    +0.000 A 
BRANCH  19  22
ATOM     22  O   UNL     1      47.209   2.266   6.050  0.00  0.00    +0.000 OA
ATOM     23  H   UNL     1      46.984   2.866   5.320  0.00  0.00    +0.000 HD
ENDBRANCH  19  22
ENDBRANCH  15  16
ENDBRANCH   5  15
TORSDOF 5
ENDMDL
MODEL 5
REMARK VINA RESULT:    -6.429      4.101      5.414
REMARK INTER + INTRA:          -8.214
REMARK INTER:                  -7.975
REMARK INTRA:                  -0.239
REMARK UNBOUND:                -0.281
REMARK  Name = 
REMARK  5 active torsions:
REMARK  status: ('A' for Active; 'I' for Inactive)
REMARK    1  A    between atoms: N_1  and  S_2
REMARK    2  A    between atoms: S_2  and  C_5
REMARK    3  A    between atoms: N_9  and  C_10
REMARK    4  A    between atoms: C_10  and  C_11
REMARK    5  A    between atoms: C_14  and  O_15
REMARK                            x       y       z     vdW  Elec       q    Type
REMARK                         _______ _______ _______ _____ _____    ______ ____
ROOT
ATOM      1  C   UNL     1      48.455   4.625  17.800  0.00  0.00    +0.000 A 
ATOM      2  C   UNL     1      47.447   3.714  17.660  0.00  0.00    +0.000 A 
ATOM      3  N   UNL     1      46.754   3.567  16.509  0.00  0.00    +0.000 NA
ATOM      4  C   UNL     1      47.077   4.377  15.480  0.00  0.00    +0.000 A 
ATOM      5  N   UNL     1      46.425   4.121  14.290  0.00  0.00    +0.000 N 
ATOM      6  N   UNL     1      48.014   5.333  15.553  0.00  0.00    +0.000 NA
ATOM      7  C   UNL     1      48.681   5.444  16.723  0.00  0.00    +0.000 A 
ATOM      8  H   UNL     1      45.604   3.557  14.495  0.00  0.00    +0.000 HD
ENDROOT
BRANCH   1   9
ATOM      9  S   UNL     1      49.356   4.802  19.266  0.00  0.00    +0.000 S 
ATOM     10  O   UNL     1      49.092   6.098  19.840  0.00  0.00    +0.000 OA
ATOM     11  O   UNL     1      50.697   4.303  19.061  0.00  0.00    +0.000 OA
BRANCH   9  12
ATOM     12  N   UNL     1      48.614   3.679  20.281  0.00  0.00    +0.000 NA
ATOM     13  H   UNL     1      47.661   3.984  20.490  0.00  0.00    +0.000 HD
ATOM     14  H   UNL     1      49.175   3.509  21.120  0.00  0.00    +0.000 HD
ENDBRANCH   9  12
ENDBRANCH   1   9
BRANCH   5  15
ATOM     15  C   UNL     1      46.195   5.257  13.421  0.00  0.00    +0.000 C 
BRANCH  15  16
ATOM     16  C   UNL     1      45.684   4.768  12.078  0.00  0.00    +0.000 A 
ATOM     17  C   UNL     1      45.038   3.527  11.948  0.00  0.00    +0.000 A 
ATOM     18  C   UNL     1      44.550   3.100  10.706  0.00  0.00    +0.000 A 
ATOM     19  C   UNL     1      44.710   3.921   9.591  0.00  0.00    +0.000 A 
ATOM     20  C   UNL     1      45.347   5.150   9.698  0.00  0.00    +0.000 A 
ATOM     21  C   UNL     1      45.829   5.574  10.936  0.00  0.00    +0.000 A 
BRANCH  19  22
ATOM     22  O   UNL     1      44.250   3.550   8.363  0.00  0.00    +0.000 OA
ATOM     23  H   UNL     1      44.824   2.849   8.014  0.00  0.00    +0.000 HD
ENDBRANCH  19  22
ENDBRANCH  15  16
ENDBRANCH   5  15
TORSDOF 5
ENDMDL
MODEL 6
REMARK VINA RESULT:    -6.326      5.256      6.484
REMARK INTER + INTRA:          -8.087
REMARK INTER:                  -7.771
REMARK INTRA:                  -0.316
REMARK UNBOUND:                -0.281
REMARK  Name = 
REMARK  5 active torsions:
REMARK  status: ('A' for Active; 'I' for Inactive)
REMARK    1  A    between atoms: N_1  and  S_2
REMARK    2  A    between atoms: S_2  and  C_5
REMARK    3  A    between atoms: N_9  and  C_10
REMARK    4  A    between atoms: C_10  and  C_11
REMARK    5  A    between atoms: C_14  and  O_15
REMARK                            x       y       z     vdW  Elec       q    Type
REMARK                         _______ _______ _______ _____ _____    ______ ____
ROOT
ATOM      1  C   UNL     1      48.215   4.717  18.113  0.00  0.00    +0.000 A 
ATOM      2  C   UNL     1      47.179   3.861  17.867  0.00  0.00    +0.000 A 
ATOM      3  N   UNL     1      46.739   3.591  16.618  0.00  0.00    +0.000 NA
ATOM      4  C   UNL     1      47.351   4.219  15.593  0.00  0.00    +0.000 A 
ATOM      5  N   UNL     1      46.947   3.834  14.331  0.00  0.00    +0.000 N 
ATOM      6  N   UNL     1      48.336   5.114  15.752  0.00  0.00    +0.000 NA
ATOM      7  C   UNL     1      48.744   5.353  17.019  0.00  0.00    +0.000 A 
ATOM      8  H   UNL     1      46.052   3.359  14.416  0.00  0.00    +0.000 HD
ENDROOT
BRANCH   1   9
ATOM      9  S   UNL     1      48.793   5.049  19.709  0.00  0.00    +0.000 S 
ATOM     10  O   UNL     1      48.019   6.118  20.289  0.00  0.00    +0.000 OA
ATOM     11  O   UNL     1      50.239   5.057  19.697  0.00  0.00    +0.000 OA
BRANCH   9  12
ATOM     12  N   UNL     1      48.363   3.650  20.545  0.00  0.00    +0.000 NA
ATOM     13  H   UNL     1      49.179   3.282  21.039  0.00  0.00    +0.000 HD
ATOM     14  H   UNL     1      47.927   2.964  19.922  0.00  0.00    +0.000 HD
ENDBRANCH   9  12
ENDBRANCH   1   9
BRANCH   5  15
ATOM     15  C   UNL     1      47.018   4.842  13.294  0.00  0.00    +0.000 C 
BRANCH  15  16
ATOM     16  C   UNL     1      45.615   5.184  12.827  0.00  0.00    +0.000 A 
ATOM     17  C   UNL     1      44.494   4.482  13.300  0.00  0.00    +0.000 A 
ATOM     18  C   UNL     1      43.203   4.825  12.879  0.00  0.00    +0.000 A 
ATOM     19  C   UNL     1      43.035   5.876  11.979  0.00  0.00    +0.000 A 
ATOM     20  C   UNL     1      44.130   6.582  11.498  0.00  0.00    +0.000 A 
ATOM     21  C   UNL     1      45.414   6.241  11.922  0.00  0.00    +0.000 A 
BRANCH  19  22
ATOM     22  O   UNL     1      41.799   6.248  11.543  0.00  0.00    +0.000 OA
ATOM     23  H   UNL     1      41.245   6.453  12.314  0.00  0.00    +0.000 HD
ENDBRANCH  19  22
ENDBRANCH  15  16
ENDBRANCH   5  15
TORSDOF 5
ENDMDL
MODEL 7
REMARK VINA RESULT:    -5.920      4.676      8.315
REMARK INTER + INTRA:          -7.585
REMARK INTER:                  -7.348
REMARK INTRA:                  -0.238
REMARK UNBOUND:                -0.281
REMARK  Name = 
REMARK  5 active torsions:
REMARK  status: ('A' for Active; 'I' for Inactive)
REMARK    1  A    between atoms: N_1  and  S_2
REMARK    2  A    between atoms: S_2  and  C_5
REMARK    3  A    between atoms: N_9  and  C_10
REMARK    4  A    between atoms: C_10  and  C_11
REMARK    5  A    between atoms: C_14  and  O_15
REMARK                            x       y       z     vdW  Elec       q    Type
REMARK                         _______ _______ _______ _____ _____    ______ ____
ROOT
ATOM      1  C   UNL     1      45.218   4.381  11.449  0.00  0.00    +0.000 A 
ATOM      2  C   UNL     1      45.459   3.256  12.186  0.00  0.00    +0.000 A 
ATOM      3  N   UNL     1      46.035   3.298  13.408  0.00  0.00    +0.000 NA
ATOM      4  C   UNL     1      46.393   4.507  13.887  0.00  0.00    +0.000 A 
ATOM      5  N   UNL     1      46.875   4.518  15.180  0.00  0.00    +0.000 N 
ATOM      6  N   UNL     1      46.242   5.651  13.204  0.00  0.00    +0.000 NA
ATOM      7  C   UNL     1      45.663   5.561  11.987  0.00  0.00    +0.000 A 
ATOM      8  H   UNL     1      47.145   3.569  15.426  0.00  0.00    +0.000 HD
ENDROOT
BRANCH   1   9
ATOM      9  S   UNL     1      44.464   4.332   9.892  0.00  0.00    +0.000 S 
ATOM     10  O   UNL     1      43.243   5.098   9.924  0.00  0.00    +0.000 OA
ATOM     11  O   UNL     1      44.518   2.980   9.382  0.00  0.00    +0.000 OA
BRANCH   9  12
ATOM     12  N   UNL     1      45.544   5.209   8.942  0.00  0.00    +0.000 NA
ATOM     13  H   UNL     1      45.067   5.549   8.105  0.00  0.00    +0.000 HD
ATOM     14  H   UNL     1      46.384   4.662   8.732  0.00  0.00    +0.000 HD
ENDBRANCH   9  12
ENDBRANCH   1   9
BRANCH   5  15
ATOM     15  C   UNL     1      47.848   5.543  15.499  0.00  0.00    +0.000 C 
BRANCH  15  16
ATOM     16  C   UNL     1      48.492   5.226  16.836  0.00  0.00    +0.000 A 
ATOM     17  C   UNL     1      47.928   4.289  17.718  0.00  0.00    +0.000 A 
ATOM     18  C   UNL     1      48.548   3.989  18.938  0.00  0.00    +0.000 A 
ATOM     19  C   UNL     1      49.738   4.633  19.276  0.00  0.00    +0.000 A 
ATOM     20  C   UNL     1      50.310   5.564  18.420  0.00  0.00    +0.000 A 
ATOM     21  C   UNL     1      49.693   5.858  17.204  0.00  0.00    +0.000 A 
BRANCH  19  22
ATOM     22  O   UNL     1      50.378   4.373  20.451  0.00  0.00    +0.000 OA
ATOM     23  H   UNL     1      49.803   4.642  21.186  0.00  0.00    +0.000 HD
ENDBRANCH  19  22
ENDBRANCH  15  16
ENDBRANCH   5  15
TORSDOF 5
ENDMDL
MODEL 8
REMARK VINA RESULT:    -5.454      4.504      6.103
REMARK INTER + INTRA:          -7.010
REMARK INTER:                  -6.768
REMARK INTRA:                  -0.242
REMARK UNBOUND:                -0.281
REMARK  Name = 
REMARK  5 active torsions:
REMARK  status: ('A' for Active; 'I' for Inactive)
REMARK    1  A    between atoms: N_1  and  S_2
REMARK    2  A    between atoms: S_2  and  C_5
REMARK    3  A    between atoms: N_9  and  C_10
REMARK    4  A    between atoms: C_10  and  C_11
REMARK    5  A    between atoms: C_14  and  O_15
REMARK                            x       y       z     vdW  Elec       q    Type
REMARK                         _______ _______ _______ _____ _____    ______ ____
ROOT
ATOM      1  C   UNL     1      48.866   4.970  18.419  0.00  0.00    +0.000 A 
ATOM      2  C   UNL     1      47.636   4.377  18.384  0.00  0.00    +0.000 A 
ATOM      3  N   UNL     1      46.936   4.222  17.238  0.00  0.00    +0.000 NA
ATOM      4  C   UNL     1      47.487   4.698  16.103  0.00  0.00    +0.000 A 
ATOM      5  N   UNL     1      46.793   4.422  14.942  0.00  0.00    +0.000 N 
ATOM      6  N   UNL     1      48.662   5.343  16.060  0.00  0.00    +0.000 NA
ATOM      7  C   UNL     1      49.326   5.475  17.230  0.00  0.00    +0.000 A 
ATOM      8  H   UNL     1      45.843   4.165  15.194  0.00  0.00    +0.000 HD
ENDROOT
BRANCH   1   9
ATOM      9  S   UNL     1      49.772   5.153  19.882  0.00  0.00    +0.000 S 
ATOM     10  O   UNL     1      51.147   4.793  19.644  0.00  0.00    +0.000 OA
ATOM     11  O   UNL     1      49.008   4.612  20.983  0.00  0.00    +0.000 OA
BRANCH   9  12
ATOM     12  N   UNL     1      49.756   6.823  20.108  0.00  0.00    +0.000 NA
ATOM     13  H   UNL     1      49.341   7.276  19.290  0.00  0.00    +0.000 HD
ATOM     14  H   UNL     1      50.691   7.177  20.332  0.00  0.00    +0.000 HD
ENDBRANCH   9  12
ENDBRANCH   1   9
BRANCH   5  15
ATOM     15  C   UNL     1      46.910   5.393  13.873  0.00  0.00    +0.000 C 
BRANCH  15  16
ATOM     16  C   UNL     1      46.060   4.951  12.696  0.00  0.00    +0.000 A 
ATOM     17  C   UNL     1      45.835   5.796  11.596  0.00  0.00    +0.000 A 
ATOM     18  C   UNL     1      45.069   5.365  10.506  0.00  0.00    +0.000 A 
ATOM     19  C   UNL     1      44.525   4.081  10.519  0.00  0.00    +0.000 A 
ATOM     20  C   UNL     1      44.733   3.231  11.596  0.00  0.00    +0.000 A 
ATOM     21  C   UNL     1      45.500   3.662  12.679  0.00  0.00    +0.000 A 
BRANCH  19  22
ATOM     22  O   UNL     1      43.775   3.617   9.480  0.00  0.00    +0.000 OA
ATOM     23  H   UNL     1      43.733   2.648   9.534  0.00  0.00    +0.000 HD
ENDBRANCH  19  22
ENDBRANCH  15  16
ENDBRANCH   5  15
TORSDOF 5
ENDMDL
MODEL 9
REMARK VINA RESULT:    -5.221      4.662      6.819
REMARK INTER + INTRA:          -6.723
REMARK INTER:                  -6.460
REMARK INTRA:                  -0.262
REMARK UNBOUND:                -0.281
REMARK  Name = 
REMARK  5 active torsions:
REMARK  status: ('A' for Active; 'I' for Inactive)
REMARK    1  A    between atoms: N_1  and  S_2
REMARK    2  A    between atoms: S_2  and  C_5
REMARK    3  A    between atoms: N_9  and  C_10
REMARK    4  A    between atoms: C_10  and  C_11
REMARK    5  A    between atoms: C_14  and  O_15
REMARK                            x       y       z     vdW  Elec       q    Type
REMARK                         _______ _______ _______ _____ _____    ______ ____
ROOT
ATOM      1  C   UNL     1      44.778   4.642  12.382  0.00  0.00    +0.000 A 
ATOM      2  C   UNL     1      46.003   4.359  12.917  0.00  0.00    +0.000 A 
ATOM      3  N   UNL     1      46.835   5.319  13.377  0.00  0.00    +0.000 NA
ATOM      4  C   UNL     1      46.425   6.600  13.274  0.00  0.00    +0.000 A 
ATOM      5  N   UNL     1      47.252   7.540  13.854  0.00  0.00    +0.000 N 
ATOM      6  N   UNL     1      45.264   6.966  12.712  0.00  0.00    +0.000 NA
ATOM      7  C   UNL     1      44.464   5.972  12.266  0.00  0.00    +0.000 A 
ATOM      8  H   UNL     1      48.166   7.116  13.993  0.00  0.00    +0.000 HD
ENDROOT
BRANCH   1   9
ATOM      9  S   UNL     1      43.703   3.412  11.810  0.00  0.00    +0.000 S 
ATOM     10  O   UNL     1      42.653   4.017  11.030  0.00  0.00    +0.000 OA
ATOM     11  O   UNL     1      43.435   2.482  12.883  0.00  0.00    +0.000 OA
BRANCH   9  12
ATOM     12  N   UNL     1      44.672   2.567  10.720  0.00  0.00    +0.000 NA
ATOM     13  H   UNL     1      44.900   1.648  11.106  0.00  0.00    +0.000 HD
ATOM     14  H   UNL     1      45.500   3.111  10.460  0.00  0.00    +0.000 HD
ENDBRANCH   9  12
ENDBRANCH   1   9
BRANCH   5  15
ATOM     15  C   UNL     1      47.266   8.854  13.244  0.00  0.00    +0.000 C 
BRANCH  15  16
ATOM     16  C   UNL     1      48.551   9.031  12.457  0.00  0.00    +0.000 A 
ATOM     17  C   UNL     1      48.848  10.237  11.801  0.00  0.00    +0.000 A 
ATOM     18  C   UNL     1      50.049  10.394  11.098  0.00  0.00    +0.000 A 
ATOM     19  C   UNL     1      50.956   9.336  11.052  0.00  0.00    +0.000 A 
ATOM     20  C   UNL     1      50.681   8.135  11.691  0.00  0.00    +0.000 A 
ATOM     21  C   UNL     1      49.486   7.983  12.393  0.00  0.00    +0.000 A 
BRANCH  19  22
ATOM     22  O   UNL     1      52.139   9.442  10.383  0.00  0.00    +0.000 OA
ATOM     23  H   UNL     1      52.707   8.695  10.633  0.00  0.00    +0.000 HD
ENDBRANCH  19  22
ENDBRANCH  15  16
ENDBRANCH   5  15
TORSDOF 5
ENDMDL
