MODEL 1
REMARK VINA RESULT:    -9.010      0.000      0.000
REMARK INTER + INTRA:         -10.896
REMARK INTER:                 -11.117
REMARK INTRA:                   0.221
REMARK UNBOUND:                 0.221
REMARK  Name = 
REMARK  4 active torsions:
REMARK  status: ('A' for Active; 'I' for Inactive)
REMARK    1  A    between atoms: C_2  and  C_4
REMARK    2  A    between atoms: N_8  and  C_9
REMARK    3  A    between atoms: C_9  and  C_10
REMARK    4  A    between atoms: C_14  and  C_15
REMARK                            x       y       z     vdW  Elec       q    Type
REMARK                         _______ _______ _______ _____ _____    ______ ____
ROOT
ATOM      1  C   UNL     1      43.915   4.755  11.594  0.00  0.00    +0.000 C 
ATOM      2  C   UNL     1      42.587   5.148  12.222  0.00  0.00    +0.000 C 
ATOM      3  C   UNL     1      43.055   5.873  11.005  0.00  0.00    +0.000 C 
ENDROOT
BRANCH   1   8
ATOM      4  C   UNL     1      46.446   2.995   7.539  0.00  0.00    +0.000 A 
ATOM      5  C   UNL     1      46.056   1.968   8.363  0.00  0.00    +0.000 A 
ATOM      6  N   UNL     1      45.281   2.140   9.456  0.00  0.00    +0.000 NA
ATOM      7  C   UNL     1      44.901   3.397   9.746  0.00  0.00    +0.000 A 
ATOM      8  N   UNL     1      44.019   3.519  10.817  0.00  0.00    +0.000 N 
ATOM      9  N   UNL     1      45.306   4.472   9.048  0.00  0.00    +0.000 NA
ATOM     10  C   UNL     1      46.072   4.250   7.954  0.00  0.00    +0.000 A 
ATOM     11  H   UNL     1      44.008   2.627  11.297  0.00  0.00    +0.000 HD
BRANCH   4  13
ATOM     12  N   UNL     1      48.508   2.446   6.397  0.00  0.00    +0.000 N 
ATOM     13  C   UNL     1      47.184   2.794   6.291  0.00  0.00    +0.000 C 
ATOM     14  O   UNL     1      46.632   2.886   5.205  0.00  0.00    +0.000 OA
ATOM     15  H   UNL     1      48.967   2.181   5.534  0.00  0.00    +0.000 HD
ATOM     16  H   UNL     1      48.919   2.104   7.254  0.00  0.00    +0.000 HD
ENDBRANCH   4  13
ENDBRANCH   1   8
BRANCH   1  17
ATOM     17  C   UNL     1      45.190   5.192  12.299  0.00  0.00    +0.000 A 
ATOM     18  C   UNL     1      46.117   6.045  11.707  0.00  0.00    +0.000 A 
ATOM     19  N   UNL     1      47.340   6.339  12.211  0.00  0.00    +0.000 NA
ATOM     20  C   UNL     1      47.667   5.735  13.377  0.00  0.00    +0.000 A 
ATOM     21  C   UNL     1      46.830   4.897  14.112  0.00  0.00    +0.000 A 
ATOM     22  C   UNL     1      45.560   4.673  13.552  0.00  0.00    +0.000 A 
BRANCH  21  23
ATOM     23  C   UNL     1      47.261   4.205  15.341  0.00  0.00    +0.000 A 
ATOM     24  C   UNL     1      47.143   4.756  16.617  0.00  0.00    +0.000 A 
ATOM     25  C   UNL     1      47.646   4.056  17.714  0.00  0.00    +0.000 A 
ATOM     26  C   UNL     1      48.249   2.822  17.518  0.00  0.00    +0.000 A 
ATOM     27  C   UNL     1      48.315   2.331  16.229  0.00  0.00    +0.000 A 
ATOM     28  N   UNL     1      47.838   2.988  15.151  0.00  0.00    +0.000 NA
ENDBRANCH  21  23
ENDBRANCH   1  17
TORSDOF 4
ENDMDL
MODEL 2
REMARK VINA RESULT:    -8.754      2.097      3.963
REMARK INTER + INTRA:         -10.580
REMARK INTER:                 -10.660
REMARK INTRA:                   0.079
REMARK UNBOUND:                 0.221
REMARK  Name = 
REMARK  4 active torsions:
REMARK  status: ('A' for Active; 'I' for Inactive)
REMARK    1  A    between atoms: C_2  and  C_4
REMARK    2  A    between atoms: N_8  and  C_9
REMARK    3  A    between atoms: C_9  and  C_10
REMARK    4  A    between atoms: C_14  and  C_15
REMARK                            x       y       z     vdW  Elec       q    Type
REMARK                         _______ _______ _______ _____ _____    ______ ____
ROOT
ATOM      1  C   UNL     1      43.909   4.709  11.516  0.00  0.00    +0.000 C 
ATOM      2  C   UNL     1      42.655   5.154  12.251  0.00  0.00    +0.000 C 
ATOM      3  C   UNL     1      43.053   5.867  11.003  0.00  0.00    +0.000 C 
ENDROOT
BRANCH   1   8
ATOM      4  C   UNL     1      46.415   2.663   7.580  0.00  0.00    +0.000 A 
ATOM      5  C   UNL     1      45.849   1.690   8.368  0.00  0.00    +0.000 A 
ATOM      6  N   UNL     1      45.043   1.953   9.419  0.00  0.00    +0.000 NA
ATOM      7  C   UNL     1      44.813   3.247   9.705  0.00  0.00    +0.000 A 
ATOM      8  N   UNL     1      43.896   3.475  10.728  0.00  0.00    +0.000 N 
ATOM      9  N   UNL     1      45.393   4.265   9.046  0.00  0.00    +0.000 NA
ATOM     10  C   UNL     1      46.184   3.953   7.992  0.00  0.00    +0.000 A 
ATOM     11  H   UNL     1      43.742   2.589  11.194  0.00  0.00    +0.000 HD
BRANCH   4  13
ATOM     12  N   UNL     1      47.108   3.285   5.347  0.00  0.00    +0.000 N 
ATOM     13  C   UNL     1      47.190   2.376   6.372  0.00  0.00    +0.000 C 
ATOM     14  O   UNL     1      47.913   1.395   6.301  0.00  0.00    +0.000 OA
ATOM     15  H   UNL     1      47.748   3.144   4.576  0.00  0.00    +0.000 HD
ATOM     16  H   UNL     1      46.743   4.220   5.470  0.00  0.00    +0.000 HD
ENDBRANCH   4  13
ENDBRANCH   1   8
BRANCH   1  17
ATOM     17  C   UNL     1      45.255   5.085  12.116  0.00  0.00    +0.000 A 
ATOM     18  C   UNL     1      45.828   4.377  13.169  0.00  0.00    +0.000 A 
ATOM     19  N   UNL     1      46.935   4.754  13.852  0.00  0.00    +0.000 NA
ATOM     20  C   UNL     1      47.505   5.920  13.469  0.00  0.00    +0.000 A 
ATOM     21  C   UNL     1      47.079   6.714  12.406  0.00  0.00    +0.000 A 
ATOM     22  C   UNL     1      45.951   6.238  11.713  0.00  0.00    +0.000 A 
BRANCH  21  23
ATOM     23  C   UNL     1      47.691   8.014  12.075  0.00  0.00    +0.000 A 
ATOM     24  C   UNL     1      49.024   8.163  11.692  0.00  0.00    +0.000 A 
ATOM     25  C   UNL     1      49.533   9.443  11.470  0.00  0.00    +0.000 A 
ATOM     26  C   UNL     1      48.704  10.544  11.628  0.00  0.00    +0.000 A 
ATOM     27  C   UNL     1      47.392  10.320  11.992  0.00  0.00    +0.000 A 
ATOM     28  N   UNL     1      46.874   9.093  12.214  0.00  0.00    +0.000 NA
ENDBRANCH  21  23
ENDBRANCH   1  17
TORSDOF 4
ENDMDL
MODEL 3
REMARK VINA RESULT:    -8.261      3.275      7.616
REMARK INTER + INTRA:          -9.972
REMARK INTER:                  -9.541
REMARK INTRA:                  -0.430
REMARK UNBOUND:                 0.221
REMARK  Name = 
REMARK  4 active torsions:
REMARK  status: ('A' for Active; 'I' for Inactive)
REMARK    1  A    between atoms: C_2  and  C_4
REMARK    2  A    between atoms: N_8  and  C_9
REMARK    3  A    between atoms: C_9  and  C_10
REMARK    4  A    between atoms: C_14  and  C_15
REMARK                            x       y       z     vdW  Elec       q    Type
REMARK                         _______ _______ _______ _____ _____    ______ ____
ROOT
ATOM      1  C   UNL     1      48.602   7.835  12.779  0.00  0.00    +0.000 C 
ATOM      2  C   UNL     1      49.796   7.346  11.975  0.00  0.00    +0.000 C 
ATOM      3  C   UNL     1      49.519   8.809  12.040  0.00  0.00    +0.000 C 
ENDROOT
BRANCH   1   8
ATOM      4  C   UNL     1      47.897   4.611  16.659  0.00  0.00    +0.000 A 
ATOM      5  C   UNL     1      48.728   5.644  17.019  0.00  0.00    +0.000 A 
ATOM      6  N   UNL     1      49.002   6.696  16.217  0.00  0.00    +0.000 NA
ATOM      7  C   UNL     1      48.438   6.699  14.996  0.00  0.00    +0.000 A 
ATOM      8  N   UNL     1      48.661   7.848  14.241  0.00  0.00    +0.000 N 
ATOM      9  N   UNL     1      47.684   5.690  14.527  0.00  0.00    +0.000 NA
ATOM     10  C   UNL     1      47.426   4.663  15.369  0.00  0.00    +0.000 A 
ATOM     11  H   UNL     1      49.394   8.373  14.705  0.00  0.00    +0.000 HD
BRANCH   4  13
ATOM     12  N   UNL     1      48.322   3.300  18.649  0.00  0.00    +0.000 N 
ATOM     13  C   UNL     1      47.506   3.534  17.570  0.00  0.00    +0.000 C 
ATOM     14  O   UNL     1      46.473   2.904  17.401  0.00  0.00    +0.000 OA
ATOM     15  H   UNL     1      47.971   2.647  19.339  0.00  0.00    +0.000 HD
ATOM     16  H   UNL     1      49.020   3.961  18.963  0.00  0.00    +0.000 HD
ENDBRANCH   4  13
ENDBRANCH   1   8
BRANCH   1  17
ATOM     17  C   UNL     1      47.217   7.636  12.183  0.00  0.00    +0.000 A 
ATOM     18  C   UNL     1      46.138   8.454  12.510  0.00  0.00    +0.000 A 
ATOM     19  N   UNL     1      44.853   8.232  12.145  0.00  0.00    +0.000 NA
ATOM     20  C   UNL     1      44.622   7.116  11.416  0.00  0.00    +0.000 A 
ATOM     21  C   UNL     1      45.601   6.228  10.971  0.00  0.00    +0.000 A 
ATOM     22  C   UNL     1      46.917   6.546  11.349  0.00  0.00    +0.000 A 
BRANCH  21  23
ATOM     23  C   UNL     1      45.288   4.986  10.241  0.00  0.00    +0.000 A 
ATOM     24  C   UNL     1      45.629   4.771   8.905  0.00  0.00    +0.000 A 
ATOM     25  C   UNL     1      45.227   3.592   8.277  0.00  0.00    +0.000 A 
ATOM     26  C   UNL     1      44.501   2.651   8.993  0.00  0.00    +0.000 A 
ATOM     27  C   UNL     1      44.214   2.924  10.316  0.00  0.00    +0.000 A 
ATOM     28  N   UNL     1      44.590   4.057  10.947  0.00  0.00    +0.000 NA
ENDBRANCH  21  23
ENDBRANCH   1  17
TORSDOF 4
ENDMDL
MODEL 4
REMARK VINA RESULT:    -7.624      3.565      7.092
REMARK INTER + INTRA:          -9.186
REMARK INTER:                  -9.212
REMARK INTRA:                   0.026
REMARK UNBOUND:                 0.221
REMARK  Name = 
REMARK  4 active torsions:
REMARK  status: ('A' for Active; 'I' for Inactive)
REMARK    1  A    between atoms: C_2  and  C_4
REMARK    2  A    between atoms: N_8  and  C_9
REMARK    3  A    between atoms: C_9  and  C_10
REMARK    4  A    between atoms: C_14  and  C_15
REMARK                            x       y       z     vdW  Elec       q    Type
REMARK                         _______ _______ _______ _____ _____    ______ ____
ROOT
ATOM      1  C   UNL     1      45.149   6.124  12.005  0.00  0.00    +0.000 C 
ATOM      2  C   UNL     1      44.911   7.492  11.385  0.00  0.00    +0.000 C 
ATOM      3  C   UNL     1      44.035   7.043  12.504  0.00  0.00    +0.000 C 
ENDROOT
BRANCH   1   8
ATOM      4  C   UNL     1      49.917   7.822  12.582  0.00  0.00    +0.000 A 
ATOM      5  C   UNL     1      49.413   7.349  13.768  0.00  0.00    +0.000 A 
ATOM      6  N   UNL     1      48.209   6.746  13.882  0.00  0.00    +0.000 NA
ATOM      7  C   UNL     1      47.472   6.634  12.762  0.00  0.00    +0.000 A 
ATOM      8  N   UNL     1      46.288   5.916  12.901  0.00  0.00    +0.000 N 
ATOM      9  N   UNL     1      47.846   7.145  11.577  0.00  0.00    +0.000 NA
ATOM     10  C   UNL     1      49.065   7.729  11.508  0.00  0.00    +0.000 A 
ATOM     11  H   UNL     1      46.124   5.798  13.894  0.00  0.00    +0.000 HD
BRANCH   4  13
ATOM     12  N   UNL     1      52.104   7.737  11.547  0.00  0.00    +0.000 N 
ATOM     13  C   UNL     1      51.269   8.365  12.437  0.00  0.00    +0.000 C 
ATOM     14  O   UNL     1      51.620   9.363  13.048  0.00  0.00    +0.000 OA
ATOM     15  H   UNL     1      52.983   8.201  11.359  0.00  0.00    +0.000 HD
ATOM     16  H   UNL     1      51.770   7.093  10.843  0.00  0.00    +0.000 HD
ENDBRANCH   4  13
ENDBRANCH   1   8
BRANCH   1  17
ATOM     17  C   UNL     1      44.706   4.901  11.216  0.00  0.00    +0.000 A 
ATOM     18  C   UNL     1      43.749   4.010  11.694  0.00  0.00    +0.000 A 
ATOM     19  N   UNL     1      43.433   2.824  11.121  0.00  0.00    +0.000 NA
ATOM     20  C   UNL     1      44.123   2.497  10.003  0.00  0.00    +0.000 A 
ATOM     21  C   UNL     1      45.073   3.303   9.379  0.00  0.00    +0.000 A 
ATOM     22  C   UNL     1      45.318   4.539  10.004  0.00  0.00    +0.000 A 
BRANCH  21  23
ATOM     23  C   UNL     1      45.851   2.869   8.204  0.00  0.00    +0.000 A 
ATOM     24  C   UNL     1      46.388   1.589   8.066  0.00  0.00    +0.000 A 
ATOM     25  C   UNL     1      47.172   1.293   6.950  0.00  0.00    +0.000 A 
ATOM     26  C   UNL     1      47.397   2.273   5.995  0.00  0.00    +0.000 A 
ATOM     27  C   UNL     1      46.819   3.512   6.189  0.00  0.00    +0.000 A 
ATOM     28  N   UNL     1      46.058   3.825   7.259  0.00  0.00    +0.000 NA
ENDBRANCH  21  23
ENDBRANCH   1  17
TORSDOF 4
ENDMDL
MODEL 5
REMARK VINA RESULT:    -6.977      4.273      7.491
REMARK INTER + INTRA:          -8.388
REMARK INTER:                  -8.028
REMARK INTRA:                  -0.360
REMARK UNBOUND:                 0.221
REMARK  Name = 
REMARK  4 active torsions:
REMARK  status: ('A' for Active; 'I' for Inactive)
REMARK    1  A    between atoms: C_2  and  C_4
REMARK    2  A    between atoms: N_8  and  C_9
REMARK    3  A    between atoms: C_9  and  C_10
REMARK    4  A    between atoms: C_14  and  C_15
REMARK                            x       y       z     vdW  Elec       q    Type
REMARK                         _______ _______ _______ _____ _____    ______ ____
ROOT
ATOM      1  C   UNL     1      45.981   4.276  13.039  0.00  0.00    +0.000 C 
ATOM      2  C   UNL     1      44.560   3.792  13.278  0.00  0.00    +0.000 C 
ATOM      3  C   UNL     1      45.174   3.594  11.934  0.00  0.00    +0.000 C 
ENDROOT
BRANCH   1   8
ATOM      4  C   UNL     1      48.352   3.691  17.510  0.00  0.00    +0.000 A 
ATOM      5  C   UNL     1      48.547   2.600  16.699  0.00  0.00    +0.000 A 
ATOM      6  N   UNL     1      48.117   2.532  15.421  0.00  0.00    +0.000 NA
ATOM      7  C   UNL     1      47.444   3.594  14.943  0.00  0.00    +0.000 A 
ATOM      8  N   UNL     1      47.111   3.528  13.593  0.00  0.00    +0.000 N 
ATOM      9  N   UNL     1      47.132   4.667  15.689  0.00  0.00    +0.000 NA
ATOM     10  C   UNL     1      47.593   4.697  16.961  0.00  0.00    +0.000 A 
ATOM     11  H   UNL     1      47.271   2.573  13.292  0.00  0.00    +0.000 HD
BRANCH   4  13
ATOM     12  N   UNL     1      48.277   3.147  19.867  0.00  0.00    +0.000 N 
ATOM     13  C   UNL     1      48.921   3.813  18.853  0.00  0.00    +0.000 C 
ATOM     14  O   UNL     1      49.949   4.441  19.052  0.00  0.00    +0.000 OA
ATOM     15  H   UNL     1      48.754   3.131  20.760  0.00  0.00    +0.000 HD
ATOM     16  H   UNL     1      47.599   2.418  19.700  0.00  0.00    +0.000 HD
ENDBRANCH   4  13
ENDBRANCH   1   8
BRANCH   1  17
ATOM     17  C   UNL     1      46.204   5.772  12.881  0.00  0.00    +0.000 A 
ATOM     18  C   UNL     1      45.160   6.692  12.923  0.00  0.00    +0.000 A 
ATOM     19  N   UNL     1      45.268   8.009  12.628  0.00  0.00    +0.000 NA
ATOM     20  C   UNL     1      46.497   8.439  12.254  0.00  0.00    +0.000 A 
ATOM     21  C   UNL     1      47.646   7.652  12.210  0.00  0.00    +0.000 A 
ATOM     22  C   UNL     1      47.468   6.305  12.573  0.00  0.00    +0.000 A 
BRANCH  21  23
ATOM     23  C   UNL     1      48.946   8.152  11.725  0.00  0.00    +0.000 A 
ATOM     24  C   UNL     1      50.025   7.322  11.421  0.00  0.00    +0.000 A 
ATOM     25  C   UNL     1      51.240   7.893  11.038  0.00  0.00    +0.000 A 
ATOM     26  C   UNL     1      51.351   9.273  10.961  0.00  0.00    +0.000 A 
ATOM     27  C   UNL     1      50.236  10.031  11.260  0.00  0.00    +0.000 A 
ATOM     28  N   UNL     1      49.050   9.505  11.633  0.00  0.00    +0.000 NA
ENDBRANCH  21  23
ENDBRANCH   1  17
TORSDOF 4
ENDMDL
MODEL 6
REMARK VINA RESULT:    -6.945      2.711      4.143
REMARK INTER + INTRA:          -8.349
REMARK INTER:                  -8.009
REMARK INTRA:                  -0.340
REMARK UNBOUND:                 0.221
REMARK  Name = 
REMARK  4 active torsions:
REMARK  status: ('A' for Active; 'I' for Inactive)
REMARK    1  A    between atoms: C_2  and  C_4
REMARK    2  A    between atoms: N_8  and  C_9
REMARK    3  A    between atoms: C_9  and  C_10
REMARK    4  A    between atoms: C_14  and  C_15
REMARK                            x       y       z     vdW  Elec       q    Type
REMARK                         _______ _______ _______ _____ _____    ______ ____
ROOT
ATOM      1  C   UNL     1      47.247   8.170  12.728  0.00  0.00    +0.000 C 
ATOM      2  C   UNL     1      45.957   8.834  13.184  0.00  0.00    +0.000 C 
ATOM      3  C   UNL     1      46.978   9.651  12.468  0.00  0.00    +0.000 C 
ENDROOT
BRANCH   1   8
ATOM      4  C   UNL     1      44.687   4.099  11.046  0.00  0.00    +0.000 A 
ATOM      5  C   UNL     1      45.249   4.796  10.005  0.00  0.00    +0.000 A 
ATOM      6  N   UNL     1      46.066   5.858  10.171  0.00  0.00    +0.000 NA
ATOM      7  C   UNL     1      46.313   6.251  11.434  0.00  0.00    +0.000 A 
ATOM      8  N   UNL     1      47.240   7.280  11.566  0.00  0.00    +0.000 N 
ATOM      9  N   UNL     1      45.738   5.685  12.509  0.00  0.00    +0.000 NA
ATOM     10  C   UNL     1      44.935   4.616  12.295  0.00  0.00    +0.000 A 
ATOM     11  H   UNL     1      47.389   7.669  10.641  0.00  0.00    +0.000 HD
BRANCH   4  13
ATOM     12  N   UNL     1      44.278   2.029   9.861  0.00  0.00    +0.000 N 
ATOM     13  C   UNL     1      43.899   2.878  10.871  0.00  0.00    +0.000 C 
ATOM     14  O   UNL     1      42.974   2.606  11.621  0.00  0.00    +0.000 OA
ATOM     15  H   UNL     1      43.811   1.131   9.836  0.00  0.00    +0.000 HD
ATOM     16  H   UNL     1      45.179   2.086   9.405  0.00  0.00    +0.000 HD
ENDBRANCH   4  13
ENDBRANCH   1   8
BRANCH   1  17
ATOM     17  C   UNL     1      48.294   7.854  13.786  0.00  0.00    +0.000 A 
ATOM     18  C   UNL     1      49.589   8.362  13.731  0.00  0.00    +0.000 A 
ATOM     19  N   UNL     1      50.607   7.992  14.543  0.00  0.00    +0.000 NA
ATOM     20  C   UNL     1      50.322   7.043  15.465  0.00  0.00    +0.000 A 
ATOM     21  C   UNL     1      49.066   6.475  15.674  0.00  0.00    +0.000 A 
ATOM     22  C   UNL     1      48.046   6.940  14.825  0.00  0.00    +0.000 A 
BRANCH  21  23
ATOM     23  C   UNL     1      48.824   5.391  16.644  0.00  0.00    +0.000 A 
ATOM     24  C   UNL     1      49.273   5.424  17.964  0.00  0.00    +0.000 A 
ATOM     25  C   UNL     1      49.059   4.318  18.788  0.00  0.00    +0.000 A 
ATOM     26  C   UNL     1      48.398   3.208  18.281  0.00  0.00    +0.000 A 
ATOM     27  C   UNL     1      47.968   3.253  16.970  0.00  0.00    +0.000 A 
ATOM     28  N   UNL     1      48.163   4.309  16.152  0.00  0.00    +0.000 NA
ENDBRANCH  21  23
ENDBRANCH   1  17
TORSDOF 4
ENDMDL
MODEL 7
REMARK VINA RESULT:    -6.400      2.751      4.137
REMARK INTER + INTRA:          -7.676
REMARK INTER:                  -7.125
REMARK INTRA:                  -0.551
REMARK UNBOUND:                 0.221
REMARK  Name = 
REMARK  4 active torsions:
REMARK  status: ('A' for Active; 'I' for Inactive)
REMARK    1  A    between atoms: C_2  and  C_4
REMARK    2  A    between atoms: N_8  and  C_9
REMARK    3  A    between atoms: C_9  and  C_10
REMARK    4  A    between atoms: C_14  and  C_15
REMARK                            x       y       z     vdW  Elec       q    Type
REMARK                         _______ _______ _______ _____ _____    ______ ____
ROOT
ATOM      1  C   UNL     1      44.003   4.735  11.929  0.00  0.00    +0.000 C 
ATOM      2  C   UNL     1      44.916   4.088  12.958  0.00  0.00    +0.000 C 
ATOM      3  C   UNL     1      43.458   4.194  13.250  0.00  0.00    +0.000 C 
ENDROOT
BRANCH   1   8
ATOM      4  C   UNL     1      46.167   3.292   7.548  0.00  0.00    +0.000 A 
ATOM      5  C   UNL     1      45.109   2.478   7.870  0.00  0.00    +0.000 A 
ATOM      6  N   UNL     1      44.293   2.694   8.925  0.00  0.00    +0.000 NA
ATOM      7  C   UNL     1      44.563   3.759   9.701  0.00  0.00    +0.000 A 
ATOM      8  N   UNL     1      43.639   4.006  10.713  0.00  0.00    +0.000 N 
ATOM      9  N   UNL     1      45.627   4.558   9.514  0.00  0.00    +0.000 NA
ATOM     10  C   UNL     1      46.410   4.311   8.438  0.00  0.00    +0.000 A 
ATOM     11  H   UNL     1      43.046   3.187  10.782  0.00  0.00    +0.000 HD
BRANCH   4  13
ATOM     12  N   UNL     1      48.331   2.983   6.510  0.00  0.00    +0.000 N 
ATOM     13  C   UNL     1      46.976   3.127   6.340  0.00  0.00    +0.000 C 
ATOM     14  O   UNL     1      46.461   3.072   5.234  0.00  0.00    +0.000 OA
ATOM     15  H   UNL     1      48.858   2.737   5.682  0.00  0.00    +0.000 HD
ATOM     16  H   UNL     1      48.751   2.758   7.400  0.00  0.00    +0.000 HD
ENDBRANCH   4  13
ENDBRANCH   1   8
BRANCH   1  17
ATOM     17  C   UNL     1      44.049   6.249  11.792  0.00  0.00    +0.000 A 
ATOM     18  C   UNL     1      43.135   6.958  11.016  0.00  0.00    +0.000 A 
ATOM     19  N   UNL     1      43.218   8.277  10.723  0.00  0.00    +0.000 NA
ATOM     20  C   UNL     1      44.289   8.935  11.226  0.00  0.00    +0.000 A 
ATOM     21  C   UNL     1      45.259   8.377  12.056  0.00  0.00    +0.000 A 
ATOM     22  C   UNL     1      45.084   7.015  12.356  0.00  0.00    +0.000 A 
BRANCH  21  23
ATOM     23  C   UNL     1      46.447   9.119  12.519  0.00  0.00    +0.000 A 
ATOM     24  C   UNL     1      46.944  10.254  11.877  0.00  0.00    +0.000 A 
ATOM     25  C   UNL     1      48.118  10.846  12.346  0.00  0.00    +0.000 A 
ATOM     26  C   UNL     1      48.765  10.301  13.445  0.00  0.00    +0.000 A 
ATOM     27  C   UNL     1      48.205   9.187  14.040  0.00  0.00    +0.000 A 
ATOM     28  N   UNL     1      47.073   8.594  13.606  0.00  0.00    +0.000 NA
ENDBRANCH  21  23
ENDBRANCH   1  17
TORSDOF 4
ENDMDL
MODEL 8
REMARK VINA RESULT:    -6.330      1.929      2.497
REMARK INTER + INTRA:          -7.589
REMARK INTER:                  -7.887
REMARK INTRA:                   0.298
REMARK UNBOUND:                 0.221
REMARK  Name = 
REMARK  4 active torsions:
REMARK  status: ('A' for Active; 'I' for Inactive)
REMARK    1  A    between atoms: C_2  and  C_4
REMARK    2  A    between atoms: N_8  and  C_9
REMARK    3  A    between atoms: C_9  and  C_10
REMARK    4  A    between atoms: C_14  and  C_15
REMARK                            x       y       z     vdW  Elec       q    Type
REMARK                         _______ _______ _______ _____ _____    ______ ____
ROOT
ATOM      1  C   UNL     1      44.716   6.178  11.496  0.00  0.00    +0.000 C 
ATOM      2  C   UNL     1      44.014   7.387  12.094  0.00  0.00    +0.000 C 
ATOM      3  C   UNL     1      45.146   7.603  11.148  0.00  0.00    +0.000 C 
ENDROOT
BRANCH   1   8
ATOM      4  C   UNL     1      46.032   3.465   7.389  0.00  0.00    +0.000 A 
ATOM      5  C   UNL     1      44.810   3.069   7.874  0.00  0.00    +0.000 A 
ATOM      6  N   UNL     1      44.173   3.687   8.893  0.00  0.00    +0.000 NA
ATOM      7  C   UNL     1      44.799   4.732   9.463  0.00  0.00    +0.000 A 
ATOM      8  N   UNL     1      44.065   5.405  10.436  0.00  0.00    +0.000 N 
ATOM      9  N   UNL     1      46.032   5.135   9.113  0.00  0.00    +0.000 NA
ATOM     10  C   UNL     1      46.627   4.494   8.080  0.00  0.00    +0.000 A 
ATOM     11  H   UNL     1      43.266   4.824  10.663  0.00  0.00    +0.000 HD
BRANCH   4  13
ATOM     12  N   UNL     1      46.999   3.722   5.186  0.00  0.00    +0.000 N 
ATOM     13  C   UNL     1      46.665   2.872   6.211  0.00  0.00    +0.000 C 
ATOM     14  O   UNL     1      46.927   1.680   6.164  0.00  0.00    +0.000 OA
ATOM     15  H   UNL     1      47.554   3.321   4.440  0.00  0.00    +0.000 HD
ATOM     16  H   UNL     1      47.044   4.725   5.298  0.00  0.00    +0.000 HD
ENDBRANCH   4  13
ENDBRANCH   1   8
BRANCH   1  17
ATOM     17  C   UNL     1      45.661   5.392  12.391  0.00  0.00    +0.000 A 
ATOM     18  C   UNL     1      45.508   4.028  12.625  0.00  0.00    +0.000 A 
ATOM     19  N   UNL     1      46.210   3.309  13.532  0.00  0.00    +0.000 NA
ATOM     20  C   UNL     1      47.119   3.994  14.265  0.00  0.00    +0.000 A 
ATOM     21  C   UNL     1      47.420   5.346  14.113  0.00  0.00    +0.000 A 
ATOM     22  C   UNL     1      46.685   6.020  13.121  0.00  0.00    +0.000 A 
BRANCH  21  23
ATOM     23  C   UNL     1      48.368   6.063  14.986  0.00  0.00    +0.000 A 
ATOM     24  C   UNL     1      49.068   7.203  14.592  0.00  0.00    +0.000 A 
ATOM     25  C   UNL     1      49.999   7.770  15.463  0.00  0.00    +0.000 A 
ATOM     26  C   UNL     1      50.208   7.194  16.708  0.00  0.00    +0.000 A 
ATOM     27  C   UNL     1      49.467   6.076  17.037  0.00  0.00    +0.000 A 
ATOM     28  N   UNL     1      48.561   5.508  16.213  0.00  0.00    +0.000 NA
ENDBRANCH  21  23
ENDBRANCH   1  17
TORSDOF 4
ENDMDL
