MODEL 1
REMARK VINA RESULT:    -7.740      0.000      0.000
REMARK INTER + INTRA:         -10.244
REMARK INTER:                  -9.550
REMARK INTRA:                  -0.694
REMARK UNBOUND:                -0.694
REMARK  Name = 
REMARK  5 active torsions:
REMARK  status: ('A' for Active; 'I' for Inactive)
REMARK    1  A    between atoms: C_1  and  C_2
REMARK    2  A    between atoms: C_7  and  C_8
REMARK    3  A    between atoms: C_8  and  N_9
REMARK    4  A    between atoms: N_9  and  C_10
REMARK    5  A    between atoms: C_13  and  C_14
REMARK                            x       y       z     vdW  Elec       q    Type
REMARK                         _______ _______ _______ _____ _____    ______ ____
ROOT
ATOM      1  C   UNL     1      44.530   3.942   9.179  0.00  0.00    +0.000 A 
ATOM      2  C   UNL     1      45.528   4.364   8.292  0.00  0.00    +0.000 A 
ATOM      3  C   UNL     1      46.387   3.442   7.684  0.00  0.00    +0.000 A 
ATOM      4  C   UNL     1      46.243   2.101   8.008  0.00  0.00    +0.000 A 
ATOM      5  N   UNL     1      45.322   1.637   8.893  0.00  0.00    +0.000 NA
ATOM      6  C   UNL     1      44.513   2.571   9.459  0.00  0.00    +0.000 A 
ENDROOT
BRANCH   4   7
ATOM      7  C   UNL     1      47.134   1.074   7.379  0.00  0.00    +0.000 C 
ATOM      8  N   UNL     1      46.808  -0.227   7.665  0.00  0.00    +0.000 N 
ATOM      9  O   UNL     1      48.083   1.362   6.660  0.00  0.00    +0.000 OA
ATOM     10  H   UNL     1      46.020  -0.416   8.270  0.00  0.00    +0.000 HD
ATOM     11  H   UNL     1      47.360  -0.981   7.285  0.00  0.00    +0.000 HD
ENDBRANCH   4   7
BRANCH   1  12
ATOM     12  N   UNL     1      43.735   4.893   9.829  0.00  0.00    +0.000 N 
ATOM     13  H   UNL     1      42.819   5.002   9.399  0.00  0.00    +0.000 HD
BRANCH  12  14
ATOM     14  C   UNL     1      43.635   4.863  11.290  0.00  0.00    +0.000 C 
BRANCH  14  21
ATOM     15  C   UNL     1      45.858   3.449  12.859  0.00  0.00    +0.000 C 
ATOM     16  C   UNL     1      45.848   4.935  12.621  0.00  0.00    +0.000 A 
ATOM     17  C   UNL     1      46.935   5.689  13.103  0.00  0.00    +0.000 A 
ATOM     18  C   UNL     1      47.007   7.065  12.895  0.00  0.00    +0.000 A 
ATOM     19  C   UNL     1      45.992   7.712  12.202  0.00  0.00    +0.000 A 
ATOM     20  C   UNL     1      44.907   6.981  11.720  0.00  0.00    +0.000 A 
ATOM     21  C   UNL     1      44.813   5.588  11.918  0.00  0.00    +0.000 A 
ENDBRANCH  14  21
ENDBRANCH  12  14
ENDBRANCH   1  12
TORSDOF 4
ENDMDL
MODEL 2
REMARK VINA RESULT:    -7.700      0.523      1.690
REMARK INTER + INTRA:         -10.195
REMARK INTER:                  -9.734
REMARK INTRA:                  -0.460
REMARK UNBOUND:                -0.694
REMARK  Name = 
REMARK  5 active torsions:
REMARK  status: ('A' for Active; 'I' for Inactive)
REMARK    1  A    between atoms: C_1  and  C_2
REMARK    2  A    between atoms: C_7  and  C_8
REMARK    3  A    between atoms: C_8  and  N_9
REMARK    4  A    between atoms: N_9  and  C_10
REMARK    5  A    between atoms: C_13  and  C_14
REMARK                            x       y       z     vdW  Elec       q    Type
REMARK                         _______ _______ _______ _____ _____    ______ ____
ROOT
ATOM      1  C   UNL     1      44.552   3.932   9.190  0.00  0.00    +0.000 A 
ATOM      2  C   UNL     1      45.565   4.349   8.318  0.00  0.00    +0.000 A 
ATOM      3  C   UNL     1      46.405   3.419   7.694  0.00  0.00    +0.000 A 
ATOM      4  C   UNL     1      46.226   2.076   7.987  0.00  0.00    +0.000 A 
ATOM      5  N   UNL     1      45.290   1.615   8.857  0.00  0.00    +0.000 NA
ATOM      6  C   UNL     1      44.501   2.555   9.440  0.00  0.00    +0.000 A 
ENDROOT
BRANCH   4   7
ATOM      7  C   UNL     1      47.096   1.042   7.341  0.00  0.00    +0.000 C 
ATOM      8  N   UNL     1      46.798  -0.255   7.674  0.00  0.00    +0.000 N 
ATOM      9  O   UNL     1      48.006   1.320   6.569  0.00  0.00    +0.000 OA
ATOM     10  H   UNL     1      46.043  -0.436   8.322  0.00  0.00    +0.000 HD
ATOM     11  H   UNL     1      47.338  -1.013   7.286  0.00  0.00    +0.000 HD
ENDBRANCH   4   7
BRANCH   1  12
ATOM     12  N   UNL     1      43.777   4.887   9.857  0.00  0.00    +0.000 N 
ATOM     13  H   UNL     1      42.901   5.088   9.380  0.00  0.00    +0.000 HD
BRANCH  12  14
ATOM     14  C   UNL     1      43.576   4.763  11.303  0.00  0.00    +0.000 C 
BRANCH  14  21
ATOM     15  C   UNL     1      44.882   7.534  11.451  0.00  0.00    +0.000 C 
ATOM     16  C   UNL     1      45.462   6.324  12.131  0.00  0.00    +0.000 A 
ATOM     17  C   UNL     1      46.627   6.495  12.903  0.00  0.00    +0.000 A 
ATOM     18  C   UNL     1      47.204   5.424  13.584  0.00  0.00    +0.000 A 
ATOM     19  C   UNL     1      46.626   4.163  13.504  0.00  0.00    +0.000 A 
ATOM     20  C   UNL     1      45.474   3.976  12.741  0.00  0.00    +0.000 A 
ATOM     21  C   UNL     1      44.872   5.044  12.045  0.00  0.00    +0.000 A 
ENDBRANCH  14  21
ENDBRANCH  12  14
ENDBRANCH   1  12
TORSDOF 4
ENDMDL
MODEL 3
REMARK VINA RESULT:    -6.779      3.033      6.044
REMARK INTER + INTRA:          -9.059
REMARK INTER:                  -8.679
REMARK INTRA:                  -0.380
REMARK UNBOUND:                -0.694
REMARK  Name = 
REMARK  5 active torsions:
REMARK  status: ('A' for Active; 'I' for Inactive)
REMARK    1  A    between atoms: C_1  and  C_2
REMARK    2  A    between atoms: C_7  and  C_8
REMARK    3  A    between atoms: C_8  and  N_9
REMARK    4  A    between atoms: N_9  and  C_10
REMARK    5  A    between atoms: C_13  and  C_14
REMARK                            x       y       z     vdW  Elec       q    Type
REMARK                         _______ _______ _______ _____ _____    ______ ____
ROOT
ATOM      1  C   UNL     1      44.967   3.621  10.867  0.00  0.00    +0.000 A 
ATOM      2  C   UNL     1      45.385   4.951  10.994  0.00  0.00    +0.000 A 
ATOM      3  C   UNL     1      46.007   5.401  12.165  0.00  0.00    +0.000 A 
ATOM      4  C   UNL     1      46.169   4.501  13.207  0.00  0.00    +0.000 A 
ATOM      5  N   UNL     1      45.745   3.211  13.158  0.00  0.00    +0.000 NA
ATOM      6  C   UNL     1      45.146   2.822  12.002  0.00  0.00    +0.000 A 
ENDROOT
BRANCH   4   7
ATOM      7  C   UNL     1      46.833   4.932  14.478  0.00  0.00    +0.000 C 
ATOM      8  N   UNL     1      47.386   6.187  14.445  0.00  0.00    +0.000 N 
ATOM      9  O   UNL     1      46.883   4.228  15.479  0.00  0.00    +0.000 OA
ATOM     10  H   UNL     1      47.327   6.729  13.593  0.00  0.00    +0.000 HD
ATOM     11  H   UNL     1      47.857   6.553  15.259  0.00  0.00    +0.000 HD
ENDBRANCH   4   7
BRANCH   1  12
ATOM     12  N   UNL     1      44.281   3.218   9.715  0.00  0.00    +0.000 N 
ATOM     13  H   UNL     1      44.135   3.979   9.056  0.00  0.00    +0.000 HD
BRANCH  12  14
ATOM     14  C   UNL     1      44.696   1.993   9.027  0.00  0.00    +0.000 C 
BRANCH  14  21
ATOM     15  C   UNL     1      46.544  -0.153   7.850  0.00  0.00    +0.000 C 
ATOM     16  C   UNL     1      46.644   1.300   7.476  0.00  0.00    +0.000 A 
ATOM     17  C   UNL     1      47.598   1.670   6.509  0.00  0.00    +0.000 A 
ATOM     18  C   UNL     1      47.727   2.994   6.093  0.00  0.00    +0.000 A 
ATOM     19  C   UNL     1      46.905   3.972   6.638  0.00  0.00    +0.000 A 
ATOM     20  C   UNL     1      45.957   3.624   7.600  0.00  0.00    +0.000 A 
ATOM     21  C   UNL     1      45.807   2.291   8.035  0.00  0.00    +0.000 A 
ENDBRANCH  14  21
ENDBRANCH  12  14
ENDBRANCH   1  12
TORSDOF 4
ENDMDL
MODEL 4
REMARK VINA RESULT:    -6.212      3.957      6.491
REMARK INTER + INTRA:          -8.359
REMARK INTER:                  -7.807
REMARK INTRA:                  -0.551
REMARK UNBOUND:                -0.694
REMARK  Name = 
REMARK  5 active torsions:
REMARK  status: ('A' for Active; 'I' for Inactive)
REMARK    1  A    between atoms: C_1  and  C_2
REMARK    2  A    between atoms: C_7  and  C_8
REMARK    3  A    between atoms: C_8  and  N_9
REMARK    4  A    between atoms: N_9  and  C_10
REMARK    5  A    between atoms: C_13  and  C_14
REMARK                            x       y       z     vdW  Elec       q    Type
REMARK                         _______ _______ _______ _____ _____    ______ ____
ROOT
ATOM      1  C   UNL     1      46.634   5.851  12.859  0.00  0.00    +0.000 A 
ATOM      2  C   UNL     1      46.052   4.775  13.542  0.00  0.00    +0.000 A 
ATOM      3  C   UNL     1      46.549   4.357  14.782  0.00  0.00    +0.000 A 
ATOM      4  C   UNL     1      47.654   5.016  15.300  0.00  0.00    +0.000 A 
ATOM      5  N   UNL     1      48.287   6.036  14.663  0.00  0.00    +0.000 NA
ATOM      6  C   UNL     1      47.769   6.405  13.463  0.00  0.00    +0.000 A 
ENDROOT
BRANCH   4   7
ATOM      7  C   UNL     1      48.221   4.609  16.625  0.00  0.00    +0.000 C 
ATOM      8  N   UNL     1      47.300   4.482  17.633  0.00  0.00    +0.000 N 
ATOM      9  O   UNL     1      49.414   4.399  16.807  0.00  0.00    +0.000 OA
ATOM     10  H   UNL     1      46.326   4.673  17.438  0.00  0.00    +0.000 HD
ATOM     11  H   UNL     1      47.598   4.215  18.560  0.00  0.00    +0.000 HD
ENDBRANCH   4   7
BRANCH   1  12
ATOM     12  N   UNL     1      46.163   6.199  11.588  0.00  0.00    +0.000 N 
ATOM     13  H   UNL     1      46.859   6.065  10.858  0.00  0.00    +0.000 HD
BRANCH  12  14
ATOM     14  C   UNL     1      44.845   5.724  11.158  0.00  0.00    +0.000 C 
BRANCH  14  21
ATOM     15  C   UNL     1      43.588   2.953  11.535  0.00  0.00    +0.000 C 
ATOM     16  C   UNL     1      44.393   3.322  10.319  0.00  0.00    +0.000 A 
ATOM     17  C   UNL     1      44.528   2.362   9.298  0.00  0.00    +0.000 A 
ATOM     18  C   UNL     1      45.236   2.645   8.131  0.00  0.00    +0.000 A 
ATOM     19  C   UNL     1      45.823   3.892   7.965  0.00  0.00    +0.000 A 
ATOM     20  C   UNL     1      45.702   4.854   8.968  0.00  0.00    +0.000 A 
ATOM     21  C   UNL     1      44.990   4.591  10.156  0.00  0.00    +0.000 A 
ENDBRANCH  14  21
ENDBRANCH  12  14
ENDBRANCH   1  12
TORSDOF 4
ENDMDL
MODEL 5
REMARK VINA RESULT:    -5.814      3.733      6.139
REMARK INTER + INTRA:          -7.868
REMARK INTER:                  -7.378
REMARK INTRA:                  -0.489
REMARK UNBOUND:                -0.694
REMARK  Name = 
REMARK  5 active torsions:
REMARK  status: ('A' for Active; 'I' for Inactive)
REMARK    1  A    between atoms: C_1  and  C_2
REMARK    2  A    between atoms: C_7  and  C_8
REMARK    3  A    between atoms: C_8  and  N_9
REMARK    4  A    between atoms: N_9  and  C_10
REMARK    5  A    between atoms: C_13  and  C_14
REMARK                            x       y       z     vdW  Elec       q    Type
REMARK                         _______ _______ _______ _____ _____    ______ ____
ROOT
ATOM      1  C   UNL     1      46.394   6.128  12.672  0.00  0.00    +0.000 A 
ATOM      2  C   UNL     1      46.589   7.366  12.047  0.00  0.00    +0.000 A 
ATOM      3  C   UNL     1      47.827   8.017  12.112  0.00  0.00    +0.000 A 
ATOM      4  C   UNL     1      48.845   7.416  12.837  0.00  0.00    +0.000 A 
ATOM      5  N   UNL     1      48.701   6.238  13.498  0.00  0.00    +0.000 NA
ATOM      6  C   UNL     1      47.482   5.646  13.409  0.00  0.00    +0.000 A 
ENDROOT
BRANCH   4   7
ATOM      7  C   UNL     1      50.189   8.070  12.931  0.00  0.00    +0.000 C 
ATOM      8  N   UNL     1      50.963   7.652  13.983  0.00  0.00    +0.000 N 
ATOM      9  O   UNL     1      50.581   8.912  12.132  0.00  0.00    +0.000 OA
ATOM     10  H   UNL     1      50.594   6.959  14.622  0.00  0.00    +0.000 HD
ATOM     11  H   UNL     1      51.881   8.045  14.123  0.00  0.00    +0.000 HD
ENDBRANCH   4   7
BRANCH   1  12
ATOM     12  N   UNL     1      45.125   5.537  12.654  0.00  0.00    +0.000 N 
ATOM     13  H   UNL     1      44.590   5.724  13.499  0.00  0.00    +0.000 HD
BRANCH  12  14
ATOM     14  C   UNL     1      44.290   5.669  11.457  0.00  0.00    +0.000 C 
BRANCH  14  21
ATOM     15  C   UNL     1      43.334   2.765  11.693  0.00  0.00    +0.000 C 
ATOM     16  C   UNL     1      44.174   3.254  10.546  0.00  0.00    +0.000 A 
ATOM     17  C   UNL     1      44.488   2.341   9.520  0.00  0.00    +0.000 A 
ATOM     18  C   UNL     1      45.239   2.732   8.413  0.00  0.00    +0.000 A 
ATOM     19  C   UNL     1      45.691   4.041   8.311  0.00  0.00    +0.000 A 
ATOM     20  C   UNL     1      45.392   4.957   9.320  0.00  0.00    +0.000 A 
ATOM     21  C   UNL     1      44.633   4.586  10.449  0.00  0.00    +0.000 A 
ENDBRANCH  14  21
ENDBRANCH  12  14
ENDBRANCH   1  12
TORSDOF 4
ENDMDL
MODEL 6
REMARK VINA RESULT:    -5.622      3.227      4.913
REMARK INTER + INTRA:          -7.631
REMARK INTER:                  -7.191
REMARK INTRA:                  -0.440
REMARK UNBOUND:                -0.694
REMARK  Name = 
REMARK  5 active torsions:
REMARK  status: ('A' for Active; 'I' for Inactive)
REMARK    1  A    between atoms: C_1  and  C_2
REMARK    2  A    between atoms: C_7  and  C_8
REMARK    3  A    between atoms: C_8  and  N_9
REMARK    4  A    between atoms: N_9  and  C_10
REMARK    5  A    between atoms: C_13  and  C_14
REMARK                            x       y       z     vdW  Elec       q    Type
REMARK                         _______ _______ _______ _____ _____    ______ ____
ROOT
ATOM      1  C   UNL     1      46.278   5.729  13.031  0.00  0.00    +0.000 A 
ATOM      2  C   UNL     1      45.670   5.998  11.798  0.00  0.00    +0.000 A 
ATOM      3  C   UNL     1      44.907   5.024  11.144  0.00  0.00    +0.000 A 
ATOM      4  C   UNL     1      44.796   3.775  11.736  0.00  0.00    +0.000 A 
ATOM      5  N   UNL     1      45.398   3.442  12.907  0.00  0.00    +0.000 NA
ATOM      6  C   UNL     1      46.129   4.420  13.503  0.00  0.00    +0.000 A 
ENDROOT
BRANCH   4   7
ATOM      7  C   UNL     1      43.986   2.700  11.078  0.00  0.00    +0.000 C 
ATOM      8  N   UNL     1      44.510   2.214   9.908  0.00  0.00    +0.000 N 
ATOM      9  O   UNL     1      42.934   2.276  11.543  0.00  0.00    +0.000 OA
ATOM     10  H   UNL     1      45.377   2.601   9.559  0.00  0.00    +0.000 HD
ATOM     11  H   UNL     1      44.025   1.491   9.398  0.00  0.00    +0.000 HD
ENDBRANCH   4   7
BRANCH   1  12
ATOM     12  N   UNL     1      47.096   6.697  13.625  0.00  0.00    +0.000 N 
ATOM     13  H   UNL     1      47.161   6.593  14.635  0.00  0.00    +0.000 HD
BRANCH  12  14
ATOM     14  C   UNL     1      48.406   6.986  13.036  0.00  0.00    +0.000 C 
BRANCH  14  21
ATOM     15  C   UNL     1      50.723   8.089  11.357  0.00  0.00    +0.000 C 
ATOM     16  C   UNL     1      49.482   8.886  11.653  0.00  0.00    +0.000 A 
ATOM     17  C   UNL     1      49.372  10.172  11.091  0.00  0.00    +0.000 A 
ATOM     18  C   UNL     1      48.238  10.955  11.299  0.00  0.00    +0.000 A 
ATOM     19  C   UNL     1      47.195  10.467  12.075  0.00  0.00    +0.000 A 
ATOM     20  C   UNL     1      47.289   9.196  12.643  0.00  0.00    +0.000 A 
ATOM     21  C   UNL     1      48.425   8.385  12.445  0.00  0.00    +0.000 A 
ENDBRANCH  14  21
ENDBRANCH  12  14
ENDBRANCH   1  12
TORSDOF 4
ENDMDL
MODEL 7
REMARK VINA RESULT:    -5.563      4.349      6.023
REMARK INTER + INTRA:          -7.558
REMARK INTER:                  -7.260
REMARK INTRA:                  -0.298
REMARK UNBOUND:                -0.694
REMARK  Name = 
REMARK  5 active torsions:
REMARK  status: ('A' for Active; 'I' for Inactive)
REMARK    1  A    between atoms: C_1  and  C_2
REMARK    2  A    between atoms: C_7  and  C_8
REMARK    3  A    between atoms: C_8  and  N_9
REMARK    4  A    between atoms: N_9  and  C_10
REMARK    5  A    between atoms: C_13  and  C_14
REMARK                            x       y       z     vdW  Elec       q    Type
REMARK                         _______ _______ _______ _____ _____    ______ ____
ROOT
ATOM      1  C   UNL     1      46.606   4.832  14.076  0.00  0.00    +0.000 A 
ATOM      2  C   UNL     1      46.147   5.814  13.190  0.00  0.00    +0.000 A 
ATOM      3  C   UNL     1      45.438   5.466  12.034  0.00  0.00    +0.000 A 
ATOM      4  C   UNL     1      45.231   4.120  11.774  0.00  0.00    +0.000 A 
ATOM      5  N   UNL     1      45.690   3.122  12.573  0.00  0.00    +0.000 NA
ATOM      6  C   UNL     1      46.374   3.509  13.682  0.00  0.00    +0.000 A 
ENDROOT
BRANCH   4   7
ATOM      7  C   UNL     1      44.474   3.697  10.553  0.00  0.00    +0.000 C 
ATOM      8  N   UNL     1      44.657   2.389  10.184  0.00  0.00    +0.000 N 
ATOM      9  O   UNL     1      43.740   4.452   9.926  0.00  0.00    +0.000 OA
ATOM     10  H   UNL     1      45.279   1.806  10.728  0.00  0.00    +0.000 HD
ATOM     11  H   UNL     1      44.187   2.023   9.370  0.00  0.00    +0.000 HD
ENDBRANCH   4   7
BRANCH   1  12
ATOM     12  N   UNL     1      47.376   5.204  15.184  0.00  0.00    +0.000 N 
ATOM     13  H   UNL     1      47.322   6.200  15.385  0.00  0.00    +0.000 HD
BRANCH  12  14
ATOM     14  C   UNL     1      47.294   4.409  16.412  0.00  0.00    +0.000 C 
BRANCH  14  21
ATOM     15  C   UNL     1      49.519   6.125  17.641  0.00  0.00    +0.000 C 
ATOM     16  C   UNL     1      49.680   4.654  17.373  0.00  0.00    +0.000 A 
ATOM     17  C   UNL     1      50.891   4.042  17.750  0.00  0.00    +0.000 A 
ATOM     18  C   UNL     1      51.100   2.678  17.558  0.00  0.00    +0.000 A 
ATOM     19  C   UNL     1      50.102   1.900  16.984  0.00  0.00    +0.000 A 
ATOM     20  C   UNL     1      48.898   2.491  16.602  0.00  0.00    +0.000 A 
ATOM     21  C   UNL     1      48.663   3.869  16.787  0.00  0.00    +0.000 A 
ENDBRANCH  14  21
ENDBRANCH  12  14
ENDBRANCH   1  12
TORSDOF 4
ENDMDL
MODEL 8
REMARK VINA RESULT:    -5.506      4.285      6.449
REMARK INTER + INTRA:          -7.488
REMARK INTER:                  -7.284
REMARK INTRA:                  -0.204
REMARK UNBOUND:                -0.694
REMARK  Name = 
REMARK  5 active torsions:
REMARK  status: ('A' for Active; 'I' for Inactive)
REMARK    1  A    between atoms: C_1  and  C_2
REMARK    2  A    between atoms: C_7  and  C_8
REMARK    3  A    between atoms: C_8  and  N_9
REMARK    4  A    between atoms: N_9  and  C_10
REMARK    5  A    between atoms: C_13  and  C_14
REMARK                            x       y       z     vdW  Elec       q    Type
REMARK                         _______ _______ _______ _____ _____    ______ ____
ROOT
ATOM      1  C   UNL     1      47.540   5.556  13.439  0.00  0.00    +0.000 A 
ATOM      2  C   UNL     1      47.951   6.196  14.614  0.00  0.00    +0.000 A 
ATOM      3  C   UNL     1      47.981   5.511  15.834  0.00  0.00    +0.000 A 
ATOM      4  C   UNL     1      47.562   4.189  15.852  0.00  0.00    +0.000 A 
ATOM      5  N   UNL     1      47.113   3.529  14.753  0.00  0.00    +0.000 NA
ATOM      6  C   UNL     1      47.100   4.236  13.593  0.00  0.00    +0.000 A 
ENDROOT
BRANCH   4   7
ATOM      7  C   UNL     1      47.581   3.410  17.132  0.00  0.00    +0.000 C 
ATOM      8  N   UNL     1      48.775   3.434  17.806  0.00  0.00    +0.000 N 
ATOM      9  O   UNL     1      46.608   2.798  17.556  0.00  0.00    +0.000 OA
ATOM     10  H   UNL     1      49.553   3.947  17.412  0.00  0.00    +0.000 HD
ATOM     11  H   UNL     1      48.874   2.932  18.675  0.00  0.00    +0.000 HD
ENDBRANCH   4   7
BRANCH   1  12
ATOM     12  N   UNL     1      47.449   6.287  12.248  0.00  0.00    +0.000 N 
ATOM     13  H   UNL     1      47.738   5.751  11.433  0.00  0.00    +0.000 HD
BRANCH  12  14
ATOM     14  C   UNL     1      46.234   7.057  11.972  0.00  0.00    +0.000 C 
BRANCH  14  21
ATOM     15  C   UNL     1      45.816   5.371   9.445  0.00  0.00    +0.000 C 
ATOM     16  C   UNL     1      44.869   5.334  10.614  0.00  0.00    +0.000 A 
ATOM     17  C   UNL     1      43.776   4.449  10.551  0.00  0.00    +0.000 A 
ATOM     18  C   UNL     1      42.874   4.341  11.609  0.00  0.00    +0.000 A 
ATOM     19  C   UNL     1      43.049   5.117  12.747  0.00  0.00    +0.000 A 
ATOM     20  C   UNL     1      44.125   6.002  12.824  0.00  0.00    +0.000 A 
ATOM     21  C   UNL     1      45.050   6.127  11.768  0.00  0.00    +0.000 A 
ENDBRANCH  14  21
ENDBRANCH  12  14
ENDBRANCH   1  12
TORSDOF 4
ENDMDL
MODEL 9
REMARK VINA RESULT:    -5.228      3.169      5.211
REMARK INTER + INTRA:          -7.144
REMARK INTER:                  -6.829
REMARK INTRA:                  -0.315
REMARK UNBOUND:                -0.694
REMARK  Name = 
REMARK  5 active torsions:
REMARK  status: ('A' for Active; 'I' for Inactive)
REMARK    1  A    between atoms: C_1  and  C_2
REMARK    2  A    between atoms: C_7  and  C_8
REMARK    3  A    between atoms: C_8  and  N_9
REMARK    4  A    between atoms: N_9  and  C_10
REMARK    5  A    between atoms: C_13  and  C_14
REMARK                            x       y       z     vdW  Elec       q    Type
REMARK                         _______ _______ _______ _____ _____    ______ ____
ROOT
ATOM      1  C   UNL     1      45.777   6.408  12.790  0.00  0.00    +0.000 A 
ATOM      2  C   UNL     1      46.211   5.152  13.230  0.00  0.00    +0.000 A 
ATOM      3  C   UNL     1      45.667   3.976  12.701  0.00  0.00    +0.000 A 
ATOM      4  C   UNL     1      44.663   4.090  11.751  0.00  0.00    +0.000 A 
ATOM      5  N   UNL     1      44.171   5.279  11.317  0.00  0.00    +0.000 NA
ATOM      6  C   UNL     1      44.730   6.392  11.861  0.00  0.00    +0.000 A 
ENDROOT
BRANCH   4   7
ATOM      7  C   UNL     1      44.052   2.861  11.151  0.00  0.00    +0.000 C 
ATOM      8  N   UNL     1      44.764   2.306  10.119  0.00  0.00    +0.000 N 
ATOM      9  O   UNL     1      42.997   2.378  11.545  0.00  0.00    +0.000 OA
ATOM     10  H   UNL     1      45.626   2.745   9.823  0.00  0.00    +0.000 HD
ATOM     11  H   UNL     1      44.421   1.478   9.656  0.00  0.00    +0.000 HD
ENDBRANCH   4   7
BRANCH   1  12
ATOM     12  N   UNL     1      46.286   7.566  13.390  0.00  0.00    +0.000 N 
ATOM     13  H   UNL     1      47.180   7.412  13.850  0.00  0.00    +0.000 HD
BRANCH  12  14
ATOM     14  C   UNL     1      46.287   8.822  12.635  0.00  0.00    +0.000 C 
BRANCH  14  21
ATOM     15  C   UNL     1      47.051  11.459  11.270  0.00  0.00    +0.000 C 
ATOM     16  C   UNL     1      48.036  10.345  11.498  0.00  0.00    +0.000 A 
ATOM     17  C   UNL     1      49.373  10.554  11.105  0.00  0.00    +0.000 A 
ATOM     18  C   UNL     1      50.345   9.577  11.311  0.00  0.00    +0.000 A 
ATOM     19  C   UNL     1      49.999   8.373  11.911  0.00  0.00    +0.000 A 
ATOM     20  C   UNL     1      48.679   8.149  12.303  0.00  0.00    +0.000 A 
ATOM     21  C   UNL     1      47.679   9.123  12.107  0.00  0.00    +0.000 A 
ENDBRANCH  14  21
ENDBRANCH  12  14
ENDBRANCH   1  12
TORSDOF 4
ENDMDL
