MODEL 1
REMARK VINA RESULT:    -9.462      0.000      0.000
REMARK INTER + INTRA:         -12.526
REMARK INTER:                 -12.228
REMARK INTRA:                  -0.298
REMARK UNBOUND:                -0.298
REMARK  Name = 
REMARK  5 active torsions:
REMARK  status: ('A' for Active; 'I' for Inactive)
REMARK    1  A    between atoms: C_2  and  C_4
REMARK    2  A    between atoms: N_8  and  C_9
REMARK    3  A    between atoms: C_9  and  C_10
REMARK    4  A    between atoms: C_12  and  C_13
REMARK    5  A    between atoms: C_17  and  C_18
REMARK                            x       y       z     vdW  Elec       q    Type
REMARK                         _______ _______ _______ _____ _____    ______ ____
ROOT
ATOM      1  C   UNL     1      43.951   4.767  11.714  0.00  0.00    +0.000 C 
ATOM      2  C   UNL     1      42.744   4.918  12.623  0.00  0.00    +0.000 C 
ATOM      3  C   UNL     1      42.714   5.566  11.280  0.00  0.00    +0.000 C 
ENDROOT
BRANCH   1   8
ATOM      4  C   UNL     1      46.439   2.750   7.520  0.00  0.00    +0.000 A 
ATOM      5  C   UNL     1      46.196   4.088   7.827  0.00  0.00    +0.000 A 
ATOM      6  C   UNL     1      45.464   4.412   8.978  0.00  0.00    +0.000 A 
ATOM      7  C   UNL     1      44.985   3.394   9.789  0.00  0.00    +0.000 A 
ATOM      8  N   UNL     1      44.175   3.565  10.905  0.00  0.00    +0.000 N 
ATOM      9  N   UNL     1      45.220   2.092   9.501  0.00  0.00    +0.000 NA
ATOM     10  C   UNL     1      45.926   1.796   8.381  0.00  0.00    +0.000 A 
ATOM     11  H   UNL     1      44.064   2.652  11.332  0.00  0.00    +0.000 HD
BRANCH   4  13
ATOM     12  N   UNL     1      47.124   3.075   5.210  0.00  0.00    +0.000 N 
ATOM     13  C   UNL     1      47.182   2.292   6.332  0.00  0.00    +0.000 C 
ATOM     14  O   UNL     1      47.855   1.267   6.344  0.00  0.00    +0.000 OA
ATOM     15  H   UNL     1      47.729   2.805   4.447  0.00  0.00    +0.000 HD
ATOM     16  H   UNL     1      46.803   4.029   5.236  0.00  0.00    +0.000 HD
ENDBRANCH   4  13
ENDBRANCH   1   8
BRANCH   1  17
ATOM     17  C   UNL     1      45.176   5.606  12.106  0.00  0.00    +0.000 A 
ATOM     18  C   UNL     1      45.808   5.405  13.335  0.00  0.00    +0.000 A 
ATOM     19  C   UNL     1      47.069   5.960  13.586  0.00  0.00    +0.000 A 
ATOM     20  C   UNL     1      47.633   6.756  12.583  0.00  0.00    +0.000 A 
ATOM     21  C   UNL     1      46.923   6.973  11.418  0.00  0.00    +0.000 A 
ATOM     22  N   UNL     1      45.719   6.428  11.167  0.00  0.00    +0.000 NA
BRANCH  19  23
ATOM     23  C   UNL     1      47.793   5.673  14.839  0.00  0.00    +0.000 A 
ATOM     24  C   UNL     1      48.715   6.587  15.376  0.00  0.00    +0.000 A 
ATOM     25  C   UNL     1      49.400   6.316  16.563  0.00  0.00    +0.000 A 
ATOM     26  C   UNL     1      49.180   5.117  17.239  0.00  0.00    +0.000 A 
ATOM     27  C   UNL     1      48.273   4.179  16.729  0.00  0.00    +0.000 A 
ATOM     28  C   UNL     1      47.592   4.467  15.534  0.00  0.00    +0.000 A 
BRANCH  27  29
ATOM     29  C   UNL     1      48.008   2.874  17.439  0.00  0.00    +0.000 C 
ATOM     30  F   UNL     1      46.685   2.578  17.562  0.00  0.00    +0.000 F 
ATOM     31  F   UNL     1      48.571   1.813  16.797  0.00  0.00    +0.000 F 
ATOM     32  F   UNL     1      48.514   2.860  18.703  0.00  0.00    +0.000 F 
ENDBRANCH  27  29
ENDBRANCH  19  23
ENDBRANCH   1  17
TORSDOF 5
ENDMDL
MODEL 2
REMARK VINA RESULT:    -8.976      3.577      4.674
REMARK INTER + INTRA:         -11.898
REMARK INTER:                 -11.342
REMARK INTRA:                  -0.555
REMARK UNBOUND:                -0.298
REMARK  Name = 
REMARK  5 active torsions:
REMARK  status: ('A' for Active; 'I' for Inactive)
REMARK    1  A    between atoms: C_2  and  C_4
REMARK    2  A    between atoms: N_8  and  C_9
REMARK    3  A    between atoms: C_9  and  C_10
REMARK    4  A    between atoms: C_12  and  C_13
REMARK    5  A    between atoms: C_17  and  C_18
REMARK                            x       y       z     vdW  Elec       q    Type
REMARK                         _______ _______ _______ _____ _____    ______ ____
ROOT
ATOM      1  C   UNL     1      44.150   4.502  11.784  0.00  0.00    +0.000 C 
ATOM      2  C   UNL     1      42.860   4.804  12.525  0.00  0.00    +0.000 C 
ATOM      3  C   UNL     1      43.225   5.647  11.350  0.00  0.00    +0.000 C 
ENDROOT
BRANCH   1   8
ATOM      4  C   UNL     1      46.443   2.923   7.301  0.00  0.00    +0.000 A 
ATOM      5  C   UNL     1      46.348   4.213   7.822  0.00  0.00    +0.000 A 
ATOM      6  C   UNL     1      45.644   4.426   9.015  0.00  0.00    +0.000 A 
ATOM      7  C   UNL     1      45.045   3.351   9.655  0.00  0.00    +0.000 A 
ATOM      8  N   UNL     1      44.247   3.429  10.789  0.00  0.00    +0.000 N 
ATOM      9  N   UNL     1      45.136   2.095   9.158  0.00  0.00    +0.000 NA
ATOM     10  C   UNL     1      45.817   1.906   7.999  0.00  0.00    +0.000 A 
ATOM     11  H   UNL     1      44.029   2.477  11.063  0.00  0.00    +0.000 HD
BRANCH   4  13
ATOM     12  N   UNL     1      48.373   1.990   6.153  0.00  0.00    +0.000 N 
ATOM     13  C   UNL     1      47.142   2.583   6.048  0.00  0.00    +0.000 C 
ATOM     14  O   UNL     1      46.639   2.787   4.949  0.00  0.00    +0.000 OA
ATOM     15  H   UNL     1      48.783   1.662   5.291  0.00  0.00    +0.000 HD
ATOM     16  H   UNL     1      48.702   1.581   7.013  0.00  0.00    +0.000 HD
ENDBRANCH   4  13
ENDBRANCH   1   8
BRANCH   1  17
ATOM     17  C   UNL     1      45.436   4.929  12.505  0.00  0.00    +0.000 A 
ATOM     18  C   UNL     1      46.219   5.970  12.004  0.00  0.00    +0.000 A 
ATOM     19  C   UNL     1      47.229   6.544  12.786  0.00  0.00    +0.000 A 
ATOM     20  C   UNL     1      47.447   5.998  14.056  0.00  0.00    +0.000 A 
ATOM     21  C   UNL     1      46.685   4.920  14.464  0.00  0.00    +0.000 A 
ATOM     22  N   UNL     1      45.704   4.378  13.721  0.00  0.00    +0.000 NA
BRANCH  19  23
ATOM     23  C   UNL     1      47.994   7.711  12.308  0.00  0.00    +0.000 A 
ATOM     24  C   UNL     1      47.416   8.990  12.251  0.00  0.00    +0.000 A 
ATOM     25  C   UNL     1      48.141  10.096  11.799  0.00  0.00    +0.000 A 
ATOM     26  C   UNL     1      49.464   9.944  11.389  0.00  0.00    +0.000 A 
ATOM     27  C   UNL     1      50.071   8.682  11.427  0.00  0.00    +0.000 A 
ATOM     28  C   UNL     1      49.328   7.580  11.883  0.00  0.00    +0.000 A 
BRANCH  27  29
ATOM     29  C   UNL     1      51.504   8.485  10.995  0.00  0.00    +0.000 C 
ATOM     30  F   UNL     1      51.682   7.424  10.161  0.00  0.00    +0.000 F 
ATOM     31  F   UNL     1      51.999   9.568  10.335  0.00  0.00    +0.000 F 
ATOM     32  F   UNL     1      52.338   8.276  12.050  0.00  0.00    +0.000 F 
ENDBRANCH  27  29
ENDBRANCH  19  23
ENDBRANCH   1  17
TORSDOF 5
ENDMDL
MODEL 3
REMARK VINA RESULT:    -8.875      4.784      8.216
REMARK INTER + INTRA:         -11.767
REMARK INTER:                 -10.867
REMARK INTRA:                  -0.900
REMARK UNBOUND:                -0.298
REMARK  Name = 
REMARK  5 active torsions:
REMARK  status: ('A' for Active; 'I' for Inactive)
REMARK    1  A    between atoms: C_2  and  C_4
REMARK    2  A    between atoms: N_8  and  C_9
REMARK    3  A    between atoms: C_9  and  C_10
REMARK    4  A    between atoms: C_12  and  C_13
REMARK    5  A    between atoms: C_17  and  C_18
REMARK                            x       y       z     vdW  Elec       q    Type
REMARK                         _______ _______ _______ _____ _____    ______ ____
ROOT
ATOM      1  C   UNL     1      47.908   7.849  12.418  0.00  0.00    +0.000 C 
ATOM      2  C   UNL     1      49.042   7.987  11.418  0.00  0.00    +0.000 C 
ATOM      3  C   UNL     1      48.394   9.225  11.940  0.00  0.00    +0.000 C 
ENDROOT
BRANCH   1   8
ATOM      4  C   UNL     1      47.724   4.322  16.338  0.00  0.00    +0.000 A 
ATOM      5  C   UNL     1      47.083   4.281  15.101  0.00  0.00    +0.000 A 
ATOM      6  C   UNL     1      47.224   5.357  14.214  0.00  0.00    +0.000 A 
ATOM      7  C   UNL     1      47.994   6.450  14.584  0.00  0.00    +0.000 A 
ATOM      8  N   UNL     1      48.148   7.616  13.845  0.00  0.00    +0.000 N 
ATOM      9  N   UNL     1      48.624   6.495  15.782  0.00  0.00    +0.000 NA
ATOM     10  C   UNL     1      48.472   5.448  16.631  0.00  0.00    +0.000 A 
ATOM     11  H   UNL     1      48.831   8.186  14.333  0.00  0.00    +0.000 HD
BRANCH   4  13
ATOM     12  N   UNL     1      48.781   2.928  18.027  0.00  0.00    +0.000 N 
ATOM     13  C   UNL     1      47.634   3.258  17.356  0.00  0.00    +0.000 C 
ATOM     14  O   UNL     1      46.573   2.706  17.623  0.00  0.00    +0.000 OA
ATOM     15  H   UNL     1      48.676   2.282  18.796  0.00  0.00    +0.000 HD
ATOM     16  H   UNL     1      49.597   3.519  18.021  0.00  0.00    +0.000 HD
ENDBRANCH   4  13
ENDBRANCH   1   8
BRANCH   1  17
ATOM     17  C   UNL     1      46.569   7.381  11.831  0.00  0.00    +0.000 A 
ATOM     18  C   UNL     1      46.518   6.283  10.970  0.00  0.00    +0.000 A 
ATOM     19  C   UNL     1      45.293   5.684  10.650  0.00  0.00    +0.000 A 
ATOM     20  C   UNL     1      44.136   6.262  11.185  0.00  0.00    +0.000 A 
ATOM     21  C   UNL     1      44.250   7.391  11.972  0.00  0.00    +0.000 A 
ATOM     22  N   UNL     1      45.427   7.959  12.294  0.00  0.00    +0.000 NA
BRANCH  19  23
ATOM     23  C   UNL     1      45.233   4.463   9.825  0.00  0.00    +0.000 A 
ATOM     24  C   UNL     1      44.431   3.371  10.195  0.00  0.00    +0.000 A 
ATOM     25  C   UNL     1      44.373   2.214   9.413  0.00  0.00    +0.000 A 
ATOM     26  C   UNL     1      45.123   2.124   8.242  0.00  0.00    +0.000 A 
ATOM     27  C   UNL     1      45.939   3.191   7.845  0.00  0.00    +0.000 A 
ATOM     28  C   UNL     1      45.986   4.347   8.643  0.00  0.00    +0.000 A 
BRANCH  27  29
ATOM     29  C   UNL     1      46.759   3.128   6.580  0.00  0.00    +0.000 C 
ATOM     30  F   UNL     1      46.754   4.287   5.867  0.00  0.00    +0.000 F 
ATOM     31  F   UNL     1      48.068   2.845   6.827  0.00  0.00    +0.000 F 
ATOM     32  F   UNL     1      46.322   2.160   5.728  0.00  0.00    +0.000 F 
ENDBRANCH  27  29
ENDBRANCH  19  23
ENDBRANCH   1  17
TORSDOF 5
ENDMDL
MODEL 4
REMARK VINA RESULT:    -8.150      5.648      8.821
REMARK INTER + INTRA:         -10.830
REMARK INTER:                 -10.204
REMARK INTRA:                  -0.627
REMARK UNBOUND:                -0.298
REMARK  Name = 
REMARK  5 active torsions:
REMARK  status: ('A' for Active; 'I' for Inactive)
REMARK    1  A    between atoms: C_2  and  C_4
REMARK    2  A    between atoms: N_8  and  C_9
REMARK    3  A    between atoms: C_9  and  C_10
REMARK    4  A    between atoms: C_12  and  C_13
REMARK    5  A    between atoms: C_17  and  C_18
REMARK                            x       y       z     vdW  Elec       q    Type
REMARK                         _______ _______ _______ _____ _____    ______ ____
ROOT
ATOM      1  C   UNL     1      48.078   3.712  16.730  0.00  0.00    +0.000 C 
ATOM      2  C   UNL     1      47.686   4.315  18.068  0.00  0.00    +0.000 C 
ATOM      3  C   UNL     1      46.778   3.310  17.441  0.00  0.00    +0.000 C 
ENDROOT
BRANCH   1   8
ATOM      4  C   UNL     1      52.889   1.998  18.058  0.00  0.00    +0.000 A 
ATOM      5  C   UNL     1      52.397   3.302  18.071  0.00  0.00    +0.000 A 
ATOM      6  C   UNL     1      51.091   3.552  17.625  0.00  0.00    +0.000 A 
ATOM      7  C   UNL     1      50.312   2.498  17.171  0.00  0.00    +0.000 A 
ATOM      8  N   UNL     1      49.041   2.612  16.622  0.00  0.00    +0.000 N 
ATOM      9  N   UNL     1      50.782   1.228  17.159  0.00  0.00    +0.000 NA
ATOM     10  C   UNL     1      52.049   1.004  17.589  0.00  0.00    +0.000 A 
ATOM     11  H   UNL     1      48.701   1.669  16.466  0.00  0.00    +0.000 HD
BRANCH   4  13
ATOM     12  N   UNL     1      54.391   0.436  19.161  0.00  0.00    +0.000 N 
ATOM     13  C   UNL     1      54.248   1.619  18.486  0.00  0.00    +0.000 C 
ATOM     14  O   UNL     1      55.226   2.312  18.227  0.00  0.00    +0.000 OA
ATOM     15  H   UNL     1      55.339   0.139  19.344  0.00  0.00    +0.000 HD
ATOM     16  H   UNL     1      53.671  -0.269  19.169  0.00  0.00    +0.000 HD
ENDBRANCH   4  13
ENDBRANCH   1   8
BRANCH   1  17
ATOM     17  C   UNL     1      47.909   4.639  15.518  0.00  0.00    +0.000 A 
ATOM     18  C   UNL     1      46.930   4.380  14.559  0.00  0.00    +0.000 A 
ATOM     19  C   UNL     1      46.586   5.352  13.610  0.00  0.00    +0.000 A 
ATOM     20  C   UNL     1      47.297   6.556  13.637  0.00  0.00    +0.000 A 
ATOM     21  C   UNL     1      48.304   6.722  14.568  0.00  0.00    +0.000 A 
ATOM     22  N   UNL     1      48.625   5.797  15.491  0.00  0.00    +0.000 NA
BRANCH  19  23
ATOM     23  C   UNL     1      45.483   5.130  12.655  0.00  0.00    +0.000 A 
ATOM     24  C   UNL     1      44.142   5.288  13.039  0.00  0.00    +0.000 A 
ATOM     25  C   UNL     1      43.098   5.080  12.136  0.00  0.00    +0.000 A 
ATOM     26  C   UNL     1      43.374   4.700  10.823  0.00  0.00    +0.000 A 
ATOM     27  C   UNL     1      44.700   4.527  10.406  0.00  0.00    +0.000 A 
ATOM     28  C   UNL     1      45.739   4.740  11.328  0.00  0.00    +0.000 A 
BRANCH  27  29
ATOM     29  C   UNL     1      45.034   4.122   8.991  0.00  0.00    +0.000 C 
ATOM     30  F   UNL     1      46.035   4.858   8.435  0.00  0.00    +0.000 F 
ATOM     31  F   UNL     1      45.432   2.823   8.906  0.00  0.00    +0.000 F 
ATOM     32  F   UNL     1      43.968   4.243   8.153  0.00  0.00    +0.000 F 
ENDBRANCH  27  29
ENDBRANCH  19  23
ENDBRANCH   1  17
TORSDOF 5
ENDMDL
MODEL 5
REMARK VINA RESULT:    -7.305      3.279      5.026
REMARK INTER + INTRA:          -9.738
REMARK INTER:                  -8.920
REMARK INTRA:                  -0.818
REMARK UNBOUND:                -0.298
REMARK  Name = 
REMARK  5 active torsions:
REMARK  status: ('A' for Active; 'I' for Inactive)
REMARK    1  A    between atoms: C_2  and  C_4
REMARK    2  A    between atoms: N_8  and  C_9
REMARK    3  A    between atoms: C_9  and  C_10
REMARK    4  A    between atoms: C_12  and  C_13
REMARK    5  A    between atoms: C_17  and  C_18
REMARK                            x       y       z     vdW  Elec       q    Type
REMARK                         _______ _______ _______ _____ _____    ______ ____
ROOT
ATOM      1  C   UNL     1      48.562   8.750  12.512  0.00  0.00    +0.000 C 
ATOM      2  C   UNL     1      49.622   9.534  11.757  0.00  0.00    +0.000 C 
ATOM      3  C   UNL     1      49.775   8.055  11.877  0.00  0.00    +0.000 C 
ENDROOT
BRANCH   1   8
ATOM      4  C   UNL     1      44.795   5.065  12.255  0.00  0.00    +0.000 A 
ATOM      5  C   UNL     1      46.096   4.945  12.741  0.00  0.00    +0.000 A 
ATOM      6  C   UNL     1      46.963   6.045  12.670  0.00  0.00    +0.000 A 
ATOM      7  C   UNL     1      46.515   7.232  12.110  0.00  0.00    +0.000 A 
ATOM      8  N   UNL     1      47.289   8.366  11.896  0.00  0.00    +0.000 N 
ATOM      9  N   UNL     1      45.251   7.357  11.641  0.00  0.00    +0.000 NA
ATOM     10  C   UNL     1      44.426   6.282  11.712  0.00  0.00    +0.000 A 
ATOM     11  H   UNL     1      46.664   9.089  11.555  0.00  0.00    +0.000 HD
BRANCH   4  13
ATOM     12  N   UNL     1      42.630   4.182  11.585  0.00  0.00    +0.000 N 
ATOM     13  C   UNL     1      43.802   3.974  12.263  0.00  0.00    +0.000 C 
ATOM     14  O   UNL     1      44.018   2.906  12.824  0.00  0.00    +0.000 OA
ATOM     15  H   UNL     1      42.015   3.385  11.505  0.00  0.00    +0.000 HD
ATOM     16  H   UNL     1      42.522   4.925  10.913  0.00  0.00    +0.000 HD
ENDBRANCH   4  13
ENDBRANCH   1   8
BRANCH   1  17
ATOM     17  C   UNL     1      48.606   8.892  14.040  0.00  0.00    +0.000 A 
ATOM     18  C   UNL     1      48.567   7.761  14.858  0.00  0.00    +0.000 A 
ATOM     19  C   UNL     1      48.879   7.856  16.220  0.00  0.00    +0.000 A 
ATOM     20  C   UNL     1      49.177   9.126  16.725  0.00  0.00    +0.000 A 
ATOM     21  C   UNL     1      49.129  10.215  15.876  0.00  0.00    +0.000 A 
ATOM     22  N   UNL     1      48.845  10.125  14.564  0.00  0.00    +0.000 NA
BRANCH  19  23
ATOM     23  C   UNL     1      48.941   6.654  17.074  0.00  0.00    +0.000 A 
ATOM     24  C   UNL     1      49.455   6.712  18.380  0.00  0.00    +0.000 A 
ATOM     25  C   UNL     1      49.512   5.575  19.189  0.00  0.00    +0.000 A 
ATOM     26  C   UNL     1      49.059   4.349  18.706  0.00  0.00    +0.000 A 
ATOM     27  C   UNL     1      48.545   4.253  17.406  0.00  0.00    +0.000 A 
ATOM     28  C   UNL     1      48.495   5.406  16.605  0.00  0.00    +0.000 A 
BRANCH  27  29
ATOM     29  C   UNL     1      48.041   2.942  16.854  0.00  0.00    +0.000 C 
ATOM     30  F   UNL     1      48.985   1.961  16.827  0.00  0.00    +0.000 F 
ATOM     31  F   UNL     1      47.002   2.442  17.578  0.00  0.00    +0.000 F 
ATOM     32  F   UNL     1      47.585   3.060  15.576  0.00  0.00    +0.000 F 
ENDBRANCH  27  29
ENDBRANCH  19  23
ENDBRANCH   1  17
TORSDOF 5
ENDMDL
MODEL 6
REMARK VINA RESULT:    -6.918      5.152      7.535
REMARK INTER + INTRA:          -9.238
REMARK INTER:                  -8.521
REMARK INTRA:                  -0.718
REMARK UNBOUND:                -0.298
REMARK  Name = 
REMARK  5 active torsions:
REMARK  status: ('A' for Active; 'I' for Inactive)
REMARK    1  A    between atoms: C_2  and  C_4
REMARK    2  A    between atoms: N_8  and  C_9
REMARK    3  A    between atoms: C_9  and  C_10
REMARK    4  A    between atoms: C_12  and  C_13
REMARK    5  A    between atoms: C_17  and  C_18
REMARK                            x       y       z     vdW  Elec       q    Type
REMARK                         _______ _______ _______ _____ _____    ______ ____
ROOT
ATOM      1  C   UNL     1      45.934   5.166  12.866  0.00  0.00    +0.000 C 
ATOM      2  C   UNL     1      44.428   5.006  12.752  0.00  0.00    +0.000 C 
ATOM      3  C   UNL     1      45.278   4.632  11.585  0.00  0.00    +0.000 C 
ENDROOT
BRANCH   1   8
ATOM      4  C   UNL     1      48.451   3.915  17.332  0.00  0.00    +0.000 A 
ATOM      5  C   UNL     1      47.982   5.161  16.918  0.00  0.00    +0.000 A 
ATOM      6  C   UNL     1      47.380   5.289  15.658  0.00  0.00    +0.000 A 
ATOM      7  C   UNL     1      47.267   4.175  14.840  0.00  0.00    +0.000 A 
ATOM      8  N   UNL     1      46.776   4.174  13.540  0.00  0.00    +0.000 N 
ATOM      9  N   UNL     1      47.716   2.960  15.237  0.00  0.00    +0.000 NA
ATOM     10  C   UNL     1      48.301   2.855  16.456  0.00  0.00    +0.000 A 
ATOM     11  H   UNL     1      46.741   3.206  13.239  0.00  0.00    +0.000 HD
BRANCH   4  13
ATOM     12  N   UNL     1      48.412   2.966  19.570  0.00  0.00    +0.000 N 
ATOM     13  C   UNL     1      49.114   3.665  18.625  0.00  0.00    +0.000 C 
ATOM     14  O   UNL     1      50.262   4.035  18.847  0.00  0.00    +0.000 OA
ATOM     15  H   UNL     1      48.922   2.706  20.402  0.00  0.00    +0.000 HD
ATOM     16  H   UNL     1      47.586   2.434  19.343  0.00  0.00    +0.000 HD
ENDBRANCH   4  13
ENDBRANCH   1   8
BRANCH   1  17
ATOM     17  C   UNL     1      46.446   6.612  12.793  0.00  0.00    +0.000 A 
ATOM     18  C   UNL     1      47.807   6.874  12.622  0.00  0.00    +0.000 A 
ATOM     19  C   UNL     1      48.248   8.159  12.283  0.00  0.00    +0.000 A 
ATOM     20  C   UNL     1      47.280   9.164  12.176  0.00  0.00    +0.000 A 
ATOM     21  C   UNL     1      45.958   8.853  12.428  0.00  0.00    +0.000 A 
ATOM     22  N   UNL     1      45.529   7.616  12.738  0.00  0.00    +0.000 NA
BRANCH  19  23
ATOM     23  C   UNL     1      49.671   8.427  11.999  0.00  0.00    +0.000 A 
ATOM     24  C   UNL     1      50.376   9.429  12.686  0.00  0.00    +0.000 A 
ATOM     25  C   UNL     1      51.724   9.682  12.419  0.00  0.00    +0.000 A 
ATOM     26  C   UNL     1      52.396   8.939  11.451  0.00  0.00    +0.000 A 
ATOM     27  C   UNL     1      51.723   7.937  10.741  0.00  0.00    +0.000 A 
ATOM     28  C   UNL     1      50.367   7.695  11.022  0.00  0.00    +0.000 A 
BRANCH  27  29
ATOM     29  C   UNL     1      52.423   7.110   9.690  0.00  0.00    +0.000 C 
ATOM     30  F   UNL     1      51.626   6.773   8.640  0.00  0.00    +0.000 F 
ATOM     31  F   UNL     1      53.495   7.757   9.154  0.00  0.00    +0.000 F 
ATOM     32  F   UNL     1      52.903   5.938  10.189  0.00  0.00    +0.000 F 
ENDBRANCH  27  29
ENDBRANCH  19  23
ENDBRANCH   1  17
TORSDOF 5
ENDMDL
MODEL 7
REMARK VINA RESULT:    -6.834      2.581      3.735
REMARK INTER + INTRA:          -9.130
REMARK INTER:                  -8.443
REMARK INTRA:                  -0.687
REMARK UNBOUND:                -0.298
REMARK  Name = 
REMARK  5 active torsions:
REMARK  status: ('A' for Active; 'I' for Inactive)
REMARK    1  A    between atoms: C_2  and  C_4
REMARK    2  A    between atoms: N_8  and  C_9
REMARK    3  A    between atoms: C_9  and  C_10
REMARK    4  A    between atoms: C_12  and  C_13
REMARK    5  A    between atoms: C_17  and  C_18
REMARK                            x       y       z     vdW  Elec       q    Type
REMARK                         _______ _______ _______ _____ _____    ______ ____
ROOT
ATOM      1  C   UNL     1      45.621   9.188  12.063  0.00  0.00    +0.000 C 
ATOM      2  C   UNL     1      45.382  10.688  12.107  0.00  0.00    +0.000 C 
ATOM      3  C   UNL     1      45.581  10.033  10.781  0.00  0.00    +0.000 C 
ENDROOT
BRANCH   1   8
ATOM      4  C   UNL     1      44.146   4.201  11.174  0.00  0.00    +0.000 A 
ATOM      5  C   UNL     1      45.234   4.893  10.645  0.00  0.00    +0.000 A 
ATOM      6  C   UNL     1      45.420   6.244  10.974  0.00  0.00    +0.000 A 
ATOM      7  C   UNL     1      44.513   6.871  11.814  0.00  0.00    +0.000 A 
ATOM      8  N   UNL     1      44.525   8.219  12.150  0.00  0.00    +0.000 N 
ATOM      9  N   UNL     1      43.456   6.205  12.335  0.00  0.00    +0.000 NA
ATOM     10  C   UNL     1      43.288   4.900  12.003  0.00  0.00    +0.000 A 
ATOM     11  H   UNL     1      43.794   8.357  12.841  0.00  0.00    +0.000 HD
BRANCH   4  13
ATOM     12  N   UNL     1      44.547   2.180   9.881  0.00  0.00    +0.000 N 
ATOM     13  C   UNL     1      43.842   2.787  10.886  0.00  0.00    +0.000 C 
ATOM     14  O   UNL     1      43.014   2.157  11.537  0.00  0.00    +0.000 OA
ATOM     15  H   UNL     1      44.407   1.186   9.776  0.00  0.00    +0.000 HD
ATOM     16  H   UNL     1      45.393   2.575   9.503  0.00  0.00    +0.000 HD
ENDBRANCH   4  13
ENDBRANCH   1   8
BRANCH   1  17
ATOM     17  C   UNL     1      47.017   8.735  12.512  0.00  0.00    +0.000 A 
ATOM     18  C   UNL     1      47.210   8.185  13.780  0.00  0.00    +0.000 A 
ATOM     19  C   UNL     1      48.404   7.524  14.097  0.00  0.00    +0.000 A 
ATOM     20  C   UNL     1      49.398   7.486  13.114  0.00  0.00    +0.000 A 
ATOM     21  C   UNL     1      49.171   8.112  11.904  0.00  0.00    +0.000 A 
ATOM     22  N   UNL     1      48.020   8.734  11.591  0.00  0.00    +0.000 NA
BRANCH  19  23
ATOM     23  C   UNL     1      48.581   6.850  15.398  0.00  0.00    +0.000 A 
ATOM     24  C   UNL     1      49.027   7.553  16.529  0.00  0.00    +0.000 A 
ATOM     25  C   UNL     1      49.193   6.917  17.761  0.00  0.00    +0.000 A 
ATOM     26  C   UNL     1      48.922   5.555  17.887  0.00  0.00    +0.000 A 
ATOM     27  C   UNL     1      48.483   4.821  16.778  0.00  0.00    +0.000 A 
ATOM     28  C   UNL     1      48.320   5.477  15.546  0.00  0.00    +0.000 A 
BRANCH  27  29
ATOM     29  C   UNL     1      48.175   3.347  16.882  0.00  0.00    +0.000 C 
ATOM     30  F   UNL     1      47.275   3.044  17.857  0.00  0.00    +0.000 F 
ATOM     31  F   UNL     1      47.658   2.845  15.726  0.00  0.00    +0.000 F 
ATOM     32  F   UNL     1      49.284   2.604  17.149  0.00  0.00    +0.000 F 
ENDBRANCH  27  29
ENDBRANCH  19  23
ENDBRANCH   1  17
TORSDOF 5
ENDMDL
MODEL 8
REMARK VINA RESULT:    -6.760      4.991      7.474
REMARK INTER + INTRA:          -9.035
REMARK INTER:                  -7.909
REMARK INTRA:                  -1.126
REMARK UNBOUND:                -0.298
REMARK  Name = 
REMARK  5 active torsions:
REMARK  status: ('A' for Active; 'I' for Inactive)
REMARK    1  A    between atoms: C_2  and  C_4
REMARK    2  A    between atoms: N_8  and  C_9
REMARK    3  A    between atoms: C_9  and  C_10
REMARK    4  A    between atoms: C_12  and  C_13
REMARK    5  A    between atoms: C_17  and  C_18
REMARK                            x       y       z     vdW  Elec       q    Type
REMARK                         _______ _______ _______ _____ _____    ______ ____
ROOT
ATOM      1  C   UNL     1      49.067   8.540  14.182  0.00  0.00    +0.000 C 
ATOM      2  C   UNL     1      48.305   9.794  13.792  0.00  0.00    +0.000 C 
ATOM      3  C   UNL     1      48.814   9.671  15.189  0.00  0.00    +0.000 C 
ENDROOT
BRANCH   1   8
ATOM      4  C   UNL     1      52.596   7.778  10.334  0.00  0.00    +0.000 A 
ATOM      5  C   UNL     1      51.217   7.579  10.301  0.00  0.00    +0.000 A 
ATOM      6  C   UNL     1      50.460   7.794  11.461  0.00  0.00    +0.000 A 
ATOM      7  C   UNL     1      51.096   8.194  12.627  0.00  0.00    +0.000 A 
ATOM      8  N   UNL     1      50.486   8.357  13.864  0.00  0.00    +0.000 N 
ATOM      9  N   UNL     1      52.435   8.394  12.666  0.00  0.00    +0.000 NA
ATOM     10  C   UNL     1      53.154   8.177  11.536  0.00  0.00    +0.000 A 
ATOM     11  H   UNL     1      51.188   8.735  14.491  0.00  0.00    +0.000 HD
BRANCH   4  13
ATOM     12  N   UNL     1      54.429   6.573   9.284  0.00  0.00    +0.000 N 
ATOM     13  C   UNL     1      53.494   7.569   9.183  0.00  0.00    +0.000 C 
ATOM     14  O   UNL     1      53.397   8.232   8.157  0.00  0.00    +0.000 OA
ATOM     15  H   UNL     1      54.955   6.370   8.447  0.00  0.00    +0.000 HD
ATOM     16  H   UNL     1      54.375   5.854   9.988  0.00  0.00    +0.000 HD
ENDBRANCH   4  13
ENDBRANCH   1   8
BRANCH   1  17
ATOM     17  C   UNL     1      48.207   7.282  14.372  0.00  0.00    +0.000 A 
ATOM     18  C   UNL     1      47.127   7.028  13.524  0.00  0.00    +0.000 A 
ATOM     19  C   UNL     1      46.512   5.769  13.510  0.00  0.00    +0.000 A 
ATOM     20  C   UNL     1      46.991   4.811  14.409  0.00  0.00    +0.000 A 
ATOM     21  C   UNL     1      48.016   5.150  15.272  0.00  0.00    +0.000 A 
ATOM     22  N   UNL     1      48.619   6.352  15.276  0.00  0.00    +0.000 NA
BRANCH  19  23
ATOM     23  C   UNL     1      45.438   5.455  12.549  0.00  0.00    +0.000 A 
ATOM     24  C   UNL     1      44.085   5.616  12.887  0.00  0.00    +0.000 A 
ATOM     25  C   UNL     1      43.068   5.320  11.977  0.00  0.00    +0.000 A 
ATOM     26  C   UNL     1      43.384   4.849  10.704  0.00  0.00    +0.000 A 
ATOM     27  C   UNL     1      44.723   4.670  10.334  0.00  0.00    +0.000 A 
ATOM     28  C   UNL     1      45.734   4.973  11.262  0.00  0.00    +0.000 A 
BRANCH  27  29
ATOM     29  C   UNL     1      45.100   4.167   8.962  0.00  0.00    +0.000 C 
ATOM     30  F   UNL     1      46.120   4.861   8.387  0.00  0.00    +0.000 F 
ATOM     31  F   UNL     1      45.497   2.865   8.979  0.00  0.00    +0.000 F 
ATOM     32  F   UNL     1      44.061   4.231   8.084  0.00  0.00    +0.000 F 
ENDBRANCH  27  29
ENDBRANCH  19  23
ENDBRANCH   1  17
TORSDOF 5
ENDMDL
