MODEL 1
REMARK VINA RESULT:    -8.103      0.000      0.000
REMARK INTER + INTRA:         -11.959
REMARK INTER:                 -10.945
REMARK INTRA:                  -1.015
REMARK UNBOUND:                -1.015
REMARK  Name = 
REMARK  8 active torsions:
REMARK  status: ('A' for Active; 'I' for Inactive)
REMARK    1  A    between atoms: C_1  and  C_2
REMARK    2  A    between atoms: C_2  and  N_3
REMARK    3  A    between atoms: C_2  and  C_17
REMARK    4  A    between atoms: C_4  and  C_6
REMARK    5  A    between atoms: N_12  and  C_13
REMARK    6  A    between atoms: C_20  and  C_21
REMARK    7  A    between atoms: C_21  and  O_22
REMARK    8  A    between atoms: O_22  and  C_23
REMARK                            x       y       z     vdW  Elec       q    Type
REMARK                         _______ _______ _______ _____ _____    ______ ____
ROOT
ATOM      1  C   UNL     1      47.515   8.483  13.617  0.00  0.00    +0.000 C 
ATOM      2  C   UNL     1      47.895   7.003  13.674  0.00  0.00    +0.000 C 
ENDROOT
BRANCH   2   3
ATOM      3  C   UNL     1      46.965   6.154  12.814  0.00  0.00    +0.000 A 
ATOM      4  C   UNL     1      46.474   4.937  13.305  0.00  0.00    +0.000 A 
ATOM      5  C   UNL     1      45.566   4.177  12.559  0.00  0.00    +0.000 A 
ATOM      6  C   UNL     1      45.123   4.617  11.304  0.00  0.00    +0.000 A 
ATOM      7  C   UNL     1      45.610   5.833  10.809  0.00  0.00    +0.000 A 
ATOM      8  C   UNL     1      46.525   6.586  11.551  0.00  0.00    +0.000 A 
BRANCH   6   9
ATOM      9  C   UNL     1      44.101   3.822  10.521  0.00  0.00    +0.000 C 
BRANCH   9  10
ATOM     10  O   UNL     1      44.239   4.152   9.144  0.00  0.00    +0.000 OA
BRANCH  10  11
ATOM     11  C   UNL     1      45.190   3.387   8.501  0.00  0.00    +0.000 A 
ATOM     12  N   UNL     1      45.325   2.085   8.808  0.00  0.00    +0.000 NA
ATOM     13  C   UNL     1      46.265   1.413   8.115  0.00  0.00    +0.000 A 
ATOM     14  C   UNL     1      47.055   1.988   7.149  0.00  0.00    +0.000 A 
ATOM     15  C   UNL     1      46.840   3.327   6.928  0.00  0.00    +0.000 A 
ATOM     16  N   UNL     1      45.919   4.050   7.592  0.00  0.00    +0.000 NA
ENDBRANCH  10  11
ENDBRANCH   9  10
ENDBRANCH   6   9
ENDBRANCH   2   3
BRANCH   2  17
ATOM     17  N   UNL     1      47.870   6.523  15.043  0.00  0.00    +0.000 N 
ATOM     18  C   UNL     1      48.985   6.314  15.810  0.00  0.00    +0.000 C 
ATOM     19  O   UNL     1      50.113   6.620  15.440  0.00  0.00    +0.000 OA
ATOM     20  H   UNL     1      46.995   6.114  15.347  0.00  0.00    +0.000 HD
BRANCH  18  21
ATOM     21  C   UNL     1      48.732   5.751  17.146  0.00  0.00    +0.000 A 
ATOM     22  C   UNL     1      48.914   4.397  17.385  0.00  0.00    +0.000 A 
ATOM     23  S   UNL     1      48.646   3.954  19.013  0.00  0.00    +0.000 S 
ATOM     24  C   UNL     1      48.231   5.549  19.441  0.00  0.00    +0.000 A 
ATOM     25  N   UNL     1      47.894   5.872  20.717  0.00  0.00    +0.000 NA
ATOM     26  C   UNL     1      47.583   7.117  20.891  0.00  0.00    +0.000 A 
ATOM     27  N   UNL     1      47.566   8.084  19.909  0.00  0.00    +0.000 N 
ATOM     28  C   UNL     1      47.213   9.456  20.209  0.00  0.00    +0.000 C 
ATOM     29  C   UNL     1      47.915   7.786  18.599  0.00  0.00    +0.000 A 
ATOM     30  O   UNL     1      47.943   8.635  17.717  0.00  0.00    +0.000 OA
ATOM     31  C   UNL     1      48.289   6.404  18.360  0.00  0.00    +0.000 A 
ENDBRANCH  18  21
ENDBRANCH   2  17
TORSDOF 6
ENDMDL
MODEL 2
REMARK VINA RESULT:    -7.818      1.782      2.728
REMARK INTER + INTRA:         -11.575
REMARK INTER:                 -10.299
REMARK INTRA:                  -1.275
REMARK UNBOUND:                -1.015
REMARK  Name = 
REMARK  8 active torsions:
REMARK  status: ('A' for Active; 'I' for Inactive)
REMARK    1  A    between atoms: C_1  and  C_2
REMARK    2  A    between atoms: C_2  and  N_3
REMARK    3  A    between atoms: C_2  and  C_17
REMARK    4  A    between atoms: C_4  and  C_6
REMARK    5  A    between atoms: N_12  and  C_13
REMARK    6  A    between atoms: C_20  and  C_21
REMARK    7  A    between atoms: C_21  and  O_22
REMARK    8  A    between atoms: O_22  and  C_23
REMARK                            x       y       z     vdW  Elec       q    Type
REMARK                         _______ _______ _______ _____ _____    ______ ____
ROOT
ATOM      1  C   UNL     1      47.410   9.519  12.770  0.00  0.00    +0.000 C 
ATOM      2  C   UNL     1      47.772   8.067  13.081  0.00  0.00    +0.000 C 
ENDROOT
BRANCH   2   3
ATOM      3  C   UNL     1      46.664   7.111  12.651  0.00  0.00    +0.000 A 
ATOM      4  C   UNL     1      45.539   7.601  11.975  0.00  0.00    +0.000 A 
ATOM      5  C   UNL     1      44.545   6.731  11.512  0.00  0.00    +0.000 A 
ATOM      6  C   UNL     1      44.653   5.348  11.712  0.00  0.00    +0.000 A 
ATOM      7  C   UNL     1      45.775   4.853  12.387  0.00  0.00    +0.000 A 
ATOM      8  C   UNL     1      46.763   5.724  12.858  0.00  0.00    +0.000 A 
BRANCH   6   9
ATOM      9  C   UNL     1      43.605   4.403  11.166  0.00  0.00    +0.000 C 
BRANCH   9  10
ATOM     10  O   UNL     1      43.542   4.573   9.756  0.00  0.00    +0.000 OA
BRANCH  10  11
ATOM     11  C   UNL     1      44.481   3.819   9.081  0.00  0.00    +0.000 A 
ATOM     12  N   UNL     1      45.295   4.406   8.186  0.00  0.00    +0.000 NA
ATOM     13  C   UNL     1      46.193   3.597   7.591  0.00  0.00    +0.000 A 
ATOM     14  C   UNL     1      46.300   2.252   7.856  0.00  0.00    +0.000 A 
ATOM     15  C   UNL     1      45.408   1.759   8.777  0.00  0.00    +0.000 A 
ATOM     16  N   UNL     1      44.487   2.518   9.400  0.00  0.00    +0.000 NA
ENDBRANCH  10  11
ENDBRANCH   9  10
ENDBRANCH   6   9
ENDBRANCH   2   3
BRANCH   2  17
ATOM     17  N   UNL     1      48.040   7.900  14.497  0.00  0.00    +0.000 N 
ATOM     18  C   UNL     1      49.284   7.689  15.030  0.00  0.00    +0.000 C 
ATOM     19  O   UNL     1      50.310   7.731  14.359  0.00  0.00    +0.000 OA
ATOM     20  H   UNL     1      47.231   7.706  15.075  0.00  0.00    +0.000 HD
BRANCH  18  21
ATOM     21  C   UNL     1      49.316   7.471  16.485  0.00  0.00    +0.000 A 
ATOM     22  C   UNL     1      49.802   8.454  17.334  0.00  0.00    +0.000 A 
ATOM     23  S   UNL     1      49.683   8.043  18.988  0.00  0.00    +0.000 S 
ATOM     24  C   UNL     1      49.021   6.517  18.621  0.00  0.00    +0.000 A 
ATOM     25  N   UNL     1      48.675   5.644  19.603  0.00  0.00    +0.000 NA
ATOM     26  C   UNL     1      48.204   4.515  19.176  0.00  0.00    +0.000 A 
ATOM     27  N   UNL     1      48.050   4.160  17.854  0.00  0.00    +0.000 N 
ATOM     28  C   UNL     1      47.501   2.873  17.478  0.00  0.00    +0.000 C 
ATOM     29  C   UNL     1      48.385   5.034  16.828  0.00  0.00    +0.000 A 
ATOM     30  O   UNL     1      48.221   4.756  15.647  0.00  0.00    +0.000 OA
ATOM     31  C   UNL     1      48.900   6.321  17.261  0.00  0.00    +0.000 A 
ENDBRANCH  18  21
ENDBRANCH   2  17
TORSDOF 6
ENDMDL
MODEL 3
REMARK VINA RESULT:    -7.279      3.013      4.365
REMARK INTER + INTRA:         -10.847
REMARK INTER:                  -9.664
REMARK INTRA:                  -1.183
REMARK UNBOUND:                -1.015
REMARK  Name = 
REMARK  8 active torsions:
REMARK  status: ('A' for Active; 'I' for Inactive)
REMARK    1  A    between atoms: C_1  and  C_2
REMARK    2  A    between atoms: C_2  and  N_3
REMARK    3  A    between atoms: C_2  and  C_17
REMARK    4  A    between atoms: C_4  and  C_6
REMARK    5  A    between atoms: N_12  and  C_13
REMARK    6  A    between atoms: C_20  and  C_21
REMARK    7  A    between atoms: C_21  and  O_22
REMARK    8  A    between atoms: O_22  and  C_23
REMARK                            x       y       z     vdW  Elec       q    Type
REMARK                         _______ _______ _______ _____ _____    ______ ____
ROOT
ATOM      1  C   UNL     1      47.493   3.601  15.051  0.00  0.00    +0.000 C 
ATOM      2  C   UNL     1      46.957   4.938  14.537  0.00  0.00    +0.000 C 
ENDROOT
BRANCH   2   3
ATOM      3  C   UNL     1      46.204   4.769  13.222  0.00  0.00    +0.000 A 
ATOM      4  C   UNL     1      46.245   5.784  12.256  0.00  0.00    +0.000 A 
ATOM      5  C   UNL     1      45.618   5.619  11.015  0.00  0.00    +0.000 A 
ATOM      6  C   UNL     1      44.935   4.434  10.709  0.00  0.00    +0.000 A 
ATOM      7  C   UNL     1      44.891   3.417  11.670  0.00  0.00    +0.000 A 
ATOM      8  C   UNL     1      45.510   3.587  12.913  0.00  0.00    +0.000 A 
BRANCH   6   9
ATOM      9  C   UNL     1      44.302   4.235   9.349  0.00  0.00    +0.000 C 
BRANCH   9  10
ATOM     10  O   UNL     1      44.421   2.862   8.998  0.00  0.00    +0.000 OA
BRANCH  10  11
ATOM     11  C   UNL     1      45.498   2.609   8.173  0.00  0.00    +0.000 A 
ATOM     12  N   UNL     1      46.185   1.460   8.300  0.00  0.00    +0.000 NA
ATOM     13  C   UNL     1      47.207   1.289   7.440  0.00  0.00    +0.000 A 
ATOM     14  C   UNL     1      47.557   2.209   6.480  0.00  0.00    +0.000 A 
ATOM     15  C   UNL     1      46.795   3.351   6.451  0.00  0.00    +0.000 A 
ATOM     16  N   UNL     1      45.765   3.578   7.288  0.00  0.00    +0.000 NA
ENDBRANCH  10  11
ENDBRANCH   9  10
ENDBRANCH   6   9
ENDBRANCH   2   3
BRANCH   2  17
ATOM     17  N   UNL     1      48.039   5.888  14.363  0.00  0.00    +0.000 N 
ATOM     18  C   UNL     1      48.676   6.533  15.390  0.00  0.00    +0.000 C 
ATOM     19  O   UNL     1      48.458   6.280  16.570  0.00  0.00    +0.000 OA
ATOM     20  H   UNL     1      48.159   6.247  13.423  0.00  0.00    +0.000 HD
BRANCH  18  21
ATOM     21  C   UNL     1      49.695   7.513  14.981  0.00  0.00    +0.000 A 
ATOM     22  C   UNL     1      51.011   7.372  15.393  0.00  0.00    +0.000 A 
ATOM     23  S   UNL     1      52.055   8.564  14.751  0.00  0.00    +0.000 S 
ATOM     24  C   UNL     1      50.771   9.335  13.940  0.00  0.00    +0.000 A 
ATOM     25  N   UNL     1      50.979  10.442  13.181  0.00  0.00    +0.000 NA
ATOM     26  C   UNL     1      49.910  10.932  12.640  0.00  0.00    +0.000 A 
ATOM     27  N   UNL     1      48.635  10.429  12.789  0.00  0.00    +0.000 N 
ATOM     28  C   UNL     1      47.501  11.046  12.131  0.00  0.00    +0.000 C 
ATOM     29  C   UNL     1      48.391   9.294  13.550  0.00  0.00    +0.000 A 
ATOM     30  O   UNL     1      47.274   8.807  13.666  0.00  0.00    +0.000 OA
ATOM     31  C   UNL     1      49.567   8.699  14.161  0.00  0.00    +0.000 A 
ENDBRANCH  18  21
ENDBRANCH   2  17
TORSDOF 6
ENDMDL
MODEL 4
REMARK VINA RESULT:    -7.251      3.442      4.349
REMARK INTER + INTRA:         -10.810
REMARK INTER:                  -9.692
REMARK INTRA:                  -1.118
REMARK UNBOUND:                -1.015
REMARK  Name = 
REMARK  8 active torsions:
REMARK  status: ('A' for Active; 'I' for Inactive)
REMARK    1  A    between atoms: C_1  and  C_2
REMARK    2  A    between atoms: C_2  and  N_3
REMARK    3  A    between atoms: C_2  and  C_17
REMARK    4  A    between atoms: C_4  and  C_6
REMARK    5  A    between atoms: N_12  and  C_13
REMARK    6  A    between atoms: C_20  and  C_21
REMARK    7  A    between atoms: C_21  and  O_22
REMARK    8  A    between atoms: O_22  and  C_23
REMARK                            x       y       z     vdW  Elec       q    Type
REMARK                         _______ _______ _______ _____ _____    ______ ____
ROOT
ATOM      1  C   UNL     1      47.151   4.402  15.168  0.00  0.00    +0.000 C 
ATOM      2  C   UNL     1      46.909   5.605  14.258  0.00  0.00    +0.000 C 
ENDROOT
BRANCH   2   3
ATOM      3  C   UNL     1      46.276   5.188  12.935  0.00  0.00    +0.000 A 
ATOM      4  C   UNL     1      45.610   3.959  12.834  0.00  0.00    +0.000 A 
ATOM      5  C   UNL     1      44.964   3.588  11.649  0.00  0.00    +0.000 A 
ATOM      6  C   UNL     1      44.966   4.439  10.535  0.00  0.00    +0.000 A 
ATOM      7  C   UNL     1      45.630   5.668  10.631  0.00  0.00    +0.000 A 
ATOM      8  C   UNL     1      46.284   6.033  11.812  0.00  0.00    +0.000 A 
BRANCH   6   9
ATOM      9  C   UNL     1      44.224   4.062   9.272  0.00  0.00    +0.000 C 
BRANCH   9  10
ATOM     10  O   UNL     1      44.431   2.676   9.030  0.00  0.00    +0.000 OA
BRANCH  10  11
ATOM     11  C   UNL     1      45.482   2.432   8.170  0.00  0.00    +0.000 A 
ATOM     12  N   UNL     1      46.172   1.281   8.264  0.00  0.00    +0.000 NA
ATOM     13  C   UNL     1      47.168   1.120   7.371  0.00  0.00    +0.000 A 
ATOM     14  C   UNL     1      47.489   2.050   6.411  0.00  0.00    +0.000 A 
ATOM     15  C   UNL     1      46.726   3.193   6.418  0.00  0.00    +0.000 A 
ATOM     16  N   UNL     1      45.722   3.411   7.288  0.00  0.00    +0.000 NA
ENDBRANCH  10  11
ENDBRANCH   9  10
ENDBRANCH   6   9
ENDBRANCH   2   3
BRANCH   2  17
ATOM     17  N   UNL     1      48.152   6.311  14.004  0.00  0.00    +0.000 N 
ATOM     18  C   UNL     1      48.291   7.673  14.044  0.00  0.00    +0.000 C 
ATOM     19  O   UNL     1      47.391   8.422  14.408  0.00  0.00    +0.000 OA
ATOM     20  H   UNL     1      48.879   5.767  13.556  0.00  0.00    +0.000 HD
BRANCH  18  21
ATOM     21  C   UNL     1      49.623   8.180  13.680  0.00  0.00    +0.000 A 
ATOM     22  C   UNL     1      49.783   9.016  12.586  0.00  0.00    +0.000 A 
ATOM     23  S   UNL     1      51.390   9.558  12.375  0.00  0.00    +0.000 S 
ATOM     24  C   UNL     1      51.933   8.653  13.711  0.00  0.00    +0.000 A 
ATOM     25  N   UNL     1      53.237   8.674  14.094  0.00  0.00    +0.000 NA
ATOM     26  C   UNL     1      53.509   7.923  15.113  0.00  0.00    +0.000 A 
ATOM     27  N   UNL     1      52.604   7.136  15.792  0.00  0.00    +0.000 N 
ATOM     28  C   UNL     1      53.007   6.336  16.931  0.00  0.00    +0.000 C 
ATOM     29  C   UNL     1      51.264   7.101  15.431  0.00  0.00    +0.000 A 
ATOM     30  O   UNL     1      50.435   6.439  16.043  0.00  0.00    +0.000 OA
ATOM     31  C   UNL     1      50.909   7.944  14.304  0.00  0.00    +0.000 A 
ENDBRANCH  18  21
ENDBRANCH   2  17
TORSDOF 6
ENDMDL
MODEL 5
REMARK VINA RESULT:    -7.250      3.181      9.047
REMARK INTER + INTRA:         -10.807
REMARK INTER:                  -9.724
REMARK INTRA:                  -1.083
REMARK UNBOUND:                -1.015
REMARK  Name = 
REMARK  8 active torsions:
REMARK  status: ('A' for Active; 'I' for Inactive)
REMARK    1  A    between atoms: C_1  and  C_2
REMARK    2  A    between atoms: C_2  and  N_3
REMARK    3  A    between atoms: C_2  and  C_17
REMARK    4  A    between atoms: C_4  and  C_6
REMARK    5  A    between atoms: N_12  and  C_13
REMARK    6  A    between atoms: C_20  and  C_21
REMARK    7  A    between atoms: C_21  and  O_22
REMARK    8  A    between atoms: O_22  and  C_23
REMARK                            x       y       z     vdW  Elec       q    Type
REMARK                         _______ _______ _______ _____ _____    ______ ____
ROOT
ATOM      1  C   UNL     1      48.692   7.927  11.376  0.00  0.00    +0.000 C 
ATOM      2  C   UNL     1      47.781   7.546  12.543  0.00  0.00    +0.000 C 
ENDROOT
BRANCH   2   3
ATOM      3  C   UNL     1      48.583   7.255  13.807  0.00  0.00    +0.000 A 
ATOM      4  C   UNL     1      48.068   6.388  14.780  0.00  0.00    +0.000 A 
ATOM      5  C   UNL     1      48.818   6.054  15.913  0.00  0.00    +0.000 A 
ATOM      6  C   UNL     1      50.104   6.579  16.102  0.00  0.00    +0.000 A 
ATOM      7  C   UNL     1      50.624   7.445  15.132  0.00  0.00    +0.000 A 
ATOM      8  C   UNL     1      49.869   7.785  14.005  0.00  0.00    +0.000 A 
BRANCH   6   9
ATOM      9  C   UNL     1      50.936   6.177  17.300  0.00  0.00    +0.000 C 
BRANCH   9  10
ATOM     10  O   UNL     1      50.258   5.129  17.982  0.00  0.00    +0.000 OA
BRANCH  10  11
ATOM     11  C   UNL     1      50.876   3.904  17.836  0.00  0.00    +0.000 A 
ATOM     12  N   UNL     1      52.118   3.719  18.318  0.00  0.00    +0.000 NA
ATOM     13  C   UNL     1      52.635   2.485  18.149  0.00  0.00    +0.000 A 
ATOM     14  C   UNL     1      51.966   1.458  17.528  0.00  0.00    +0.000 A 
ATOM     15  C   UNL     1      50.710   1.766  17.063  0.00  0.00    +0.000 A 
ATOM     16  N   UNL     1      50.145   2.980  17.200  0.00  0.00    +0.000 NA
ENDBRANCH  10  11
ENDBRANCH   9  10
ENDBRANCH   6   9
ENDBRANCH   2   3
BRANCH   2  17
ATOM     17  N   UNL     1      46.970   6.392  12.202  0.00  0.00    +0.000 N 
ATOM     18  C   UNL     1      45.636   6.446  11.896  0.00  0.00    +0.000 C 
ATOM     19  O   UNL     1      45.024   7.502  11.777  0.00  0.00    +0.000 OA
ATOM     20  H   UNL     1      47.374   5.491  12.429  0.00  0.00    +0.000 HD
BRANCH  18  21
ATOM     21  C   UNL     1      44.993   5.145  11.654  0.00  0.00    +0.000 A 
ATOM     22  C   UNL     1      44.245   4.534  12.648  0.00  0.00    +0.000 A 
ATOM     23  S   UNL     1      43.517   3.071  12.149  0.00  0.00    +0.000 S 
ATOM     24  C   UNL     1      44.219   3.182  10.601  0.00  0.00    +0.000 A 
ATOM     25  N   UNL     1      43.993   2.234   9.654  0.00  0.00    +0.000 NA
ATOM     26  C   UNL     1      44.607   2.439   8.533  0.00  0.00    +0.000 A 
ATOM     27  N   UNL     1      45.441   3.500   8.258  0.00  0.00    +0.000 N 
ATOM     28  C   UNL     1      46.075   3.645   6.963  0.00  0.00    +0.000 C 
ATOM     29  C   UNL     1      45.684   4.489   9.201  0.00  0.00    +0.000 A 
ATOM     30  O   UNL     1      46.392   5.461   8.968  0.00  0.00    +0.000 OA
ATOM     31  C   UNL     1      45.000   4.311  10.470  0.00  0.00    +0.000 A 
ENDBRANCH  18  21
ENDBRANCH   2  17
TORSDOF 6
ENDMDL
MODEL 6
REMARK VINA RESULT:    -6.829      2.506      8.845
REMARK INTER + INTRA:         -10.239
REMARK INTER:                  -8.955
REMARK INTRA:                  -1.284
REMARK UNBOUND:                -1.015
REMARK  Name = 
REMARK  8 active torsions:
REMARK  status: ('A' for Active; 'I' for Inactive)
REMARK    1  A    between atoms: C_1  and  C_2
REMARK    2  A    between atoms: C_2  and  N_3
REMARK    3  A    between atoms: C_2  and  C_17
REMARK    4  A    between atoms: C_4  and  C_6
REMARK    5  A    between atoms: N_12  and  C_13
REMARK    6  A    between atoms: C_20  and  C_21
REMARK    7  A    between atoms: C_21  and  O_22
REMARK    8  A    between atoms: O_22  and  C_23
REMARK                            x       y       z     vdW  Elec       q    Type
REMARK                         _______ _______ _______ _____ _____    ______ ____
ROOT
ATOM      1  C   UNL     1      49.303   7.883  11.261  0.00  0.00    +0.000 C 
ATOM      2  C   UNL     1      48.147   8.023  12.251  0.00  0.00    +0.000 C 
ENDROOT
BRANCH   2   3
ATOM      3  C   UNL     1      48.647   8.075  13.691  0.00  0.00    +0.000 A 
ATOM      4  C   UNL     1      47.911   8.764  14.664  0.00  0.00    +0.000 A 
ATOM      5  C   UNL     1      48.318   8.766  16.003  0.00  0.00    +0.000 A 
ATOM      6  C   UNL     1      49.471   8.076  16.404  0.00  0.00    +0.000 A 
ATOM      7  C   UNL     1      50.209   7.385  15.435  0.00  0.00    +0.000 A 
ATOM      8  C   UNL     1      49.807   7.392  14.096  0.00  0.00    +0.000 A 
BRANCH   6   9
ATOM      9  C   UNL     1      49.881   8.034  17.859  0.00  0.00    +0.000 C 
BRANCH   9  10
ATOM     10  O   UNL     1      48.872   7.344  18.587  0.00  0.00    +0.000 OA
BRANCH  10  11
ATOM     11  C   UNL     1      48.832   5.994  18.303  0.00  0.00    +0.000 A 
ATOM     12  N   UNL     1      49.950   5.255  18.401  0.00  0.00    +0.000 NA
ATOM     13  C   UNL     1      49.812   3.943  18.125  0.00  0.00    +0.000 A 
ATOM     14  C   UNL     1      48.621   3.362  17.763  0.00  0.00    +0.000 A 
ATOM     15  C   UNL     1      47.547   4.216  17.682  0.00  0.00    +0.000 A 
ATOM     16  N   UNL     1      47.626   5.535  17.942  0.00  0.00    +0.000 NA
ENDBRANCH  10  11
ENDBRANCH   9  10
ENDBRANCH   6   9
ENDBRANCH   2   3
BRANCH   2  17
ATOM     17  N   UNL     1      47.209   6.926  12.099  0.00  0.00    +0.000 N 
ATOM     18  C   UNL     1      45.858   7.080  11.931  0.00  0.00    +0.000 C 
ATOM     19  O   UNL     1      45.328   8.175  11.785  0.00  0.00    +0.000 OA
ATOM     20  H   UNL     1      47.559   6.012  12.361  0.00  0.00    +0.000 HD
BRANCH  18  21
ATOM     21  C   UNL     1      45.086   5.829  11.874  0.00  0.00    +0.000 A 
ATOM     22  C   UNL     1      44.318   5.425  12.955  0.00  0.00    +0.000 A 
ATOM     23  S   UNL     1      43.436   3.990  12.664  0.00  0.00    +0.000 S 
ATOM     24  C   UNL     1      44.090   3.836  11.099  0.00  0.00    +0.000 A 
ATOM     25  N   UNL     1      43.740   2.804  10.287  0.00  0.00    +0.000 NA
ATOM     26  C   UNL     1      44.331   2.804   9.135  0.00  0.00    +0.000 A 
ATOM     27  N   UNL     1      45.254   3.735   8.707  0.00  0.00    +0.000 N 
ATOM     28  C   UNL     1      45.852   3.652   7.390  0.00  0.00    +0.000 C 
ATOM     29  C   UNL     1      45.623   4.805   9.510  0.00  0.00    +0.000 A 
ATOM     30  O   UNL     1      46.412   5.665   9.138  0.00  0.00    +0.000 OA
ATOM     31  C   UNL     1      44.971   4.857  10.806  0.00  0.00    +0.000 A 
ENDBRANCH  18  21
ENDBRANCH   2  17
TORSDOF 6
ENDMDL
MODEL 7
REMARK VINA RESULT:    -6.429      4.704      8.323
REMARK INTER + INTRA:          -9.699
REMARK INTER:                  -9.628
REMARK INTRA:                  -0.071
REMARK UNBOUND:                -1.015
REMARK  Name = 
REMARK  8 active torsions:
REMARK  status: ('A' for Active; 'I' for Inactive)
REMARK    1  A    between atoms: C_1  and  C_2
REMARK    2  A    between atoms: C_2  and  N_3
REMARK    3  A    between atoms: C_2  and  C_17
REMARK    4  A    between atoms: C_4  and  C_6
REMARK    5  A    between atoms: N_12  and  C_13
REMARK    6  A    between atoms: C_20  and  C_21
REMARK    7  A    between atoms: C_21  and  O_22
REMARK    8  A    between atoms: O_22  and  C_23
REMARK                            x       y       z     vdW  Elec       q    Type
REMARK                         _______ _______ _______ _____ _____    ______ ____
ROOT
ATOM      1  C   UNL     1      45.400   9.350  12.427  0.00  0.00    +0.000 C 
ATOM      2  C   UNL     1      46.351   8.279  12.961  0.00  0.00    +0.000 C 
ENDROOT
BRANCH   2   3
ATOM      3  C   UNL     1      47.774   8.494  12.458  0.00  0.00    +0.000 A 
ATOM      4  C   UNL     1      48.614   7.394  12.240  0.00  0.00    +0.000 A 
ATOM      5  C   UNL     1      49.900   7.566  11.713  0.00  0.00    +0.000 A 
ATOM      6  C   UNL     1      50.377   8.844  11.389  0.00  0.00    +0.000 A 
ATOM      7  C   UNL     1      49.541   9.946  11.604  0.00  0.00    +0.000 A 
ATOM      8  C   UNL     1      48.260   9.774  12.140  0.00  0.00    +0.000 A 
BRANCH   6   9
ATOM      9  C   UNL     1      51.746   9.025  10.771  0.00  0.00    +0.000 C 
BRANCH   9  10
ATOM     10  O   UNL     1      52.484   7.825  10.964  0.00  0.00    +0.000 OA
BRANCH  10  11
ATOM     11  C   UNL     1      52.896   7.251   9.779  0.00  0.00    +0.000 A 
ATOM     12  N   UNL     1      53.323   5.976   9.765  0.00  0.00    +0.000 NA
ATOM     13  C   UNL     1      53.686   5.492   8.560  0.00  0.00    +0.000 A 
ATOM     14  C   UNL     1      53.638   6.226   7.399  0.00  0.00    +0.000 A 
ATOM     15  C   UNL     1      53.199   7.520   7.536  0.00  0.00    +0.000 A 
ATOM     16  N   UNL     1      52.827   8.058   8.712  0.00  0.00    +0.000 NA
ENDBRANCH  10  11
ENDBRANCH   9  10
ENDBRANCH   6   9
ENDBRANCH   2   3
BRANCH   2  17
ATOM     17  N   UNL     1      45.893   6.955  12.581  0.00  0.00    +0.000 N 
ATOM     18  C   UNL     1      44.913   6.711  11.656  0.00  0.00    +0.000 C 
ATOM     19  O   UNL     1      44.403   7.597  10.978  0.00  0.00    +0.000 OA
ATOM     20  H   UNL     1      46.162   6.204  13.205  0.00  0.00    +0.000 HD
BRANCH  18  21
ATOM     21  C   UNL     1      44.553   5.295  11.481  0.00  0.00    +0.000 A 
ATOM     22  C   UNL     1      43.831   4.626  12.457  0.00  0.00    +0.000 A 
ATOM     23  S   UNL     1      43.445   3.016  12.034  0.00  0.00    +0.000 S 
ATOM     24  C   UNL     1      44.272   3.146  10.551  0.00  0.00    +0.000 A 
ATOM     25  N   UNL     1      44.327   2.104   9.680  0.00  0.00    +0.000 NA
ATOM     26  C   UNL     1      45.007   2.340   8.604  0.00  0.00    +0.000 A 
ATOM     27  N   UNL     1      45.653   3.520   8.306  0.00  0.00    +0.000 N 
ATOM     28  C   UNL     1      46.381   3.689   7.065  0.00  0.00    +0.000 C 
ATOM     29  C   UNL     1      45.607   4.605   9.171  0.00  0.00    +0.000 A 
ATOM     30  O   UNL     1      46.142   5.676   8.912  0.00  0.00    +0.000 OA
ATOM     31  C   UNL     1      44.839   4.393  10.385  0.00  0.00    +0.000 A 
ENDBRANCH  18  21
ENDBRANCH   2  17
TORSDOF 6
ENDMDL
MODEL 8
REMARK VINA RESULT:    -5.807      5.250      7.713
REMARK INTER + INTRA:          -8.858
REMARK INTER:                  -7.826
REMARK INTRA:                  -1.033
REMARK UNBOUND:                -1.015
REMARK  Name = 
REMARK  8 active torsions:
REMARK  status: ('A' for Active; 'I' for Inactive)
REMARK    1  A    between atoms: C_1  and  C_2
REMARK    2  A    between atoms: C_2  and  N_3
REMARK    3  A    between atoms: C_2  and  C_17
REMARK    4  A    between atoms: C_4  and  C_6
REMARK    5  A    between atoms: N_12  and  C_13
REMARK    6  A    between atoms: C_20  and  C_21
REMARK    7  A    between atoms: C_21  and  O_22
REMARK    8  A    between atoms: O_22  and  C_23
REMARK                            x       y       z     vdW  Elec       q    Type
REMARK                         _______ _______ _______ _____ _____    ______ ____
ROOT
ATOM      1  C   UNL     1      50.036  10.329  12.774  0.00  0.00    +0.000 C 
ATOM      2  C   UNL     1      49.944   9.159  11.795  0.00  0.00    +0.000 C 
ENDROOT
BRANCH   2   3
ATOM      3  C   UNL     1      48.800   8.217  12.156  0.00  0.00    +0.000 A 
ATOM      4  C   UNL     1      47.476   8.583  11.877  0.00  0.00    +0.000 A 
ATOM      5  C   UNL     1      46.419   7.704  12.138  0.00  0.00    +0.000 A 
ATOM      6  C   UNL     1      46.659   6.434  12.682  0.00  0.00    +0.000 A 
ATOM      7  C   UNL     1      47.980   6.064  12.962  0.00  0.00    +0.000 A 
ATOM      8  C   UNL     1      49.035   6.947  12.711  0.00  0.00    +0.000 A 
BRANCH   6   9
ATOM      9  C   UNL     1      45.522   5.464  12.915  0.00  0.00    +0.000 C 
BRANCH   9  10
ATOM     10  O   UNL     1      44.550   5.664  11.896  0.00  0.00    +0.000 OA
BRANCH  10  11
ATOM     11  C   UNL     1      44.635   4.732  10.882  0.00  0.00    +0.000 A 
ATOM     12  N   UNL     1      45.226   5.059   9.719  0.00  0.00    +0.000 NA
ATOM     13  C   UNL     1      45.282   4.080   8.794  0.00  0.00    +0.000 A 
ATOM     14  C   UNL     1      44.776   2.817   8.991  0.00  0.00    +0.000 A 
ATOM     15  C   UNL     1      44.183   2.601  10.211  0.00  0.00    +0.000 A 
ATOM     16  N   UNL     1      44.094   3.541  11.170  0.00  0.00    +0.000 NA
ENDBRANCH  10  11
ENDBRANCH   9  10
ENDBRANCH   6   9
ENDBRANCH   2   3
BRANCH   2  17
ATOM     17  N   UNL     1      51.193   8.421  11.763  0.00  0.00    +0.000 N 
ATOM     18  C   UNL     1      52.211   8.662  10.880  0.00  0.00    +0.000 C 
ATOM     19  O   UNL     1      52.203   9.605  10.096  0.00  0.00    +0.000 OA
ATOM     20  H   UNL     1      51.198   7.546  12.274  0.00  0.00    +0.000 HD
BRANCH  18  21
ATOM     21  C   UNL     1      53.357   7.743  10.976  0.00  0.00    +0.000 A 
ATOM     22  C   UNL     1      54.216   7.800  12.064  0.00  0.00    +0.000 A 
ATOM     23  S   UNL     1      55.435   6.603  12.030  0.00  0.00    +0.000 S 
ATOM     24  C   UNL     1      54.884   6.000  10.536  0.00  0.00    +0.000 A 
ATOM     25  N   UNL     1      55.493   4.947   9.932  0.00  0.00    +0.000 NA
ATOM     26  C   UNL     1      54.979   4.610   8.792  0.00  0.00    +0.000 A 
ATOM     27  N   UNL     1      53.912   5.231   8.180  0.00  0.00    +0.000 N 
ATOM     28  C   UNL     1      53.403   4.770   6.904  0.00  0.00    +0.000 C 
ATOM     29  C   UNL     1      53.263   6.304   8.776  0.00  0.00    +0.000 A 
ATOM     30  O   UNL     1      52.290   6.847   8.269  0.00  0.00    +0.000 OA
ATOM     31  C   UNL     1      53.794   6.704  10.067  0.00  0.00    +0.000 A 
ENDBRANCH  18  21
ENDBRANCH   2  17
TORSDOF 6
ENDMDL
MODEL 9
REMARK VINA RESULT:    -5.787      3.304      9.287
REMARK INTER + INTRA:          -8.832
REMARK INTER:                  -7.870
REMARK INTRA:                  -0.961
REMARK UNBOUND:                -1.015
REMARK  Name = 
REMARK  8 active torsions:
REMARK  status: ('A' for Active; 'I' for Inactive)
REMARK    1  A    between atoms: C_1  and  C_2
REMARK    2  A    between atoms: C_2  and  N_3
REMARK    3  A    between atoms: C_2  and  C_17
REMARK    4  A    between atoms: C_4  and  C_6
REMARK    5  A    between atoms: N_12  and  C_13
REMARK    6  A    between atoms: C_20  and  C_21
REMARK    7  A    between atoms: C_21  and  O_22
REMARK    8  A    between atoms: O_22  and  C_23
REMARK                            x       y       z     vdW  Elec       q    Type
REMARK                         _______ _______ _______ _____ _____    ______ ____
ROOT
ATOM      1  C   UNL     1      47.550   8.772  11.754  0.00  0.00    +0.000 C 
ATOM      2  C   UNL     1      46.825   8.151  12.948  0.00  0.00    +0.000 C 
ENDROOT
BRANCH   2   3
ATOM      3  C   UNL     1      47.761   7.968  14.137  0.00  0.00    +0.000 A 
ATOM      4  C   UNL     1      48.162   6.682  14.522  0.00  0.00    +0.000 A 
ATOM      5  C   UNL     1      49.074   6.497  15.568  0.00  0.00    +0.000 A 
ATOM      6  C   UNL     1      49.611   7.595  16.253  0.00  0.00    +0.000 A 
ATOM      7  C   UNL     1      49.215   8.883  15.872  0.00  0.00    +0.000 A 
ATOM      8  C   UNL     1      48.295   9.066  14.834  0.00  0.00    +0.000 A 
BRANCH   6   9
ATOM      9  C   UNL     1      50.637   7.398  17.347  0.00  0.00    +0.000 C 
BRANCH   9  10
ATOM     10  O   UNL     1      51.788   8.170  17.024  0.00  0.00    +0.000 OA
BRANCH  10  11
ATOM     11  C   UNL     1      52.816   7.411  16.505  0.00  0.00    +0.000 A 
ATOM     12  N   UNL     1      53.378   7.755  15.333  0.00  0.00    +0.000 NA
ATOM     13  C   UNL     1      54.389   6.968  14.914  0.00  0.00    +0.000 A 
ATOM     14  C   UNL     1      54.844   5.876  15.612  0.00  0.00    +0.000 A 
ATOM     15  C   UNL     1      54.186   5.611  16.789  0.00  0.00    +0.000 A 
ATOM     16  N   UNL     1      53.169   6.358  17.255  0.00  0.00    +0.000 NA
ENDBRANCH  10  11
ENDBRANCH   9  10
ENDBRANCH   6   9
ENDBRANCH   2   3
BRANCH   2  17
ATOM     17  N   UNL     1      46.243   6.874  12.583  0.00  0.00    +0.000 N 
ATOM     18  C   UNL     1      45.082   6.727  11.870  0.00  0.00    +0.000 C 
ATOM     19  O   UNL     1      44.481   7.676  11.378  0.00  0.00    +0.000 OA
ATOM     20  H   UNL     1      46.603   6.070  13.082  0.00  0.00    +0.000 HD
BRANCH  18  21
ATOM     21  C   UNL     1      44.634   5.339  11.676  0.00  0.00    +0.000 A 
ATOM     22  C   UNL     1      43.916   4.687  12.667  0.00  0.00    +0.000 A 
ATOM     23  S   UNL     1      43.420   3.113  12.222  0.00  0.00    +0.000 S 
ATOM     24  C   UNL     1      44.192   3.234  10.709  0.00  0.00    +0.000 A 
ATOM     25  N   UNL     1      44.151   2.215   9.812  0.00  0.00    +0.000 NA
ATOM     26  C   UNL     1      44.798   2.439   8.713  0.00  0.00    +0.000 A 
ATOM     27  N   UNL     1      45.499   3.589   8.416  0.00  0.00    +0.000 N 
ATOM     28  C   UNL     1      46.183   3.748   7.150  0.00  0.00    +0.000 C 
ATOM     29  C   UNL     1      45.551   4.652   9.308  0.00  0.00    +0.000 A 
ATOM     30  O   UNL     1      46.135   5.696   9.052  0.00  0.00    +0.000 OA
ATOM     31  C   UNL     1      44.822   4.451  10.548  0.00  0.00    +0.000 A 
ENDBRANCH  18  21
ENDBRANCH   2  17
TORSDOF 6
ENDMDL
