MODEL 1
REMARK VINA RESULT:    -7.981      0.000      0.000
REMARK INTER + INTRA:         -11.680
REMARK INTER:                 -11.247
REMARK INTRA:                  -0.433
REMARK UNBOUND:                -0.433
REMARK  Name = 
REMARK  11 active torsions:
REMARK  status: ('A' for Active; 'I' for Inactive)
REMARK    1  A    between atoms: C_1  and  C_2
REMARK    2  A    between atoms: C_2  and  C_3
REMARK    3  A    between atoms: C_2  and  C_4
REMARK    4  A    between atoms: C_2  and  C_5
REMARK    5  A    between atoms: C_5  and  N_6
REMARK    6  A    between atoms: C_5  and  C_7
REMARK    7  A    between atoms: C_10  and  C_11
REMARK    8  A    between atoms: C_11  and  N_12
REMARK    9  A    between atoms: N_12  and  C_13
REMARK   10  A    between atoms: C_16  and  C_17
REMARK   11  A    between atoms: C_21  and  N_22
REMARK                            x       y       z     vdW  Elec       q    Type
REMARK                         _______ _______ _______ _____ _____    ______ ____
ROOT
ATOM      1  N   UNL     1      43.738   4.843   9.784  0.00  0.00    +0.000 N 
ATOM      2  H   UNL     1      42.847   4.462   9.478  0.00  0.00    +0.000 HD
ENDROOT
BRANCH   1   3
ATOM      3  C   UNL     1      44.776   4.111   9.128  0.00  0.00    +0.000 A 
ATOM      4  N   UNL     1      45.603   4.727   8.250  0.00  0.00    +0.000 NA
ATOM      5  C   UNL     1      46.482   3.930   7.583  0.00  0.00    +0.000 A 
ATOM      6  C   UNL     1      46.521   2.559   7.752  0.00  0.00    +0.000 A 
ATOM      7  N   UNL     1      45.730   1.899   8.646  0.00  0.00    +0.000 NA
ATOM      8  C   UNL     1      44.876   2.697   9.331  0.00  0.00    +0.000 A 
BRANCH   6   9
ATOM      9  C   UNL     1      47.424   1.741   6.884  0.00  0.00    +0.000 C 
ATOM     10  N   UNL     1      48.550   2.371   6.413  0.00  0.00    +0.000 N 
ATOM     11  O   UNL     1      47.193   0.571   6.628  0.00  0.00    +0.000 OA
ATOM     12  H   UNL     1      48.743   3.332   6.667  0.00  0.00    +0.000 HD
ATOM     13  H   UNL     1      49.213   1.849   5.855  0.00  0.00    +0.000 HD
ENDBRANCH   6   9
BRANCH   8  14
ATOM     14  N   UNL     1      44.109   2.058  10.313  0.00  0.00    +0.000 N 
ATOM     15  H   UNL     1      43.794   1.168   9.939  0.00  0.00    +0.000 HD
ATOM     16  H   UNL     1      43.349   2.662  10.609  0.00  0.00    +0.000 HD
ENDBRANCH   8  14
ENDBRANCH   1   3
BRANCH   1  17
ATOM     17  C   UNL     1      43.887   4.856  11.237  0.00  0.00    +0.000 C 
BRANCH  17  21
ATOM     18  C   UNL     1      47.109   7.056  13.197  0.00  0.00    +0.000 A 
ATOM     19  C   UNL     1      46.321   7.657  12.199  0.00  0.00    +0.000 A 
ATOM     20  C   UNL     1      45.353   6.927  11.481  0.00  0.00    +0.000 A 
ATOM     21  C   UNL     1      45.135   5.568  11.742  0.00  0.00    +0.000 A 
ATOM     22  C   UNL     1      46.010   4.933  12.635  0.00  0.00    +0.000 A 
ATOM     23  C   UNL     1      46.971   5.667  13.357  0.00  0.00    +0.000 A 
BRANCH  18  24
ATOM     24  C   UNL     1      48.085   7.903  14.031  0.00  0.00    +0.000 C 
BRANCH  24  26
ATOM     25  C   UNL     1      49.278   9.886  12.898  0.00  0.00    +0.000 C 
ATOM     26  C   UNL     1      49.416   8.396  13.314  0.00  0.00    +0.000 C 
ATOM     27  C   UNL     1      49.753   7.591  12.042  0.00  0.00    +0.000 C 
ATOM     28  C   UNL     1      50.633   8.321  14.258  0.00  0.00    +0.000 C 
ENDBRANCH  24  26
BRANCH  24  29
ATOM     29  N   UNL     1      47.373   9.019  14.680  0.00  0.00    +0.000 NA
ATOM     30  H   UNL     1      46.613   9.328  14.078  0.00  0.00    +0.000 HD
ATOM     31  H   UNL     1      47.996   9.817  14.769  0.00  0.00    +0.000 HD
ENDBRANCH  24  29
ENDBRANCH  18  24
ENDBRANCH  17  21
ENDBRANCH   1  17
TORSDOF 8
ENDMDL
MODEL 2
REMARK VINA RESULT:    -7.119      2.118      2.985
REMARK INTER + INTRA:         -10.465
REMARK INTER:                  -9.949
REMARK INTRA:                  -0.516
REMARK UNBOUND:                -0.433
REMARK  Name = 
REMARK  11 active torsions:
REMARK  status: ('A' for Active; 'I' for Inactive)
REMARK    1  A    between atoms: C_1  and  C_2
REMARK    2  A    between atoms: C_2  and  C_3
REMARK    3  A    between atoms: C_2  and  C_4
REMARK    4  A    between atoms: C_2  and  C_5
REMARK    5  A    between atoms: C_5  and  N_6
REMARK    6  A    between atoms: C_5  and  C_7
REMARK    7  A    between atoms: C_10  and  C_11
REMARK    8  A    between atoms: C_11  and  N_12
REMARK    9  A    between atoms: N_12  and  C_13
REMARK   10  A    between atoms: C_16  and  C_17
REMARK   11  A    between atoms: C_21  and  N_22
REMARK                            x       y       z     vdW  Elec       q    Type
REMARK                         _______ _______ _______ _____ _____    ______ ____
ROOT
ATOM      1  N   UNL     1      44.256   5.195  10.125  0.00  0.00    +0.000 N 
ATOM      2  H   UNL     1      43.700   4.714  10.827  0.00  0.00    +0.000 HD
ENDROOT
BRANCH   1   3
ATOM      3  C   UNL     1      45.044   4.215   9.444  0.00  0.00    +0.000 A 
ATOM      4  N   UNL     1      45.840   4.572   8.409  0.00  0.00    +0.000 NA
ATOM      5  C   UNL     1      46.460   3.559   7.744  0.00  0.00    +0.000 A 
ATOM      6  C   UNL     1      46.273   2.229   8.069  0.00  0.00    +0.000 A 
ATOM      7  N   UNL     1      45.507   1.824   9.122  0.00  0.00    +0.000 NA
ATOM      8  C   UNL     1      44.913   2.835   9.801  0.00  0.00    +0.000 A 
BRANCH   6   9
ATOM      9  C   UNL     1      46.886   1.172   7.205  0.00  0.00    +0.000 C 
ATOM     10  N   UNL     1      46.804  -0.117   7.670  0.00  0.00    +0.000 N 
ATOM     11  O   UNL     1      47.407   1.434   6.133  0.00  0.00    +0.000 OA
ATOM     12  H   UNL     1      46.334  -0.317   8.544  0.00  0.00    +0.000 HD
ATOM     13  H   UNL     1      47.167  -0.872   7.102  0.00  0.00    +0.000 HD
ENDBRANCH   6   9
BRANCH   8  14
ATOM     14  N   UNL     1      44.185   2.455  10.936  0.00  0.00    +0.000 N 
ATOM     15  H   UNL     1      44.681   1.692  11.389  0.00  0.00    +0.000 HD
ATOM     16  H   UNL     1      43.233   2.217  10.676  0.00  0.00    +0.000 HD
ENDBRANCH   8  14
ENDBRANCH   1   3
BRANCH   1  17
ATOM     17  C   UNL     1      45.059   6.282  10.677  0.00  0.00    +0.000 C 
BRANCH  17  21
ATOM     18  C   UNL     1      47.355   5.662  14.339  0.00  0.00    +0.000 A 
ATOM     19  C   UNL     1      47.924   6.305  13.225  0.00  0.00    +0.000 A 
ATOM     20  C   UNL     1      47.234   6.413  12.001  0.00  0.00    +0.000 A 
ATOM     21  C   UNL     1      45.945   5.886  11.851  0.00  0.00    +0.000 A 
ATOM     22  C   UNL     1      45.430   5.125  12.912  0.00  0.00    +0.000 A 
ATOM     23  C   UNL     1      46.120   5.026  14.136  0.00  0.00    +0.000 A 
BRANCH  18  24
ATOM     24  C   UNL     1      48.093   5.650  15.688  0.00  0.00    +0.000 C 
BRANCH  24  26
ATOM     25  C   UNL     1      49.454   4.110  17.242  0.00  0.00    +0.000 C 
ATOM     26  C   UNL     1      48.099   4.284  16.502  0.00  0.00    +0.000 C 
ATOM     27  C   UNL     1      47.899   3.044  15.607  0.00  0.00    +0.000 C 
ATOM     28  C   UNL     1      47.006   4.264  17.589  0.00  0.00    +0.000 C 
ENDBRANCH  24  26
BRANCH  24  29
ATOM     29  N   UNL     1      49.454   6.197  15.536  0.00  0.00    +0.000 NA
ATOM     30  H   UNL     1      49.545   6.617  14.613  0.00  0.00    +0.000 HD
ATOM     31  H   UNL     1      50.132   5.440  15.563  0.00  0.00    +0.000 HD
ENDBRANCH  24  29
ENDBRANCH  18  24
ENDBRANCH  17  21
ENDBRANCH   1  17
TORSDOF 8
ENDMDL
MODEL 3
REMARK VINA RESULT:    -7.017      1.410      2.261
REMARK INTER + INTRA:         -10.321
REMARK INTER:                  -9.451
REMARK INTRA:                  -0.870
REMARK UNBOUND:                -0.433
REMARK  Name = 
REMARK  11 active torsions:
REMARK  status: ('A' for Active; 'I' for Inactive)
REMARK    1  A    between atoms: C_1  and  C_2
REMARK    2  A    between atoms: C_2  and  C_3
REMARK    3  A    between atoms: C_2  and  C_4
REMARK    4  A    between atoms: C_2  and  C_5
REMARK    5  A    between atoms: C_5  and  N_6
REMARK    6  A    between atoms: C_5  and  C_7
REMARK    7  A    between atoms: C_10  and  C_11
REMARK    8  A    between atoms: C_11  and  N_12
REMARK    9  A    between atoms: N_12  and  C_13
REMARK   10  A    between atoms: C_16  and  C_17
REMARK   11  A    between atoms: C_21  and  N_22
REMARK                            x       y       z     vdW  Elec       q    Type
REMARK                         _______ _______ _______ _____ _____    ______ ____
ROOT
ATOM      1  N   UNL     1      43.697   4.435  10.438  0.00  0.00    +0.000 N 
ATOM      2  H   UNL     1      42.707   4.308  10.244  0.00  0.00    +0.000 HD
ENDROOT
BRANCH   1   3
ATOM      3  C   UNL     1      44.425   3.539   9.594  0.00  0.00    +0.000 A 
ATOM      4  N   UNL     1      44.118   2.220   9.565  0.00  0.00    +0.000 NA
ATOM      5  C   UNL     1      44.938   1.423   8.827  0.00  0.00    +0.000 A 
ATOM      6  C   UNL     1      46.050   1.908   8.163  0.00  0.00    +0.000 A 
ATOM      7  N   UNL     1      46.379   3.231   8.138  0.00  0.00    +0.000 NA
ATOM      8  C   UNL     1      45.546   4.028   8.849  0.00  0.00    +0.000 A 
BRANCH   6   9
ATOM      9  C   UNL     1      46.973   0.946   7.485  0.00  0.00    +0.000 C 
ATOM     10  N   UNL     1      46.711  -0.388   7.678  0.00  0.00    +0.000 N 
ATOM     11  O   UNL     1      47.892   1.321   6.775  0.00  0.00    +0.000 OA
ATOM     12  H   UNL     1      45.921  -0.678   8.240  0.00  0.00    +0.000 HD
ATOM     13  H   UNL     1      47.283  -1.078   7.207  0.00  0.00    +0.000 HD
ENDBRANCH   6   9
BRANCH   8  14
ATOM     14  N   UNL     1      45.813   5.401   8.776  0.00  0.00    +0.000 N 
ATOM     15  H   UNL     1      45.222   5.799   8.051  0.00  0.00    +0.000 HD
ATOM     16  H   UNL     1      46.803   5.555   8.618  0.00  0.00    +0.000 HD
ENDBRANCH   8  14
ENDBRANCH   1   3
BRANCH   1  17
ATOM     17  C   UNL     1      44.029   4.276  11.851  0.00  0.00    +0.000 C 
BRANCH  17  21
ATOM     18  C   UNL     1      47.491   6.784  12.735  0.00  0.00    +0.000 A 
ATOM     19  C   UNL     1      47.390   5.479  13.248  0.00  0.00    +0.000 A 
ATOM     20  C   UNL     1      46.231   4.700  13.064  0.00  0.00    +0.000 A 
ATOM     21  C   UNL     1      45.132   5.199  12.352  0.00  0.00    +0.000 A 
ATOM     22  C   UNL     1      45.174   6.544  11.960  0.00  0.00    +0.000 A 
ATOM     23  C   UNL     1      46.337   7.318  12.139  0.00  0.00    +0.000 A 
BRANCH  18  24
ATOM     24  C   UNL     1      48.807   7.570  12.867  0.00  0.00    +0.000 C 
BRANCH  24  26
ATOM     25  C   UNL     1      47.822   8.765  14.926  0.00  0.00    +0.000 C 
ATOM     26  C   UNL     1      49.127   8.221  14.282  0.00  0.00    +0.000 C 
ATOM     27  C   UNL     1      50.124   9.395  14.198  0.00  0.00    +0.000 C 
ATOM     28  C   UNL     1      49.697   7.185  15.271  0.00  0.00    +0.000 C 
ENDBRANCH  24  26
BRANCH  24  29
ATOM     29  N   UNL     1      49.939   6.766  12.371  0.00  0.00    +0.000 NA
ATOM     30  H   UNL     1      50.788   7.327  12.400  0.00  0.00    +0.000 HD
ATOM     31  H   UNL     1      49.792   6.538  11.391  0.00  0.00    +0.000 HD
ENDBRANCH  24  29
ENDBRANCH  18  24
ENDBRANCH  17  21
ENDBRANCH   1  17
TORSDOF 8
ENDMDL
MODEL 4
REMARK VINA RESULT:    -6.630      4.238      7.788
REMARK INTER + INTRA:          -9.776
REMARK INTER:                  -8.990
REMARK INTRA:                  -0.787
REMARK UNBOUND:                -0.433
REMARK  Name = 
REMARK  11 active torsions:
REMARK  status: ('A' for Active; 'I' for Inactive)
REMARK    1  A    between atoms: C_1  and  C_2
REMARK    2  A    between atoms: C_2  and  C_3
REMARK    3  A    between atoms: C_2  and  C_4
REMARK    4  A    between atoms: C_2  and  C_5
REMARK    5  A    between atoms: C_5  and  N_6
REMARK    6  A    between atoms: C_5  and  C_7
REMARK    7  A    between atoms: C_10  and  C_11
REMARK    8  A    between atoms: C_11  and  N_12
REMARK    9  A    between atoms: N_12  and  C_13
REMARK   10  A    between atoms: C_16  and  C_17
REMARK   11  A    between atoms: C_21  and  N_22
REMARK                            x       y       z     vdW  Elec       q    Type
REMARK                         _______ _______ _______ _____ _____    ______ ____
ROOT
ATOM      1  N   UNL     1      48.469   7.306  16.347  0.00  0.00    +0.000 N 
ATOM      2  H   UNL     1      48.582   7.983  17.097  0.00  0.00    +0.000 HD
ENDROOT
BRANCH   1   3
ATOM      3  C   UNL     1      49.086   6.086  16.764  0.00  0.00    +0.000 A 
ATOM      4  N   UNL     1      50.336   6.091  17.287  0.00  0.00    +0.000 NA
ATOM      5  C   UNL     1      50.891   4.875  17.544  0.00  0.00    +0.000 A 
ATOM      6  C   UNL     1      50.245   3.686  17.260  0.00  0.00    +0.000 A 
ATOM      7  N   UNL     1      48.976   3.632  16.763  0.00  0.00    +0.000 NA
ATOM      8  C   UNL     1      48.414   4.842  16.535  0.00  0.00    +0.000 A 
BRANCH   6   9
ATOM      9  C   UNL     1      50.976   2.395  17.449  0.00  0.00    +0.000 C 
ATOM     10  N   UNL     1      52.054   2.424  18.300  0.00  0.00    +0.000 N 
ATOM     11  O   UNL     1      50.622   1.363  16.902  0.00  0.00    +0.000 OA
ATOM     12  H   UNL     1      52.309   3.282  18.773  0.00  0.00    +0.000 HD
ATOM     13  H   UNL     1      52.557   1.567  18.492  0.00  0.00    +0.000 HD
ENDBRANCH   6   9
BRANCH   8  14
ATOM     14  N   UNL     1      47.082   4.819  16.101  0.00  0.00    +0.000 N 
ATOM     15  H   UNL     1      46.838   5.751  15.779  0.00  0.00    +0.000 HD
ATOM     16  H   UNL     1      46.480   4.478  16.843  0.00  0.00    +0.000 HD
ENDBRANCH   8  14
ENDBRANCH   1   3
BRANCH   1  17
ATOM     17  C   UNL     1      48.973   7.786  15.063  0.00  0.00    +0.000 C 
BRANCH  17  21
ATOM     18  C   UNL     1      45.799   7.061  12.154  0.00  0.00    +0.000 A 
ATOM     19  C   UNL     1      46.956   6.263  12.180  0.00  0.00    +0.000 A 
ATOM     20  C   UNL     1      48.036   6.553  13.038  0.00  0.00    +0.000 A 
ATOM     21  C   UNL     1      47.991   7.652  13.906  0.00  0.00    +0.000 A 
ATOM     22  C   UNL     1      46.903   8.528  13.785  0.00  0.00    +0.000 A 
ATOM     23  C   UNL     1      45.822   8.230  12.932  0.00  0.00    +0.000 A 
BRANCH  18  24
ATOM     24  C   UNL     1      44.599   6.659  11.280  0.00  0.00    +0.000 C 
BRANCH  24  26
ATOM     25  C   UNL     1      42.316   5.574  11.779  0.00  0.00    +0.000 C 
ATOM     26  C   UNL     1      43.842   5.313  11.658  0.00  0.00    +0.000 C 
ATOM     27  C   UNL     1      44.314   4.708  12.996  0.00  0.00    +0.000 C 
ATOM     28  C   UNL     1      44.012   4.237  10.567  0.00  0.00    +0.000 C 
ENDBRANCH  24  26
BRANCH  24  29
ATOM     29  N   UNL     1      43.661   7.789  11.141  0.00  0.00    +0.000 NA
ATOM     30  H   UNL     1      43.006   7.779  11.920  0.00  0.00    +0.000 HD
ATOM     31  H   UNL     1      43.097   7.663  10.304  0.00  0.00    +0.000 HD
ENDBRANCH  24  29
ENDBRANCH  18  24
ENDBRANCH  17  21
ENDBRANCH   1  17
TORSDOF 8
ENDMDL
MODEL 5
REMARK VINA RESULT:    -6.605      1.501      1.990
REMARK INTER + INTRA:          -9.741
REMARK INTER:                  -9.522
REMARK INTRA:                  -0.219
REMARK UNBOUND:                -0.433
REMARK  Name = 
REMARK  11 active torsions:
REMARK  status: ('A' for Active; 'I' for Inactive)
REMARK    1  A    between atoms: C_1  and  C_2
REMARK    2  A    between atoms: C_2  and  C_3
REMARK    3  A    between atoms: C_2  and  C_4
REMARK    4  A    between atoms: C_2  and  C_5
REMARK    5  A    between atoms: C_5  and  N_6
REMARK    6  A    between atoms: C_5  and  C_7
REMARK    7  A    between atoms: C_10  and  C_11
REMARK    8  A    between atoms: C_11  and  N_12
REMARK    9  A    between atoms: N_12  and  C_13
REMARK   10  A    between atoms: C_16  and  C_17
REMARK   11  A    between atoms: C_21  and  N_22
REMARK                            x       y       z     vdW  Elec       q    Type
REMARK                         _______ _______ _______ _____ _____    ______ ____
ROOT
ATOM      1  N   UNL     1      42.695   4.831  11.656  0.00  0.00    +0.000 N 
ATOM      2  H   UNL     1      41.938   4.164  11.783  0.00  0.00    +0.000 HD
ENDROOT
BRANCH   1   3
ATOM      3  C   UNL     1      43.643   4.250  10.757  0.00  0.00    +0.000 A 
ATOM      4  N   UNL     1      44.208   4.997   9.778  0.00  0.00    +0.000 NA
ATOM      5  C   UNL     1      45.006   4.336   8.896  0.00  0.00    +0.000 A 
ATOM      6  C   UNL     1      45.213   2.970   8.957  0.00  0.00    +0.000 A 
ATOM      7  N   UNL     1      44.692   2.184   9.942  0.00  0.00    +0.000 NA
ATOM      8  C   UNL     1      43.921   2.848  10.836  0.00  0.00    +0.000 A 
BRANCH   6   9
ATOM      9  C   UNL     1      45.996   2.301   7.871  0.00  0.00    +0.000 C 
ATOM     10  N   UNL     1      46.240   3.050   6.746  0.00  0.00    +0.000 N 
ATOM     11  O   UNL     1      46.422   1.164   7.986  0.00  0.00    +0.000 OA
ATOM     12  H   UNL     1      45.910   4.006   6.686  0.00  0.00    +0.000 HD
ATOM     13  H   UNL     1      46.800   2.657   6.001  0.00  0.00    +0.000 HD
ENDBRANCH   6   9
BRANCH   8  14
ATOM     14  N   UNL     1      43.438   2.081  11.904  0.00  0.00    +0.000 N 
ATOM     15  H   UNL     1      43.267   2.704  12.689  0.00  0.00    +0.000 HD
ATOM     16  H   UNL     1      44.088   1.333  12.118  0.00  0.00    +0.000 HD
ENDBRANCH   8  14
ENDBRANCH   1   3
BRANCH   1  17
ATOM     17  C   UNL     1      43.298   5.259  12.915  0.00  0.00    +0.000 C 
BRANCH  17  21
ATOM     18  C   UNL     1      47.334   6.902  13.184  0.00  0.00    +0.000 A 
ATOM     19  C   UNL     1      46.272   7.664  12.664  0.00  0.00    +0.000 A 
ATOM     20  C   UNL     1      44.991   7.112  12.468  0.00  0.00    +0.000 A 
ATOM     21  C   UNL     1      44.726   5.775  12.793  0.00  0.00    +0.000 A 
ATOM     22  C   UNL     1      45.812   4.976  13.179  0.00  0.00    +0.000 A 
ATOM     23  C   UNL     1      47.089   5.533  13.381  0.00  0.00    +0.000 A 
BRANCH  18  24
ATOM     24  C   UNL     1      48.691   7.562  13.479  0.00  0.00    +0.000 C 
BRANCH  24  26
ATOM     25  C   UNL     1      48.051   8.992  15.524  0.00  0.00    +0.000 C 
ATOM     26  C   UNL     1      49.021   7.899  14.998  0.00  0.00    +0.000 C 
ATOM     27  C   UNL     1      50.458   8.418  15.205  0.00  0.00    +0.000 C 
ATOM     28  C   UNL     1      48.825   6.671  15.909  0.00  0.00    +0.000 C 
ENDBRANCH  24  26
BRANCH  24  29
ATOM     29  N   UNL     1      49.783   6.804  12.841  0.00  0.00    +0.000 NA
ATOM     30  H   UNL     1      49.387   6.039  12.298  0.00  0.00    +0.000 HD
ATOM     31  H   UNL     1      50.358   6.365  13.556  0.00  0.00    +0.000 HD
ENDBRANCH  24  29
ENDBRANCH  18  24
ENDBRANCH  17  21
ENDBRANCH   1  17
TORSDOF 8
ENDMDL
MODEL 6
REMARK VINA RESULT:    -6.267      2.985      4.735
REMARK INTER + INTRA:          -9.265
REMARK INTER:                  -8.423
REMARK INTRA:                  -0.842
REMARK UNBOUND:                -0.433
REMARK  Name = 
REMARK  11 active torsions:
REMARK  status: ('A' for Active; 'I' for Inactive)
REMARK    1  A    between atoms: C_1  and  C_2
REMARK    2  A    between atoms: C_2  and  C_3
REMARK    3  A    between atoms: C_2  and  C_4
REMARK    4  A    between atoms: C_2  and  C_5
REMARK    5  A    between atoms: C_5  and  N_6
REMARK    6  A    between atoms: C_5  and  C_7
REMARK    7  A    between atoms: C_10  and  C_11
REMARK    8  A    between atoms: C_11  and  N_12
REMARK    9  A    between atoms: N_12  and  C_13
REMARK   10  A    between atoms: C_16  and  C_17
REMARK   11  A    between atoms: C_21  and  N_22
REMARK                            x       y       z     vdW  Elec       q    Type
REMARK                         _______ _______ _______ _____ _____    ______ ____
ROOT
ATOM      1  N   UNL     1      44.930   8.020  12.758  0.00  0.00    +0.000 N 
ATOM      2  H   UNL     1      44.948   8.122  13.769  0.00  0.00    +0.000 HD
ENDROOT
BRANCH   1   3
ATOM      3  C   UNL     1      44.559   6.672  12.462  0.00  0.00    +0.000 A 
ATOM      4  N   UNL     1      45.210   5.636  13.043  0.00  0.00    +0.000 NA
ATOM      5  C   UNL     1      44.871   4.389  12.613  0.00  0.00    +0.000 A 
ATOM      6  C   UNL     1      43.941   4.173  11.613  0.00  0.00    +0.000 A 
ATOM      7  N   UNL     1      43.239   5.181  11.023  0.00  0.00    +0.000 NA
ATOM      8  C   UNL     1      43.555   6.419  11.472  0.00  0.00    +0.000 A 
BRANCH   6   9
ATOM      9  C   UNL     1      43.724   2.781  11.107  0.00  0.00    +0.000 C 
ATOM     10  N   UNL     1      44.561   2.361  10.102  0.00  0.00    +0.000 N 
ATOM     11  O   UNL     1      42.871   2.047  11.577  0.00  0.00    +0.000 OA
ATOM     12  H   UNL     1      45.287   2.974   9.752  0.00  0.00    +0.000 HD
ATOM     13  H   UNL     1      44.481   1.415   9.755  0.00  0.00    +0.000 HD
ENDBRANCH   6   9
BRANCH   8  14
ATOM     14  N   UNL     1      42.793   7.468  10.941  0.00  0.00    +0.000 N 
ATOM     15  H   UNL     1      42.257   7.883  11.698  0.00  0.00    +0.000 HD
ATOM     16  H   UNL     1      42.217   7.129  10.178  0.00  0.00    +0.000 HD
ENDBRANCH   8  14
ENDBRANCH   1   3
BRANCH   1  17
ATOM     17  C   UNL     1      46.183   8.414  12.120  0.00  0.00    +0.000 C 
BRANCH  17  21
ATOM     18  C   UNL     1      49.407   7.585  14.946  0.00  0.00    +0.000 A 
ATOM     19  C   UNL     1      48.451   8.583  15.207  0.00  0.00    +0.000 A 
ATOM     20  C   UNL     1      47.473   8.937  14.256  0.00  0.00    +0.000 A 
ATOM     21  C   UNL     1      47.414   8.298  13.011  0.00  0.00    +0.000 A 
ATOM     22  C   UNL     1      48.446   7.404  12.694  0.00  0.00    +0.000 A 
ATOM     23  C   UNL     1      49.417   7.046  13.649  0.00  0.00    +0.000 A 
BRANCH  18  24
ATOM     24  C   UNL     1      50.396   7.153  16.042  0.00  0.00    +0.000 C 
BRANCH  24  26
ATOM     25  C   UNL     1      49.564   6.750  18.447  0.00  0.00    +0.000 C 
ATOM     26  C   UNL     1      49.892   6.068  17.090  0.00  0.00    +0.000 C 
ATOM     27  C   UNL     1      50.932   4.964  17.367  0.00  0.00    +0.000 C 
ATOM     28  C   UNL     1      48.590   5.386  16.623  0.00  0.00    +0.000 C 
ENDBRANCH  24  26
BRANCH  24  29
ATOM     29  N   UNL     1      51.690   6.772  15.447  0.00  0.00    +0.000 NA
ATOM     30  H   UNL     1      51.876   5.791  15.646  0.00  0.00    +0.000 HD
ATOM     31  H   UNL     1      52.439   7.292  15.897  0.00  0.00    +0.000 HD
ENDBRANCH  24  29
ENDBRANCH  18  24
ENDBRANCH  17  21
ENDBRANCH   1  17
TORSDOF 8
ENDMDL
MODEL 7
REMARK VINA RESULT:    -6.261      4.686      6.245
REMARK INTER + INTRA:          -9.256
REMARK INTER:                  -8.610
REMARK INTRA:                  -0.646
REMARK UNBOUND:                -0.433
REMARK  Name = 
REMARK  11 active torsions:
REMARK  status: ('A' for Active; 'I' for Inactive)
REMARK    1  A    between atoms: C_1  and  C_2
REMARK    2  A    between atoms: C_2  and  C_3
REMARK    3  A    between atoms: C_2  and  C_4
REMARK    4  A    between atoms: C_2  and  C_5
REMARK    5  A    between atoms: C_5  and  N_6
REMARK    6  A    between atoms: C_5  and  C_7
REMARK    7  A    between atoms: C_10  and  C_11
REMARK    8  A    between atoms: C_11  and  N_12
REMARK    9  A    between atoms: N_12  and  C_13
REMARK   10  A    between atoms: C_16  and  C_17
REMARK   11  A    between atoms: C_21  and  N_22
REMARK                            x       y       z     vdW  Elec       q    Type
REMARK                         _______ _______ _______ _____ _____    ______ ____
ROOT
ATOM      1  N   UNL     1      46.902   5.227  14.453  0.00  0.00    +0.000 N 
ATOM      2  H   UNL     1      46.586   6.162  14.697  0.00  0.00    +0.000 HD
ENDROOT
BRANCH   1   3
ATOM      3  C   UNL     1      46.168   4.803  13.302  0.00  0.00    +0.000 A 
ATOM      4  N   UNL     1      45.646   3.555  13.241  0.00  0.00    +0.000 NA
ATOM      5  C   UNL     1      45.067   3.197  12.062  0.00  0.00    +0.000 A 
ATOM      6  C   UNL     1      45.034   4.035  10.963  0.00  0.00    +0.000 A 
ATOM      7  N   UNL     1      45.518   5.310  10.988  0.00  0.00    +0.000 NA
ATOM      8  C   UNL     1      46.068   5.675  12.170  0.00  0.00    +0.000 A 
BRANCH   6   9
ATOM      9  C   UNL     1      44.498   3.517   9.665  0.00  0.00    +0.000 C 
ATOM     10  N   UNL     1      44.084   4.460   8.758  0.00  0.00    +0.000 N 
ATOM     11  O   UNL     1      44.457   2.324   9.412  0.00  0.00    +0.000 OA
ATOM     12  H   UNL     1      44.162   5.446   8.973  0.00  0.00    +0.000 HD
ATOM     13  H   UNL     1      43.751   4.161   7.850  0.00  0.00    +0.000 HD
ENDBRANCH   6   9
BRANCH   8  14
ATOM     14  N   UNL     1      46.500   7.005  12.251  0.00  0.00    +0.000 N 
ATOM     15  H   UNL     1      46.763   7.309  11.318  0.00  0.00    +0.000 HD
ATOM     16  H   UNL     1      47.251   7.087  12.928  0.00  0.00    +0.000 HD
ENDBRANCH   8  14
ENDBRANCH   1   3
BRANCH   1  17
ATOM     17  C   UNL     1      46.808   4.283  15.563  0.00  0.00    +0.000 C 
BRANCH  17  21
ATOM     18  C   UNL     1      50.560   4.164  17.793  0.00  0.00    +0.000 A 
ATOM     19  C   UNL     1      49.661   3.082  17.825  0.00  0.00    +0.000 A 
ATOM     20  C   UNL     1      48.399   3.151  17.202  0.00  0.00    +0.000 A 
ATOM     21  C   UNL     1      47.995   4.305  16.518  0.00  0.00    +0.000 A 
ATOM     22  C   UNL     1      48.826   5.430  16.602  0.00  0.00    +0.000 A 
ATOM     23  C   UNL     1      50.091   5.356  17.219  0.00  0.00    +0.000 A 
BRANCH  18  24
ATOM     24  C   UNL     1      51.968   4.020  18.396  0.00  0.00    +0.000 C 
BRANCH  24  26
ATOM     25  C   UNL     1      52.867   6.167  19.501  0.00  0.00    +0.000 C 
ATOM     26  C   UNL     1      52.250   4.767  19.771  0.00  0.00    +0.000 C 
ATOM     27  C   UNL     1      53.225   4.001  20.688  0.00  0.00    +0.000 C 
ATOM     28  C   UNL     1      50.950   5.013  20.563  0.00  0.00    +0.000 C 
ENDBRANCH  24  26
BRANCH  24  29
ATOM     29  N   UNL     1      52.359   2.600  18.458  0.00  0.00    +0.000 NA
ATOM     30  H   UNL     1      52.890   2.436  19.311  0.00  0.00    +0.000 HD
ATOM     31  H   UNL     1      52.994   2.387  17.693  0.00  0.00    +0.000 HD
ENDBRANCH  24  29
ENDBRANCH  18  24
ENDBRANCH  17  21
ENDBRANCH   1  17
TORSDOF 8
ENDMDL
MODEL 8
REMARK VINA RESULT:    -6.101      2.923      4.701
REMARK INTER + INTRA:          -9.031
REMARK INTER:                  -8.414
REMARK INTRA:                  -0.616
REMARK UNBOUND:                -0.433
REMARK  Name = 
REMARK  11 active torsions:
REMARK  status: ('A' for Active; 'I' for Inactive)
REMARK    1  A    between atoms: C_1  and  C_2
REMARK    2  A    between atoms: C_2  and  C_3
REMARK    3  A    between atoms: C_2  and  C_4
REMARK    4  A    between atoms: C_2  and  C_5
REMARK    5  A    between atoms: C_5  and  N_6
REMARK    6  A    between atoms: C_5  and  C_7
REMARK    7  A    between atoms: C_10  and  C_11
REMARK    8  A    between atoms: C_11  and  N_12
REMARK    9  A    between atoms: N_12  and  C_13
REMARK   10  A    between atoms: C_16  and  C_17
REMARK   11  A    between atoms: C_21  and  N_22
REMARK                            x       y       z     vdW  Elec       q    Type
REMARK                         _______ _______ _______ _____ _____    ______ ____
ROOT
ATOM      1  N   UNL     1      45.406   7.648  13.152  0.00  0.00    +0.000 N 
ATOM      2  H   UNL     1      45.994   7.456  13.959  0.00  0.00    +0.000 HD
ENDROOT
BRANCH   1   3
ATOM      3  C   UNL     1      45.096   6.398  12.530  0.00  0.00    +0.000 A 
ATOM      4  N   UNL     1      44.373   6.361  11.386  0.00  0.00    +0.000 NA
ATOM      5  C   UNL     1      44.023   5.127  10.930  0.00  0.00    +0.000 A 
ATOM      6  C   UNL     1      44.349   3.964  11.603  0.00  0.00    +0.000 A 
ATOM      7  N   UNL     1      45.102   3.950  12.739  0.00  0.00    +0.000 NA
ATOM      8  C   UNL     1      45.474   5.177  13.176  0.00  0.00    +0.000 A 
BRANCH   6   9
ATOM      9  C   UNL     1      43.813   2.658  11.105  0.00  0.00    +0.000 C 
ATOM     10  N   UNL     1      44.425   2.132   9.994  0.00  0.00    +0.000 N 
ATOM     11  O   UNL     1      42.902   2.075  11.669  0.00  0.00    +0.000 OA
ATOM     12  H   UNL     1      45.204   2.614   9.563  0.00  0.00    +0.000 HD
ATOM     13  H   UNL     1      44.125   1.232   9.643  0.00  0.00    +0.000 HD
ENDBRANCH   6   9
BRANCH   8  14
ATOM     14  N   UNL     1      46.316   5.191  14.296  0.00  0.00    +0.000 N 
ATOM     15  H   UNL     1      45.781   4.868  15.098  0.00  0.00    +0.000 HD
ATOM     16  H   UNL     1      46.712   6.116  14.423  0.00  0.00    +0.000 HD
ENDBRANCH   8  14
ENDBRANCH   1   3
BRANCH   1  17
ATOM     17  C   UNL     1      45.999   8.609  12.227  0.00  0.00    +0.000 C 
BRANCH  17  21
ATOM     18  C   UNL     1      50.294   8.476  11.455  0.00  0.00    +0.000 A 
ATOM     19  C   UNL     1      49.597   7.332  11.881  0.00  0.00    +0.000 A 
ATOM     20  C   UNL     1      48.236   7.385  12.240  0.00  0.00    +0.000 A 
ATOM     21  C   UNL     1      47.521   8.589  12.179  0.00  0.00    +0.000 A 
ATOM     22  C   UNL     1      48.244   9.755  11.889  0.00  0.00    +0.000 A 
ATOM     23  C   UNL     1      49.603   9.696  11.523  0.00  0.00    +0.000 A 
BRANCH  18  24
ATOM     24  C   UNL     1      51.751   8.363  10.974  0.00  0.00    +0.000 C 
BRANCH  24  26
ATOM     25  C   UNL     1      52.502   8.696  13.416  0.00  0.00    +0.000 C 
ATOM     26  C   UNL     1      52.880   8.946  11.930  0.00  0.00    +0.000 C 
ATOM     27  C   UNL     1      53.095  10.463  11.758  0.00  0.00    +0.000 C 
ATOM     28  C   UNL     1      54.235   8.247  11.705  0.00  0.00    +0.000 C 
ENDBRANCH  24  26
BRANCH  24  29
ATOM     29  N   UNL     1      52.051   6.980  10.560  0.00  0.00    +0.000 NA
ATOM     30  H   UNL     1      51.193   6.433  10.572  0.00  0.00    +0.000 HD
ATOM     31  H   UNL     1      52.666   6.544  11.243  0.00  0.00    +0.000 HD
ENDBRANCH  24  29
ENDBRANCH  18  24
ENDBRANCH  17  21
ENDBRANCH   1  17
TORSDOF 8
ENDMDL
MODEL 9
REMARK VINA RESULT:    -6.101      4.446      8.259
REMARK INTER + INTRA:          -9.030
REMARK INTER:                  -8.142
REMARK INTRA:                  -0.888
REMARK UNBOUND:                -0.433
REMARK  Name = 
REMARK  11 active torsions:
REMARK  status: ('A' for Active; 'I' for Inactive)
REMARK    1  A    between atoms: C_1  and  C_2
REMARK    2  A    between atoms: C_2  and  C_3
REMARK    3  A    between atoms: C_2  and  C_4
REMARK    4  A    between atoms: C_2  and  C_5
REMARK    5  A    between atoms: C_5  and  N_6
REMARK    6  A    between atoms: C_5  and  C_7
REMARK    7  A    between atoms: C_10  and  C_11
REMARK    8  A    between atoms: C_11  and  N_12
REMARK    9  A    between atoms: N_12  and  C_13
REMARK   10  A    between atoms: C_16  and  C_17
REMARK   11  A    between atoms: C_21  and  N_22
REMARK                            x       y       z     vdW  Elec       q    Type
REMARK                         _______ _______ _______ _____ _____    ______ ____
ROOT
ATOM      1  N   UNL     1      50.139   7.560  14.098  0.00  0.00    +0.000 N 
ATOM      2  H   UNL     1      50.265   6.849  13.382  0.00  0.00    +0.000 HD
ENDROOT
BRANCH   1   3
ATOM      3  C   UNL     1      49.653   6.911  15.276  0.00  0.00    +0.000 A 
ATOM      4  N   UNL     1      48.729   5.924  15.186  0.00  0.00    +0.000 NA
ATOM      5  C   UNL     1      48.235   5.447  16.361  0.00  0.00    +0.000 A 
ATOM      6  C   UNL     1      48.616   5.953  17.590  0.00  0.00    +0.000 A 
ATOM      7  N   UNL     1      49.564   6.923  17.731  0.00  0.00    +0.000 NA
ATOM      8  C   UNL     1      50.076   7.377  16.562  0.00  0.00    +0.000 A 
BRANCH   6   9
ATOM      9  C   UNL     1      47.928   5.465  18.826  0.00  0.00    +0.000 C 
ATOM     10  N   UNL     1      46.556   5.524  18.822  0.00  0.00    +0.000 N 
ATOM     11  O   UNL     1      48.546   5.011  19.775  0.00  0.00    +0.000 OA
ATOM     12  H   UNL     1      46.061   5.869  18.009  0.00  0.00    +0.000 HD
ATOM     13  H   UNL     1      46.043   5.168  19.619  0.00  0.00    +0.000 HD
ENDBRANCH   6   9
BRANCH   8  14
ATOM     14  N   UNL     1      51.109   8.316  16.679  0.00  0.00    +0.000 N 
ATOM     15  H   UNL     1      51.894   7.866  17.142  0.00  0.00    +0.000 HD
ATOM     16  H   UNL     1      50.776   9.143  17.163  0.00  0.00    +0.000 HD
ENDBRANCH   8  14
ENDBRANCH   1   3
BRANCH   1  17
ATOM     17  C   UNL     1      49.285   8.663  13.666  0.00  0.00    +0.000 C 
BRANCH  17  21
ATOM     18  C   UNL     1      45.713   6.946  11.834  0.00  0.00    +0.000 A 
ATOM     19  C   UNL     1      46.988   6.731  11.281  0.00  0.00    +0.000 A 
ATOM     20  C   UNL     1      48.135   7.368  11.796  0.00  0.00    +0.000 A 
ATOM     21  C   UNL     1      48.046   8.240  12.888  0.00  0.00    +0.000 A 
ATOM     22  C   UNL     1      46.763   8.564  13.353  0.00  0.00    +0.000 A 
ATOM     23  C   UNL     1      45.620   7.920  12.841  0.00  0.00    +0.000 A 
BRANCH  18  24
ATOM     24  C   UNL     1      44.499   6.158  11.313  0.00  0.00    +0.000 C 
BRANCH  24  26
ATOM     25  C   UNL     1      42.969   5.019  13.045  0.00  0.00    +0.000 C 
ATOM     26  C   UNL     1      44.144   4.797  12.054  0.00  0.00    +0.000 C 
ATOM     27  C   UNL     1      45.325   4.220  12.861  0.00  0.00    +0.000 C 
ATOM     28  C   UNL     1      43.675   3.714  11.062  0.00  0.00    +0.000 C 
ENDBRANCH  24  26
BRANCH  24  29
ATOM     29  N   UNL     1      43.322   7.039  11.203  0.00  0.00    +0.000 NA
ATOM     30  H   UNL     1      42.496   6.538  11.523  0.00  0.00    +0.000 HD
ATOM     31  H   UNL     1      43.150   7.259  10.225  0.00  0.00    +0.000 HD
ENDBRANCH  24  29
ENDBRANCH  18  24
ENDBRANCH  17  21
ENDBRANCH   1  17
TORSDOF 8
ENDMDL
