MODEL 1
REMARK VINA RESULT:    -7.348      0.000      0.000
REMARK INTER + INTRA:          -9.919
REMARK INTER:                  -9.281
REMARK INTRA:                  -0.638
REMARK UNBOUND:                -0.638
REMARK  Name = 
REMARK  5 active torsions:
REMARK  status: ('A' for Active; 'I' for Inactive)
REMARK    1  A    between atoms: N_1  and  C_2
REMARK    2  A    between atoms: C_2  and  C_3
REMARK    3  A    between atoms: C_3  and  C_4
REMARK    4  A    between atoms: C_8  and  C_9
REMARK    5  A    between atoms: C_9  and  N_10
REMARK                            x       y       z     vdW  Elec       q    Type
REMARK                         _______ _______ _______ _____ _____    ______ ____
ROOT
ATOM      1  C   UNL     1      45.761   3.587   8.321  0.00  0.00    +0.000 A 
ATOM      2  C   UNL     1      45.456   2.237   8.552  0.00  0.00    +0.000 A 
ATOM      3  C   UNL     1      44.531   1.929   9.532  0.00  0.00    +0.000 A 
ATOM      4  N   UNL     1      43.883   2.849  10.268  0.00  0.00    +0.000 NA
ATOM      5  C   UNL     1      44.158   4.156  10.027  0.00  0.00    +0.000 A 
ATOM      6  C   UNL     1      45.102   4.558   9.079  0.00  0.00    +0.000 A 
ENDROOT
BRANCH   1   7
ATOM      7  C   UNL     1      46.737   3.970   7.231  0.00  0.00    +0.000 C 
BRANCH   7   8
ATOM      8  C   UNL     1      47.132   2.749   6.393  0.00  0.00    +0.000 C 
BRANCH   8   9
ATOM      9  N   UNL     1      48.576   2.524   6.415  0.00  0.00    +0.000 NA
ATOM     10  H   UNL     1      49.035   3.259   5.877  0.00  0.00    +0.000 HD
ATOM     11  H   UNL     1      48.798   1.648   5.936  0.00  0.00    +0.000 HD
ENDBRANCH   8   9
ENDBRANCH   7   8
ENDBRANCH   1   7
BRANCH   5  12
ATOM     12  C   UNL     1      43.443   5.162  10.877  0.00  0.00    +0.000 C 
BRANCH  12  13
ATOM     13  N   UNL     1      44.319   5.982  11.718  0.00  0.00    +0.000 N 
ATOM     14  C   UNL     1      44.569   7.306  11.417  0.00  0.00    +0.000 A 
ATOM     15  C   UNL     1      45.897   7.541  11.683  0.00  0.00    +0.000 A 
ATOM     16  C   UNL     1      46.408   6.409  12.375  0.00  0.00    +0.000 A 
ATOM     17  C   UNL     1      47.658   6.070  12.897  0.00  0.00    +0.000 A 
ATOM     18  N   UNL     1      47.825   4.935  13.620  0.00  0.00    +0.000 NA
ATOM     19  C   UNL     1      46.756   4.132  13.813  0.00  0.00    +0.000 A 
ATOM     20  C   UNL     1      45.494   4.336  13.272  0.00  0.00    +0.000 A 
ATOM     21  C   UNL     1      45.351   5.504  12.513  0.00  0.00    +0.000 A 
ENDBRANCH  12  13
ENDBRANCH   5  12
TORSDOF 5
ENDMDL
MODEL 2
REMARK VINA RESULT:    -7.337      1.540      5.933
REMARK INTER + INTRA:          -9.906
REMARK INTER:                  -9.599
REMARK INTRA:                  -0.307
REMARK UNBOUND:                -0.638
REMARK  Name = 
REMARK  5 active torsions:
REMARK  status: ('A' for Active; 'I' for Inactive)
REMARK    1  A    between atoms: N_1  and  C_2
REMARK    2  A    between atoms: C_2  and  C_3
REMARK    3  A    between atoms: C_3  and  C_4
REMARK    4  A    between atoms: C_8  and  C_9
REMARK    5  A    between atoms: C_9  and  N_10
REMARK                            x       y       z     vdW  Elec       q    Type
REMARK                         _______ _______ _______ _____ _____    ______ ____
ROOT
ATOM      1  C   UNL     1      45.005   5.039  12.788  0.00  0.00    +0.000 A 
ATOM      2  C   UNL     1      43.634   5.289  12.944  0.00  0.00    +0.000 A 
ATOM      3  C   UNL     1      42.854   5.413  11.809  0.00  0.00    +0.000 A 
ATOM      4  N   UNL     1      43.325   5.285  10.557  0.00  0.00    +0.000 NA
ATOM      5  C   UNL     1      44.646   5.017  10.405  0.00  0.00    +0.000 A 
ATOM      6  C   UNL     1      45.516   4.908  11.494  0.00  0.00    +0.000 A 
ENDROOT
BRANCH   1   7
ATOM      7  C   UNL     1      45.887   4.857  14.003  0.00  0.00    +0.000 C 
BRANCH   7   8
ATOM      8  C   UNL     1      47.070   3.935  13.690  0.00  0.00    +0.000 C 
BRANCH   8   9
ATOM      9  N   UNL     1      47.464   3.148  14.856  0.00  0.00    +0.000 NA
ATOM     10  H   UNL     1      47.762   2.222  14.549  0.00  0.00    +0.000 HD
ATOM     11  H   UNL     1      46.655   2.994  15.461  0.00  0.00    +0.000 HD
ENDBRANCH   8   9
ENDBRANCH   7   8
ENDBRANCH   1   7
BRANCH   5  12
ATOM     12  C   UNL     1      45.154   4.905   9.000  0.00  0.00    +0.000 C 
BRANCH  12  13
ATOM     13  N   UNL     1      45.078   3.558   8.429  0.00  0.00    +0.000 N 
ATOM     14  C   UNL     1      44.415   2.538   9.083  0.00  0.00    +0.000 A 
ATOM     15  C   UNL     1      45.159   1.394   8.916  0.00  0.00    +0.000 A 
ATOM     16  C   UNL     1      46.169   1.670   7.955  0.00  0.00    +0.000 A 
ATOM     17  C   UNL     1      47.202   0.921   7.386  0.00  0.00    +0.000 A 
ATOM     18  N   UNL     1      47.962   1.433   6.386  0.00  0.00    +0.000 NA
ATOM     19  C   UNL     1      47.706   2.690   5.961  0.00  0.00    +0.000 A 
ATOM     20  C   UNL     1      46.761   3.544   6.512  0.00  0.00    +0.000 A 
ATOM     21  C   UNL     1      46.000   3.000   7.556  0.00  0.00    +0.000 A 
ENDBRANCH  12  13
ENDBRANCH   5  12
TORSDOF 5
ENDMDL
MODEL 3
REMARK VINA RESULT:    -6.362      1.386      2.727
REMARK INTER + INTRA:          -8.674
REMARK INTER:                  -8.340
REMARK INTRA:                  -0.334
REMARK UNBOUND:                -0.638
REMARK  Name = 
REMARK  5 active torsions:
REMARK  status: ('A' for Active; 'I' for Inactive)
REMARK    1  A    between atoms: N_1  and  C_2
REMARK    2  A    between atoms: C_2  and  C_3
REMARK    3  A    between atoms: C_3  and  C_4
REMARK    4  A    between atoms: C_8  and  C_9
REMARK    5  A    between atoms: C_9  and  N_10
REMARK                            x       y       z     vdW  Elec       q    Type
REMARK                         _______ _______ _______ _____ _____    ______ ____
ROOT
ATOM      1  C   UNL     1      45.813   3.299   7.972  0.00  0.00    +0.000 A 
ATOM      2  C   UNL     1      45.327   2.016   8.263  0.00  0.00    +0.000 A 
ATOM      3  C   UNL     1      44.463   1.866   9.331  0.00  0.00    +0.000 A 
ATOM      4  N   UNL     1      44.036   2.883  10.100  0.00  0.00    +0.000 NA
ATOM      5  C   UNL     1      44.484   4.129   9.802  0.00  0.00    +0.000 A 
ATOM      6  C   UNL     1      45.386   4.370   8.762  0.00  0.00    +0.000 A 
ENDROOT
BRANCH   1   7
ATOM      7  C   UNL     1      46.729   3.514   6.787  0.00  0.00    +0.000 C 
BRANCH   7   8
ATOM      8  C   UNL     1      47.891   2.514   6.802  0.00  0.00    +0.000 C 
BRANCH   8   9
ATOM      9  N   UNL     1      48.382   2.239   5.455  0.00  0.00    +0.000 NA
ATOM     10  H   UNL     1      48.186   3.043   4.858  0.00  0.00    +0.000 HD
ATOM     11  H   UNL     1      47.864   1.457   5.048  0.00  0.00    +0.000 HD
ENDBRANCH   8   9
ENDBRANCH   7   8
ENDBRANCH   1   7
BRANCH   5  12
ATOM     12  C   UNL     1      44.016   5.243  10.689  0.00  0.00    +0.000 C 
BRANCH  12  13
ATOM     13  N   UNL     1      45.075   6.151  11.139  0.00  0.00    +0.000 N 
ATOM     14  C   UNL     1      46.130   5.698  11.905  0.00  0.00    +0.000 A 
ATOM     15  C   UNL     1      46.394   6.664  12.848  0.00  0.00    +0.000 A 
ATOM     16  C   UNL     1      45.642   7.820  12.506  0.00  0.00    +0.000 A 
ATOM     17  C   UNL     1      45.500   9.090  13.069  0.00  0.00    +0.000 A 
ATOM     18  N   UNL     1      44.775  10.051  12.444  0.00  0.00    +0.000 NA
ATOM     19  C   UNL     1      44.182   9.747  11.268  0.00  0.00    +0.000 A 
ATOM     20  C   UNL     1      44.195   8.497  10.665  0.00  0.00    +0.000 A 
ATOM     21  C   UNL     1      44.933   7.516  11.339  0.00  0.00    +0.000 A 
ENDBRANCH  12  13
ENDBRANCH   5  12
TORSDOF 5
ENDMDL
MODEL 4
REMARK VINA RESULT:    -6.052      1.733      2.525
REMARK INTER + INTRA:          -8.282
REMARK INTER:                  -8.039
REMARK INTRA:                  -0.243
REMARK UNBOUND:                -0.638
REMARK  Name = 
REMARK  5 active torsions:
REMARK  status: ('A' for Active; 'I' for Inactive)
REMARK    1  A    between atoms: N_1  and  C_2
REMARK    2  A    between atoms: C_2  and  C_3
REMARK    3  A    between atoms: C_3  and  C_4
REMARK    4  A    between atoms: C_8  and  C_9
REMARK    5  A    between atoms: C_9  and  N_10
REMARK                            x       y       z     vdW  Elec       q    Type
REMARK                         _______ _______ _______ _____ _____    ______ ____
ROOT
ATOM      1  C   UNL     1      45.744   3.373   8.083  0.00  0.00    +0.000 A 
ATOM      2  C   UNL     1      44.787   2.480   8.587  0.00  0.00    +0.000 A 
ATOM      3  C   UNL     1      44.150   2.797   9.772  0.00  0.00    +0.000 A 
ATOM      4  N   UNL     1      44.375   3.926  10.466  0.00  0.00    +0.000 NA
ATOM      5  C   UNL     1      45.282   4.803   9.966  0.00  0.00    +0.000 A 
ATOM      6  C   UNL     1      45.997   4.550   8.792  0.00  0.00    +0.000 A 
ENDROOT
BRANCH   1   7
ATOM      7  C   UNL     1      46.435   3.084   6.768  0.00  0.00    +0.000 C 
BRANCH   7   8
ATOM      8  C   UNL     1      47.341   1.853   6.882  0.00  0.00    +0.000 C 
BRANCH   8   9
ATOM      9  N   UNL     1      48.276   1.766   5.763  0.00  0.00    +0.000 NA
ATOM     10  H   UNL     1      49.005   2.469   5.882  0.00  0.00    +0.000 HD
ATOM     11  H   UNL     1      47.798   2.007   4.891  0.00  0.00    +0.000 HD
ENDBRANCH   8   9
ENDBRANCH   7   8
ENDBRANCH   1   7
BRANCH   5  12
ATOM     12  C   UNL     1      45.535   6.041  10.770  0.00  0.00    +0.000 C 
BRANCH  12  13
ATOM     13  N   UNL     1      46.551   5.893  11.815  0.00  0.00    +0.000 N 
ATOM     14  C   UNL     1      46.349   5.064  12.900  0.00  0.00    +0.000 A 
ATOM     15  C   UNL     1      46.862   5.703  14.004  0.00  0.00    +0.000 A 
ATOM     16  C   UNL     1      47.593   6.834  13.549  0.00  0.00    +0.000 A 
ATOM     17  C   UNL     1      48.322   7.842  14.185  0.00  0.00    +0.000 A 
ATOM     18  N   UNL     1      49.022   8.754  13.465  0.00  0.00    +0.000 NA
ATOM     19  C   UNL     1      48.987   8.673  12.117  0.00  0.00    +0.000 A 
ATOM     20  C   UNL     1      48.232   7.764  11.389  0.00  0.00    +0.000 A 
ATOM     21  C   UNL     1      47.503   6.844  12.154  0.00  0.00    +0.000 A 
ENDBRANCH  12  13
ENDBRANCH   5  12
TORSDOF 5
ENDMDL
MODEL 5
REMARK VINA RESULT:    -5.846      2.101      3.479
REMARK INTER + INTRA:          -8.022
REMARK INTER:                  -7.523
REMARK INTRA:                  -0.500
REMARK UNBOUND:                -0.638
REMARK  Name = 
REMARK  5 active torsions:
REMARK  status: ('A' for Active; 'I' for Inactive)
REMARK    1  A    between atoms: N_1  and  C_2
REMARK    2  A    between atoms: C_2  and  C_3
REMARK    3  A    between atoms: C_3  and  C_4
REMARK    4  A    between atoms: C_8  and  C_9
REMARK    5  A    between atoms: C_9  and  N_10
REMARK                            x       y       z     vdW  Elec       q    Type
REMARK                         _______ _______ _______ _____ _____    ______ ____
ROOT
ATOM      1  C   UNL     1      44.564   3.868  10.053  0.00  0.00    +0.000 A 
ATOM      2  C   UNL     1      43.790   2.900  10.709  0.00  0.00    +0.000 A 
ATOM      3  C   UNL     1      43.760   2.906  12.090  0.00  0.00    +0.000 A 
ATOM      4  N   UNL     1      44.413   3.802  12.851  0.00  0.00    +0.000 NA
ATOM      5  C   UNL     1      45.142   4.755  12.217  0.00  0.00    +0.000 A 
ATOM      6  C   UNL     1      45.256   4.805  10.825  0.00  0.00    +0.000 A 
ENDROOT
BRANCH   1   7
ATOM      7  C   UNL     1      44.593   3.922   8.541  0.00  0.00    +0.000 C 
BRANCH   7   8
ATOM      8  C   UNL     1      45.896   3.330   7.994  0.00  0.00    +0.000 C 
BRANCH   8   9
ATOM      9  N   UNL     1      46.680   4.329   7.271  0.00  0.00    +0.000 NA
ATOM     10  H   UNL     1      46.759   5.169   7.845  0.00  0.00    +0.000 HD
ATOM     11  H   UNL     1      46.184   4.615   6.425  0.00  0.00    +0.000 HD
ENDBRANCH   8   9
ENDBRANCH   7   8
ENDBRANCH   1   7
BRANCH   5  12
ATOM     12  C   UNL     1      45.882   5.726  13.086  0.00  0.00    +0.000 C 
BRANCH  12  13
ATOM     13  N   UNL     1      46.594   6.778  12.356  0.00  0.00    +0.000 N 
ATOM     14  C   UNL     1      47.971   6.867  12.387  0.00  0.00    +0.000 A 
ATOM     15  C   UNL     1      48.293   8.202  12.460  0.00  0.00    +0.000 A 
ATOM     16  C   UNL     1      47.103   8.947  12.237  0.00  0.00    +0.000 A 
ATOM     17  C   UNL     1      46.803  10.310  12.189  0.00  0.00    +0.000 A 
ATOM     18  N   UNL     1      45.564  10.738  11.838  0.00  0.00    +0.000 NA
ATOM     19  C   UNL     1      44.622   9.813  11.549  0.00  0.00    +0.000 A 
ATOM     20  C   UNL     1      44.794   8.439  11.644  0.00  0.00    +0.000 A 
ATOM     21  C   UNL     1      46.076   8.022  12.027  0.00  0.00    +0.000 A 
ENDBRANCH  12  13
ENDBRANCH   5  12
TORSDOF 5
ENDMDL
MODEL 6
REMARK VINA RESULT:    -5.509      2.053      5.955
REMARK INTER + INTRA:          -7.596
REMARK INTER:                  -7.218
REMARK INTRA:                  -0.378
REMARK UNBOUND:                -0.638
REMARK  Name = 
REMARK  5 active torsions:
REMARK  status: ('A' for Active; 'I' for Inactive)
REMARK    1  A    between atoms: N_1  and  C_2
REMARK    2  A    between atoms: C_2  and  C_3
REMARK    3  A    between atoms: C_3  and  C_4
REMARK    4  A    between atoms: C_8  and  C_9
REMARK    5  A    between atoms: C_9  and  N_10
REMARK                            x       y       z     vdW  Elec       q    Type
REMARK                         _______ _______ _______ _____ _____    ______ ____
ROOT
ATOM      1  C   UNL     1      45.864   8.917  12.308  0.00  0.00    +0.000 A 
ATOM      2  C   UNL     1      47.248   9.046  12.118  0.00  0.00    +0.000 A 
ATOM      3  C   UNL     1      48.044   7.930  12.295  0.00  0.00    +0.000 A 
ATOM      4  N   UNL     1      47.570   6.714  12.617  0.00  0.00    +0.000 NA
ATOM      5  C   UNL     1      46.228   6.582  12.775  0.00  0.00    +0.000 A 
ATOM      6  C   UNL     1      45.352   7.663  12.648  0.00  0.00    +0.000 A 
ENDROOT
BRANCH   1   7
ATOM      7  C   UNL     1      44.953  10.104  12.085  0.00  0.00    +0.000 C 
BRANCH   7   8
ATOM      8  C   UNL     1      44.001   9.854  10.911  0.00  0.00    +0.000 C 
BRANCH   8   9
ATOM      9  N   UNL     1      44.081  10.921   9.915  0.00  0.00    +0.000 NA
ATOM     10  H   UNL     1      44.932  10.799   9.365  0.00  0.00    +0.000 HD
ATOM     11  H   UNL     1      44.179  11.825  10.382  0.00  0.00    +0.000 HD
ENDBRANCH   8   9
ENDBRANCH   7   8
ENDBRANCH   1   7
BRANCH   5  12
ATOM     12  C   UNL     1      45.726   5.224  13.159  0.00  0.00    +0.000 C 
BRANCH  12  13
ATOM     13  N   UNL     1      44.685   4.686  12.278  0.00  0.00    +0.000 N 
ATOM     14  C   UNL     1      43.675   3.883  12.769  0.00  0.00    +0.000 A 
ATOM     15  C   UNL     1      43.453   2.894  11.840  0.00  0.00    +0.000 A 
ATOM     16  C   UNL     1      44.177   3.232  10.664  0.00  0.00    +0.000 A 
ATOM     17  C   UNL     1      44.338   2.631   9.414  0.00  0.00    +0.000 A 
ATOM     18  N   UNL     1      45.021   3.258   8.424  0.00  0.00    +0.000 NA
ATOM     19  C   UNL     1      45.554   4.473   8.680  0.00  0.00    +0.000 A 
ATOM     20  C   UNL     1      45.521   5.119   9.907  0.00  0.00    +0.000 A 
ATOM     21  C   UNL     1      44.826   4.444  10.920  0.00  0.00    +0.000 A 
ENDBRANCH  12  13
ENDBRANCH   5  12
TORSDOF 5
ENDMDL
MODEL 7
REMARK VINA RESULT:    -5.504      1.922      2.683
REMARK INTER + INTRA:          -7.591
REMARK INTER:                  -7.192
REMARK INTRA:                  -0.399
REMARK UNBOUND:                -0.638
REMARK  Name = 
REMARK  5 active torsions:
REMARK  status: ('A' for Active; 'I' for Inactive)
REMARK    1  A    between atoms: N_1  and  C_2
REMARK    2  A    between atoms: C_2  and  C_3
REMARK    3  A    between atoms: C_3  and  C_4
REMARK    4  A    between atoms: C_8  and  C_9
REMARK    5  A    between atoms: C_9  and  N_10
REMARK                            x       y       z     vdW  Elec       q    Type
REMARK                         _______ _______ _______ _____ _____    ______ ____
ROOT
ATOM      1  C   UNL     1      44.474   2.930  10.166  0.00  0.00    +0.000 A 
ATOM      2  C   UNL     1      43.565   2.821  11.228  0.00  0.00    +0.000 A 
ATOM      3  C   UNL     1      43.451   3.879  12.109  0.00  0.00    +0.000 A 
ATOM      4  N   UNL     1      44.146   5.025  12.000  0.00  0.00    +0.000 NA
ATOM      5  C   UNL     1      45.007   5.142  10.958  0.00  0.00    +0.000 A 
ATOM      6  C   UNL     1      45.211   4.111  10.038  0.00  0.00    +0.000 A 
ENDROOT
BRANCH   1   7
ATOM      7  C   UNL     1      44.601   1.811   9.156  0.00  0.00    +0.000 C 
BRANCH   7   8
ATOM      8  C   UNL     1      45.917   1.919   8.378  0.00  0.00    +0.000 C 
BRANCH   8   9
ATOM      9  N   UNL     1      46.440   0.603   8.019  0.00  0.00    +0.000 NA
ATOM     10  H   UNL     1      47.428   0.558   8.269  0.00  0.00    +0.000 HD
ATOM     11  H   UNL     1      46.404   0.480   7.004  0.00  0.00    +0.000 HD
ENDBRANCH   8   9
ENDBRANCH   7   8
ENDBRANCH   1   7
BRANCH   5  12
ATOM     12  C   UNL     1      45.790   6.417  10.872  0.00  0.00    +0.000 C 
BRANCH  12  13
ATOM     13  N   UNL     1      45.739   7.247  12.078  0.00  0.00    +0.000 N 
ATOM     14  C   UNL     1      45.081   8.461  12.086  0.00  0.00    +0.000 A 
ATOM     15  C   UNL     1      45.842   9.333  12.829  0.00  0.00    +0.000 A 
ATOM     16  C   UNL     1      46.860   8.579  13.473  0.00  0.00    +0.000 A 
ATOM     17  C   UNL     1      47.909   8.900  14.338  0.00  0.00    +0.000 A 
ATOM     18  N   UNL     1      48.675   7.928  14.893  0.00  0.00    +0.000 NA
ATOM     19  C   UNL     1      48.408   6.641  14.580  0.00  0.00    +0.000 A 
ATOM     20  C   UNL     1      47.444   6.222  13.673  0.00  0.00    +0.000 A 
ATOM     21  C   UNL     1      46.679   7.244  13.098  0.00  0.00    +0.000 A 
ENDBRANCH  12  13
ENDBRANCH   5  12
TORSDOF 5
ENDMDL
MODEL 8
REMARK VINA RESULT:    -5.356      2.110      3.439
REMARK INTER + INTRA:          -7.403
REMARK INTER:                  -7.196
REMARK INTRA:                  -0.207
REMARK UNBOUND:                -0.638
REMARK  Name = 
REMARK  5 active torsions:
REMARK  status: ('A' for Active; 'I' for Inactive)
REMARK    1  A    between atoms: N_1  and  C_2
REMARK    2  A    between atoms: C_2  and  C_3
REMARK    3  A    between atoms: C_3  and  C_4
REMARK    4  A    between atoms: C_8  and  C_9
REMARK    5  A    between atoms: C_9  and  N_10
REMARK                            x       y       z     vdW  Elec       q    Type
REMARK                         _______ _______ _______ _____ _____    ______ ____
ROOT
ATOM      1  C   UNL     1      44.403   3.058  10.350  0.00  0.00    +0.000 A 
ATOM      2  C   UNL     1      43.478   2.761  11.361  0.00  0.00    +0.000 A 
ATOM      3  C   UNL     1      43.388   3.615  12.443  0.00  0.00    +0.000 A 
ATOM      4  N   UNL     1      44.120   4.734  12.579  0.00  0.00    +0.000 NA
ATOM      5  C   UNL     1      44.998   5.037  11.589  0.00  0.00    +0.000 A 
ATOM      6  C   UNL     1      45.179   4.213  10.475  0.00  0.00    +0.000 A 
ENDROOT
BRANCH   1   7
ATOM      7  C   UNL     1      44.506   2.171   9.129  0.00  0.00    +0.000 C 
BRANCH   7   8
ATOM      8  C   UNL     1      45.931   2.173   8.566  0.00  0.00    +0.000 C 
BRANCH   8   9
ATOM      9  N   UNL     1      46.338   0.842   8.122  0.00  0.00    +0.000 NA
ATOM     10  H   UNL     1      46.614   0.888   7.141  0.00  0.00    +0.000 HD
ATOM     11  H   UNL     1      45.539   0.205   8.156  0.00  0.00    +0.000 HD
ENDBRANCH   8   9
ENDBRANCH   7   8
ENDBRANCH   1   7
BRANCH   5  12
ATOM     12  C   UNL     1      45.821   6.274  11.775  0.00  0.00    +0.000 C 
BRANCH  12  13
ATOM     13  N   UNL     1      47.075   6.069  12.505  0.00  0.00    +0.000 N 
ATOM     14  C   UNL     1      47.109   5.352  13.685  0.00  0.00    +0.000 A 
ATOM     15  C   UNL     1      47.984   5.996  14.528  0.00  0.00    +0.000 A 
ATOM     16  C   UNL     1      48.667   6.986  13.771  0.00  0.00    +0.000 A 
ATOM     17  C   UNL     1      49.650   7.932  14.069  0.00  0.00    +0.000 A 
ATOM     18  N   UNL     1      50.204   8.691  13.090  0.00  0.00    +0.000 NA
ATOM     19  C   UNL     1      49.773   8.520  11.821  0.00  0.00    +0.000 A 
ATOM     20  C   UNL     1      48.748   7.668  11.432  0.00  0.00    +0.000 A 
ATOM     21  C   UNL     1      48.178   6.908  12.463  0.00  0.00    +0.000 A 
ENDBRANCH  12  13
ENDBRANCH   5  12
TORSDOF 5
ENDMDL
MODEL 9
REMARK VINA RESULT:    -5.277      3.287      5.604
REMARK INTER + INTRA:          -7.303
REMARK INTER:                  -6.887
REMARK INTRA:                  -0.416
REMARK UNBOUND:                -0.638
REMARK  Name = 
REMARK  5 active torsions:
REMARK  status: ('A' for Active; 'I' for Inactive)
REMARK    1  A    between atoms: N_1  and  C_2
REMARK    2  A    between atoms: C_2  and  C_3
REMARK    3  A    between atoms: C_3  and  C_4
REMARK    4  A    between atoms: C_8  and  C_9
REMARK    5  A    between atoms: C_9  and  N_10
REMARK                            x       y       z     vdW  Elec       q    Type
REMARK                         _______ _______ _______ _____ _____    ______ ____
ROOT
ATOM      1  C   UNL     1      44.531   5.238  12.866  0.00  0.00    +0.000 A 
ATOM      2  C   UNL     1      44.272   6.482  12.273  0.00  0.00    +0.000 A 
ATOM      3  C   UNL     1      45.277   7.431  12.267  0.00  0.00    +0.000 A 
ATOM      4  N   UNL     1      46.504   7.227  12.777  0.00  0.00    +0.000 NA
ATOM      5  C   UNL     1      46.764   6.014  13.328  0.00  0.00    +0.000 A 
ATOM      6  C   UNL     1      45.798   5.008  13.407  0.00  0.00    +0.000 A 
ENDROOT
BRANCH   1   7
ATOM      7  C   UNL     1      43.471   4.157  12.859  0.00  0.00    +0.000 C 
BRANCH   7   8
ATOM      8  C   UNL     1      43.456   3.412  11.520  0.00  0.00    +0.000 C 
BRANCH   8   9
ATOM      9  N   UNL     1      43.001   2.033  11.676  0.00  0.00    +0.000 NA
ATOM     10  H   UNL     1      43.417   1.639  12.520  0.00  0.00    +0.000 HD
ATOM     11  H   UNL     1      43.349   1.462  10.903  0.00  0.00    +0.000 HD
ENDBRANCH   8   9
ENDBRANCH   7   8
ENDBRANCH   1   7
BRANCH   5  12
ATOM     12  C   UNL     1      48.130   5.819  13.913  0.00  0.00    +0.000 C 
BRANCH  12  13
ATOM     13  N   UNL     1      48.210   6.034  15.360  0.00  0.00    +0.000 N 
ATOM     14  C   UNL     1      48.933   7.083  15.891  0.00  0.00    +0.000 A 
ATOM     15  C   UNL     1      49.567   6.613  17.018  0.00  0.00    +0.000 A 
ATOM     16  C   UNL     1      49.038   5.326  17.307  0.00  0.00    +0.000 A 
ATOM     17  C   UNL     1      49.279   4.376  18.302  0.00  0.00    +0.000 A 
ATOM     18  N   UNL     1      48.524   3.253  18.389  0.00  0.00    +0.000 NA
ATOM     19  C   UNL     1      47.541   3.066  17.481  0.00  0.00    +0.000 A 
ATOM     20  C   UNL     1      47.273   3.906  16.409  0.00  0.00    +0.000 A 
ATOM     21  C   UNL     1      48.078   5.050  16.329  0.00  0.00    +0.000 A 
ENDBRANCH  12  13
ENDBRANCH   5  12
TORSDOF 5
ENDMDL
