MODEL 1
REMARK VINA RESULT:    -7.582      0.000      0.000
REMARK INTER + INTRA:          -9.964
REMARK INTER:                  -9.355
REMARK INTRA:                  -0.609
REMARK UNBOUND:                -0.609
REMARK  Name = 
REMARK  4 active torsions:
REMARK  status: ('A' for Active; 'I' for Inactive)
REMARK    1  A    between atoms: C_2  and  C_4
REMARK    2  A    between atoms: C_7  and  C_8
REMARK    3  A    between atoms: C_8  and  O_9
REMARK    4  A    between atoms: O_9  and  C_10
REMARK                            x       y       z     vdW  Elec       q    Type
REMARK                         _______ _______ _______ _____ _____    ______ ____
ROOT
ATOM      1  C   UNL     1      46.414   2.440   7.729  0.00  0.00    +0.000 A 
ATOM      2  C   UNL     1      45.621   1.774   8.670  0.00  0.00    +0.000 A 
ATOM      3  C   UNL     1      44.757   2.502   9.498  0.00  0.00    +0.000 A 
ATOM      4  C   UNL     1      44.669   3.899   9.391  0.00  0.00    +0.000 A 
ATOM      5  C   UNL     1      45.479   4.558   8.456  0.00  0.00    +0.000 A 
ATOM      6  C   UNL     1      46.346   3.834   7.632  0.00  0.00    +0.000 A 
ENDROOT
BRANCH   1   8
ATOM      7  N   UNL     1      48.488   2.394   6.441  0.00  0.00    +0.000 N 
ATOM      8  C   UNL     1      47.371   1.719   6.847  0.00  0.00    +0.000 C 
ATOM      9  O   UNL     1      47.193   0.551   6.523  0.00  0.00    +0.000 OA
ATOM     10  H   UNL     1      49.174   1.851   5.932  0.00  0.00    +0.000 HD
ATOM     11  H   UNL     1      48.799   3.246   6.886  0.00  0.00    +0.000 HD
ENDBRANCH   1   8
BRANCH   4  12
ATOM     12  C   UNL     1      43.749   4.688  10.295  0.00  0.00    +0.000 C 
BRANCH  12  13
ATOM     13  O   UNL     1      44.084   4.401  11.650  0.00  0.00    +0.000 OA
BRANCH  13  14
ATOM     14  C   UNL     1      45.204   4.999  12.157  0.00  0.00    +0.000 A 
ATOM     15  C   UNL     1      45.732   6.232  11.768  0.00  0.00    +0.000 A 
ATOM     16  C   UNL     1      46.886   6.731  12.382  0.00  0.00    +0.000 A 
ATOM     17  C   UNL     1      47.521   6.001  13.386  0.00  0.00    +0.000 A 
ATOM     18  C   UNL     1      47.004   4.766  13.773  0.00  0.00    +0.000 A 
ATOM     19  C   UNL     1      45.853   4.270  13.160  0.00  0.00    +0.000 A 
ENDBRANCH  13  14
ENDBRANCH  12  13
ENDBRANCH   4  12
TORSDOF 4
ENDMDL
MODEL 2
REMARK VINA RESULT:    -7.447      2.860      6.154
REMARK INTER + INTRA:          -9.797
REMARK INTER:                  -9.329
REMARK INTRA:                  -0.468
REMARK UNBOUND:                -0.609
REMARK  Name = 
REMARK  4 active torsions:
REMARK  status: ('A' for Active; 'I' for Inactive)
REMARK    1  A    between atoms: C_2  and  C_4
REMARK    2  A    between atoms: C_7  and  C_8
REMARK    3  A    between atoms: C_8  and  O_9
REMARK    4  A    between atoms: O_9  and  C_10
REMARK                            x       y       z     vdW  Elec       q    Type
REMARK                         _______ _______ _______ _____ _____    ______ ____
ROOT
ATOM      1  C   UNL     1      46.396   4.922  13.146  0.00  0.00    +0.000 A 
ATOM      2  C   UNL     1      46.337   5.935  12.181  0.00  0.00    +0.000 A 
ATOM      3  C   UNL     1      45.614   5.734  10.999  0.00  0.00    +0.000 A 
ATOM      4  C   UNL     1      44.936   4.527  10.769  0.00  0.00    +0.000 A 
ATOM      5  C   UNL     1      45.015   3.513  11.734  0.00  0.00    +0.000 A 
ATOM      6  C   UNL     1      45.740   3.708  12.913  0.00  0.00    +0.000 A 
ENDROOT
BRANCH   1   8
ATOM      7  N   UNL     1      46.742   4.380  15.501  0.00  0.00    +0.000 N 
ATOM      8  C   UNL     1      47.176   5.071  14.404  0.00  0.00    +0.000 C 
ATOM      9  O   UNL     1      48.192   5.754  14.455  0.00  0.00    +0.000 OA
ATOM     10  H   UNL     1      47.347   4.412  16.312  0.00  0.00    +0.000 HD
ATOM     11  H   UNL     1      46.082   3.619  15.437  0.00  0.00    +0.000 HD
ENDBRANCH   1   8
BRANCH   4  12
ATOM     12  C   UNL     1      44.167   4.302   9.487  0.00  0.00    +0.000 C 
BRANCH  12  13
ATOM     13  O   UNL     1      45.058   4.467   8.386  0.00  0.00    +0.000 OA
BRANCH  13  14
ATOM     14  C   UNL     1      45.773   3.370   7.990  0.00  0.00    +0.000 A 
ATOM     15  C   UNL     1      45.638   2.072   8.487  0.00  0.00    +0.000 A 
ATOM     16  C   UNL     1      46.433   1.037   7.980  0.00  0.00    +0.000 A 
ATOM     17  C   UNL     1      47.368   1.293   6.978  0.00  0.00    +0.000 A 
ATOM     18  C   UNL     1      47.512   2.588   6.484  0.00  0.00    +0.000 A 
ATOM     19  C   UNL     1      46.719   3.618   6.990  0.00  0.00    +0.000 A 
ENDBRANCH  13  14
ENDBRANCH  12  13
ENDBRANCH   4  12
TORSDOF 4
ENDMDL
MODEL 3
REMARK VINA RESULT:    -7.295      2.800      5.950
REMARK INTER + INTRA:          -9.610
REMARK INTER:                  -9.049
REMARK INTRA:                  -0.561
REMARK UNBOUND:                -0.609
REMARK  Name = 
REMARK  4 active torsions:
REMARK  status: ('A' for Active; 'I' for Inactive)
REMARK    1  A    between atoms: C_2  and  C_4
REMARK    2  A    between atoms: C_7  and  C_8
REMARK    3  A    between atoms: C_8  and  O_9
REMARK    4  A    between atoms: O_9  and  C_10
REMARK                            x       y       z     vdW  Elec       q    Type
REMARK                         _______ _______ _______ _____ _____    ______ ____
ROOT
ATOM      1  C   UNL     1      46.607   5.641  12.758  0.00  0.00    +0.000 A 
ATOM      2  C   UNL     1      45.903   4.450  12.974  0.00  0.00    +0.000 A 
ATOM      3  C   UNL     1      45.094   3.923  11.960  0.00  0.00    +0.000 A 
ATOM      4  C   UNL     1      44.985   4.570  10.719  0.00  0.00    +0.000 A 
ATOM      5  C   UNL     1      45.683   5.769  10.519  0.00  0.00    +0.000 A 
ATOM      6  C   UNL     1      46.486   6.301  11.531  0.00  0.00    +0.000 A 
ENDROOT
BRANCH   1   8
ATOM      7  N   UNL     1      47.338   7.609  14.004  0.00  0.00    +0.000 N 
ATOM      8  C   UNL     1      47.455   6.261  13.811  0.00  0.00    +0.000 C 
ATOM      9  O   UNL     1      48.205   5.592  14.512  0.00  0.00    +0.000 OA
ATOM     10  H   UNL     1      47.843   7.990  14.794  0.00  0.00    +0.000 HD
ATOM     11  H   UNL     1      46.562   8.143  13.641  0.00  0.00    +0.000 HD
ENDBRANCH   1   8
BRANCH   4  12
ATOM     12  C   UNL     1      44.100   4.010   9.628  0.00  0.00    +0.000 C 
BRANCH  12  13
ATOM     13  O   UNL     1      44.542   2.692   9.313  0.00  0.00    +0.000 OA
BRANCH  13  14
ATOM     14  C   UNL     1      45.466   2.566   8.312  0.00  0.00    +0.000 A 
ATOM     15  C   UNL     1      45.779   3.527   7.350  0.00  0.00    +0.000 A 
ATOM     16  C   UNL     1      46.759   3.266   6.384  0.00  0.00    +0.000 A 
ATOM     17  C   UNL     1      47.427   2.043   6.372  0.00  0.00    +0.000 A 
ATOM     18  C   UNL     1      47.112   1.076   7.325  0.00  0.00    +0.000 A 
ATOM     19  C   UNL     1      46.136   1.338   8.287  0.00  0.00    +0.000 A 
ENDBRANCH  13  14
ENDBRANCH  12  13
ENDBRANCH   4  12
TORSDOF 4
ENDMDL
MODEL 4
REMARK VINA RESULT:    -5.880      3.092      6.227
REMARK INTER + INTRA:          -7.864
REMARK INTER:                  -7.429
REMARK INTRA:                  -0.435
REMARK UNBOUND:                -0.609
REMARK  Name = 
REMARK  4 active torsions:
REMARK  status: ('A' for Active; 'I' for Inactive)
REMARK    1  A    between atoms: C_2  and  C_4
REMARK    2  A    between atoms: C_7  and  C_8
REMARK    3  A    between atoms: C_8  and  O_9
REMARK    4  A    between atoms: O_9  and  C_10
REMARK                            x       y       z     vdW  Elec       q    Type
REMARK                         _______ _______ _______ _____ _____    ______ ____
ROOT
ATOM      1  C   UNL     1      47.820   6.406  13.809  0.00  0.00    +0.000 A 
ATOM      2  C   UNL     1      47.158   5.342  14.434  0.00  0.00    +0.000 A 
ATOM      3  C   UNL     1      46.116   4.681  13.772  0.00  0.00    +0.000 A 
ATOM      4  C   UNL     1      45.729   5.066  12.479  0.00  0.00    +0.000 A 
ATOM      5  C   UNL     1      46.388   6.143  11.868  0.00  0.00    +0.000 A 
ATOM      6  C   UNL     1      47.425   6.808  12.529  0.00  0.00    +0.000 A 
ENDROOT
BRANCH   1   8
ATOM      7  N   UNL     1      48.831   8.527  14.471  0.00  0.00    +0.000 N 
ATOM      8  C   UNL     1      48.912   7.162  14.479  0.00  0.00    +0.000 C 
ATOM      9  O   UNL     1      49.832   6.593  15.054  0.00  0.00    +0.000 OA
ATOM     10  H   UNL     1      49.525   9.015  15.023  0.00  0.00    +0.000 HD
ATOM     11  H   UNL     1      47.979   9.019  14.246  0.00  0.00    +0.000 HD
ENDBRANCH   1   8
BRANCH   4  12
ATOM     12  C   UNL     1      44.594   4.364  11.768  0.00  0.00    +0.000 C 
BRANCH  12  13
ATOM     13  O   UNL     1      44.523   4.850  10.430  0.00  0.00    +0.000 OA
BRANCH  13  14
ATOM     14  C   UNL     1      45.124   4.096   9.460  0.00  0.00    +0.000 A 
ATOM     15  C   UNL     1      45.845   4.577   8.365  0.00  0.00    +0.000 A 
ATOM     16  C   UNL     1      46.418   3.686   7.450  0.00  0.00    +0.000 A 
ATOM     17  C   UNL     1      46.271   2.311   7.621  0.00  0.00    +0.000 A 
ATOM     18  C   UNL     1      45.545   1.824   8.706  0.00  0.00    +0.000 A 
ATOM     19  C   UNL     1      44.975   2.714   9.618  0.00  0.00    +0.000 A 
ENDBRANCH  13  14
ENDBRANCH  12  13
ENDBRANCH   4  12
TORSDOF 4
ENDMDL
MODEL 5
REMARK VINA RESULT:    -5.456      3.170      4.737
REMARK INTER + INTRA:          -7.341
REMARK INTER:                  -6.939
REMARK INTRA:                  -0.402
REMARK UNBOUND:                -0.609
REMARK  Name = 
REMARK  4 active torsions:
REMARK  status: ('A' for Active; 'I' for Inactive)
REMARK    1  A    between atoms: C_2  and  C_4
REMARK    2  A    between atoms: C_7  and  C_8
REMARK    3  A    between atoms: C_8  and  O_9
REMARK    4  A    between atoms: O_9  and  C_10
REMARK                            x       y       z     vdW  Elec       q    Type
REMARK                         _______ _______ _______ _____ _____    ______ ____
ROOT
ATOM      1  C   UNL     1      44.956   3.855  10.728  0.00  0.00    +0.000 A 
ATOM      2  C   UNL     1      45.220   2.935  11.750  0.00  0.00    +0.000 A 
ATOM      3  C   UNL     1      45.816   3.366  12.941  0.00  0.00    +0.000 A 
ATOM      4  C   UNL     1      46.147   4.717  13.131  0.00  0.00    +0.000 A 
ATOM      5  C   UNL     1      45.893   5.627  12.095  0.00  0.00    +0.000 A 
ATOM      6  C   UNL     1      45.303   5.199  10.902  0.00  0.00    +0.000 A 
ENDROOT
BRANCH   1   8
ATOM      7  N   UNL     1      44.143   4.421   8.497  0.00  0.00    +0.000 N 
ATOM      8  C   UNL     1      44.354   3.445   9.430  0.00  0.00    +0.000 C 
ATOM      9  O   UNL     1      44.090   2.275   9.184  0.00  0.00    +0.000 OA
ATOM     10  H   UNL     1      43.834   4.104   7.586  0.00  0.00    +0.000 HD
ATOM     11  H   UNL     1      44.577   5.330   8.555  0.00  0.00    +0.000 HD
ENDBRANCH   1   8
BRANCH   4  12
ATOM     12  C   UNL     1      46.805   5.181  14.411  0.00  0.00    +0.000 C 
BRANCH  12  13
ATOM     13  O   UNL     1      46.717   4.135  15.375  0.00  0.00    +0.000 OA
BRANCH  13  14
ATOM     14  C   UNL     1      47.799   3.942  16.188  0.00  0.00    +0.000 A 
ATOM     15  C   UNL     1      48.286   2.714  16.641  0.00  0.00    +0.000 A 
ATOM     16  C   UNL     1      49.416   2.664  17.466  0.00  0.00    +0.000 A 
ATOM     17  C   UNL     1      50.064   3.839  17.845  0.00  0.00    +0.000 A 
ATOM     18  C   UNL     1      49.577   5.068  17.404  0.00  0.00    +0.000 A 
ATOM     19  C   UNL     1      48.451   5.116  16.581  0.00  0.00    +0.000 A 
ENDBRANCH  13  14
ENDBRANCH  12  13
ENDBRANCH   4  12
TORSDOF 4
ENDMDL
MODEL 6
REMARK VINA RESULT:    -5.377      3.220      5.333
REMARK INTER + INTRA:          -7.244
REMARK INTER:                  -6.823
REMARK INTRA:                  -0.421
REMARK UNBOUND:                -0.609
REMARK  Name = 
REMARK  4 active torsions:
REMARK  status: ('A' for Active; 'I' for Inactive)
REMARK    1  A    between atoms: C_2  and  C_4
REMARK    2  A    between atoms: C_7  and  C_8
REMARK    3  A    between atoms: C_8  and  O_9
REMARK    4  A    between atoms: O_9  and  C_10
REMARK                            x       y       z     vdW  Elec       q    Type
REMARK                         _______ _______ _______ _____ _____    ______ ____
ROOT
ATOM      1  C   UNL     1      44.947   4.805  11.362  0.00  0.00    +0.000 A 
ATOM      2  C   UNL     1      45.618   5.959  10.942  0.00  0.00    +0.000 A 
ATOM      3  C   UNL     1      46.588   6.543  11.766  0.00  0.00    +0.000 A 
ATOM      4  C   UNL     1      46.906   5.979  13.011  0.00  0.00    +0.000 A 
ATOM      5  C   UNL     1      46.217   4.832  13.429  0.00  0.00    +0.000 A 
ATOM      6  C   UNL     1      45.245   4.250  12.611  0.00  0.00    +0.000 A 
ENDROOT
BRANCH   1   8
ATOM      7  N   UNL     1      43.909   4.388   9.192  0.00  0.00    +0.000 N 
ATOM      8  C   UNL     1      43.887   4.162  10.540  0.00  0.00    +0.000 C 
ATOM      9  O   UNL     1      43.044   3.426  11.038  0.00  0.00    +0.000 OA
ATOM     10  H   UNL     1      43.245   3.856   8.643  0.00  0.00    +0.000 HD
ATOM     11  H   UNL     1      44.718   4.762   8.718  0.00  0.00    +0.000 HD
ENDBRANCH   1   8
BRANCH   4  12
ATOM     12  C   UNL     1      47.941   6.617  13.909  0.00  0.00    +0.000 C 
BRANCH  12  13
ATOM     13  O   UNL     1      48.487   5.613  14.762  0.00  0.00    +0.000 OA
BRANCH  13  14
ATOM     14  C   UNL     1      48.367   5.807  16.111  0.00  0.00    +0.000 A 
ATOM     15  C   UNL     1      48.792   6.927  16.827  0.00  0.00    +0.000 A 
ATOM     16  C   UNL     1      48.596   6.996  18.211  0.00  0.00    +0.000 A 
ATOM     17  C   UNL     1      47.976   5.947  18.888  0.00  0.00    +0.000 A 
ATOM     18  C   UNL     1      47.557   4.822  18.180  0.00  0.00    +0.000 A 
ATOM     19  C   UNL     1      47.753   4.755  16.800  0.00  0.00    +0.000 A 
ENDBRANCH  13  14
ENDBRANCH  12  13
ENDBRANCH   4  12
TORSDOF 4
ENDMDL
MODEL 7
REMARK VINA RESULT:    -5.281      3.076      5.110
REMARK INTER + INTRA:          -7.125
REMARK INTER:                  -6.666
REMARK INTRA:                  -0.459
REMARK UNBOUND:                -0.609
REMARK  Name = 
REMARK  4 active torsions:
REMARK  status: ('A' for Active; 'I' for Inactive)
REMARK    1  A    between atoms: C_2  and  C_4
REMARK    2  A    between atoms: C_7  and  C_8
REMARK    3  A    between atoms: C_8  and  O_9
REMARK    4  A    between atoms: O_9  and  C_10
REMARK                            x       y       z     vdW  Elec       q    Type
REMARK                         _______ _______ _______ _____ _____    ______ ____
ROOT
ATOM      1  C   UNL     1      44.959   3.989  11.414  0.00  0.00    +0.000 A 
ATOM      2  C   UNL     1      45.205   5.153  10.677  0.00  0.00    +0.000 A 
ATOM      3  C   UNL     1      45.995   6.172  11.222  0.00  0.00    +0.000 A 
ATOM      4  C   UNL     1      46.555   6.039  12.502  0.00  0.00    +0.000 A 
ATOM      5  C   UNL     1      46.290   4.876  13.238  0.00  0.00    +0.000 A 
ATOM      6  C   UNL     1      45.497   3.859  12.699  0.00  0.00    +0.000 A 
ENDROOT
BRANCH   1   8
ATOM      7  N   UNL     1      44.569   2.173   9.830  0.00  0.00    +0.000 N 
ATOM      8  C   UNL     1      44.101   2.890  10.896  0.00  0.00    +0.000 C 
ATOM      9  O   UNL     1      43.031   2.605  11.421  0.00  0.00    +0.000 OA
ATOM     10  H   UNL     1      44.020   1.365   9.564  0.00  0.00    +0.000 HD
ATOM     11  H   UNL     1      45.536   2.199   9.541  0.00  0.00    +0.000 HD
ENDBRANCH   1   8
BRANCH   4  12
ATOM     12  C   UNL     1      47.396   7.145  13.099  0.00  0.00    +0.000 C 
BRANCH  12  13
ATOM     13  O   UNL     1      46.541   8.232  13.446  0.00  0.00    +0.000 OA
BRANCH  13  14
ATOM     14  C   UNL     1      46.526   9.309  12.604  0.00  0.00    +0.000 A 
ATOM     15  C   UNL     1      45.394   9.976  12.132  0.00  0.00    +0.000 A 
ATOM     16  C   UNL     1      45.527  11.077  11.278  0.00  0.00    +0.000 A 
ATOM     17  C   UNL     1      46.792  11.516  10.888  0.00  0.00    +0.000 A 
ATOM     18  C   UNL     1      47.926  10.850  11.349  0.00  0.00    +0.000 A 
ATOM     19  C   UNL     1      47.791   9.753  12.201  0.00  0.00    +0.000 A 
ENDBRANCH  13  14
ENDBRANCH  12  13
ENDBRANCH   4  12
TORSDOF 4
ENDMDL
MODEL 8
REMARK VINA RESULT:    -5.210      2.295      3.292
REMARK INTER + INTRA:          -7.037
REMARK INTER:                  -6.522
REMARK INTRA:                  -0.515
REMARK UNBOUND:                -0.609
REMARK  Name = 
REMARK  4 active torsions:
REMARK  status: ('A' for Active; 'I' for Inactive)
REMARK    1  A    between atoms: C_2  and  C_4
REMARK    2  A    between atoms: C_7  and  C_8
REMARK    3  A    between atoms: C_8  and  O_9
REMARK    4  A    between atoms: O_9  and  C_10
REMARK                            x       y       z     vdW  Elec       q    Type
REMARK                         _______ _______ _______ _____ _____    ______ ____
ROOT
ATOM      1  C   UNL     1      45.174   3.678   9.648  0.00  0.00    +0.000 A 
ATOM      2  C   UNL     1      44.812   3.262  10.935  0.00  0.00    +0.000 A 
ATOM      3  C   UNL     1      44.806   4.181  11.991  0.00  0.00    +0.000 A 
ATOM      4  C   UNL     1      45.151   5.524  11.776  0.00  0.00    +0.000 A 
ATOM      5  C   UNL     1      45.527   5.927  10.486  0.00  0.00    +0.000 A 
ATOM      6  C   UNL     1      45.540   5.011   9.431  0.00  0.00    +0.000 A 
ENDROOT
BRANCH   1   8
ATOM      7  N   UNL     1      45.283   1.400   8.777  0.00  0.00    +0.000 N 
ATOM      8  C   UNL     1      45.228   2.737   8.497  0.00  0.00    +0.000 C 
ATOM      9  O   UNL     1      45.186   3.132   7.339  0.00  0.00    +0.000 OA
ATOM     10  H   UNL     1      45.211   0.777   7.983  0.00  0.00    +0.000 HD
ATOM     11  H   UNL     1      45.059   1.027   9.688  0.00  0.00    +0.000 HD
ENDBRANCH   1   8
BRANCH   4  12
ATOM     12  C   UNL     1      45.161   6.515  12.918  0.00  0.00    +0.000 C 
BRANCH  12  13
ATOM     13  O   UNL     1      46.480   6.581  13.455  0.00  0.00    +0.000 OA
BRANCH  13  14
ATOM     14  C   UNL     1      47.357   7.440  12.852  0.00  0.00    +0.000 A 
ATOM     15  C   UNL     1      47.114   8.776  12.527  0.00  0.00    +0.000 A 
ATOM     16  C   UNL     1      48.112   9.546  11.917  0.00  0.00    +0.000 A 
ATOM     17  C   UNL     1      49.355   8.986  11.628  0.00  0.00    +0.000 A 
ATOM     18  C   UNL     1      49.601   7.651  11.943  0.00  0.00    +0.000 A 
ATOM     19  C   UNL     1      48.605   6.885  12.550  0.00  0.00    +0.000 A 
ENDBRANCH  13  14
ENDBRANCH  12  13
ENDBRANCH   4  12
TORSDOF 4
ENDMDL
MODEL 9
REMARK VINA RESULT:    -5.153      5.001      8.296
REMARK INTER + INTRA:          -6.967
REMARK INTER:                  -6.599
REMARK INTRA:                  -0.368
REMARK UNBOUND:                -0.609
REMARK  Name = 
REMARK  4 active torsions:
REMARK  status: ('A' for Active; 'I' for Inactive)
REMARK    1  A    between atoms: C_2  and  C_4
REMARK    2  A    between atoms: C_7  and  C_8
REMARK    3  A    between atoms: C_8  and  O_9
REMARK    4  A    between atoms: O_9  and  C_10
REMARK                            x       y       z     vdW  Elec       q    Type
REMARK                         _______ _______ _______ _____ _____    ______ ____
ROOT
ATOM      1  C   UNL     1      48.638   4.600  18.054  0.00  0.00    +0.000 A 
ATOM      2  C   UNL     1      49.009   5.688  17.256  0.00  0.00    +0.000 A 
ATOM      3  C   UNL     1      48.467   5.831  15.973  0.00  0.00    +0.000 A 
ATOM      4  C   UNL     1      47.543   4.899  15.476  0.00  0.00    +0.000 A 
ATOM      5  C   UNL     1      47.190   3.804  16.277  0.00  0.00    +0.000 A 
ATOM      6  C   UNL     1      47.734   3.655  17.556  0.00  0.00    +0.000 A 
ENDROOT
BRANCH   1   8
ATOM      7  N   UNL     1      48.447   3.688  20.311  0.00  0.00    +0.000 N 
ATOM      8  C   UNL     1      49.208   4.382  19.411  0.00  0.00    +0.000 C 
ATOM      9  O   UNL     1      50.330   4.772  19.709  0.00  0.00    +0.000 OA
ATOM     10  H   UNL     1      48.897   3.460  21.189  0.00  0.00    +0.000 HD
ATOM     11  H   UNL     1      47.650   3.135  20.034  0.00  0.00    +0.000 HD
ENDBRANCH   1   8
BRANCH   4  12
ATOM     12  C   UNL     1      46.968   5.044  14.085  0.00  0.00    +0.000 C 
BRANCH  12  13
ATOM     13  O   UNL     1      45.909   4.102  13.928  0.00  0.00    +0.000 OA
BRANCH  13  14
ATOM     14  C   UNL     1      45.196   4.153  12.763  0.00  0.00    +0.000 A 
ATOM     15  C   UNL     1      44.113   3.341  12.420  0.00  0.00    +0.000 A 
ATOM     16  C   UNL     1      43.466   3.510  11.190  0.00  0.00    +0.000 A 
ATOM     17  C   UNL     1      43.898   4.489  10.296  0.00  0.00    +0.000 A 
ATOM     18  C   UNL     1      44.983   5.297  10.629  0.00  0.00    +0.000 A 
ATOM     19  C   UNL     1      45.626   5.127  11.856  0.00  0.00    +0.000 A 
ENDBRANCH  13  14
ENDBRANCH  12  13
ENDBRANCH   4  12
TORSDOF 4
ENDMDL
