MODEL 1
REMARK VINA RESULT:    -8.218      0.000      0.000
REMARK INTER + INTRA:         -10.763
REMARK INTER:                 -10.379
REMARK INTRA:                  -0.384
REMARK UNBOUND:                -0.384
REMARK  Name = 
REMARK  5 active torsions:
REMARK  status: ('A' for Active; 'I' for Inactive)
REMARK    1  A    between atoms: N_1  and  C_2
REMARK    2  A    between atoms: C_2  and  C_3
REMARK    3  A    between atoms: C_6  and  C_7
REMARK    4  A    between atoms: C_7  and  N_8
REMARK    5  A    between atoms: C_13  and  C_14
REMARK                            x       y       z     vdW  Elec       q    Type
REMARK                         _______ _______ _______ _____ _____    ______ ____
ROOT
ATOM      1  N   UNL     1      44.619   3.270  11.499  0.00  0.00    +0.000 N 
ATOM      2  N   UNL     1      43.967   2.905  12.632  0.00  0.00    +0.000 NA
ATOM      3  N   UNL     1      43.803   3.997  13.368  0.00  0.00    +0.000 NA
ATOM      4  C   UNL     1      44.535   5.000  12.799  0.00  0.00    +0.000 A 
ATOM      5  C   UNL     1      44.660   6.348  13.165  0.00  0.00    +0.000 A 
ATOM      6  C   UNL     1      45.546   7.173  12.451  0.00  0.00    +0.000 A 
ATOM      7  C   UNL     1      46.316   6.627  11.411  0.00  0.00    +0.000 A 
ATOM      8  C   UNL     1      46.146   5.290  10.985  0.00  0.00    +0.000 A 
ATOM      9  C   UNL     1      45.208   4.517  11.683  0.00  0.00    +0.000 A 
ENDROOT
BRANCH   6  10
ATOM     10  C   UNL     1      45.570   8.616  12.856  0.00  0.00    +0.000 C 
ATOM     11  N   UNL     1      46.441   9.023  13.829  0.00  0.00    +0.000 N 
ATOM     12  O   UNL     1      44.837   9.434  12.319  0.00  0.00    +0.000 OA
ATOM     13  H   UNL     1      47.023   8.417  14.387  0.00  0.00    +0.000 HD
ATOM     14  H   UNL     1      46.411  10.005  14.072  0.00  0.00    +0.000 HD
ENDBRANCH   6  10
BRANCH   1  15
ATOM     15  C   UNL     1      44.027   2.784  10.251  0.00  0.00    +0.000 C 
BRANCH  15  19
ATOM     16  C   UNL     1      46.530   2.631   6.707  0.00  0.00    +0.000 A 
ATOM     17  C   UNL     1      46.499   1.545   7.596  0.00  0.00    +0.000 A 
ATOM     18  C   UNL     1      45.708   1.583   8.756  0.00  0.00    +0.000 A 
ATOM     19  C   UNL     1      44.942   2.716   9.059  0.00  0.00    +0.000 A 
ATOM     20  C   UNL     1      44.951   3.787   8.151  0.00  0.00    +0.000 A 
ATOM     21  C   UNL     1      45.739   3.747   6.996  0.00  0.00    +0.000 A 
BRANCH  16  22
ATOM     22  C   UNL     1      47.409   2.625   5.479  0.00  0.00    +0.000 C 
BRANCH  22  23
ATOM     23  N   UNL     1      48.605   1.812   5.663  0.00  0.00    +0.000 NA
ATOM     24  H   UNL     1      48.422   0.868   5.332  0.00  0.00    +0.000 HD
ATOM     25  H   UNL     1      48.800   1.736   6.661  0.00  0.00    +0.000 HD
ENDBRANCH  22  23
ENDBRANCH  16  22
ENDBRANCH  15  19
ENDBRANCH   1  15
TORSDOF 5
ENDMDL
MODEL 2
REMARK VINA RESULT:    -7.958      2.030      2.465
REMARK INTER + INTRA:         -10.435
REMARK INTER:                 -10.029
REMARK INTRA:                  -0.406
REMARK UNBOUND:                -0.384
REMARK  Name = 
REMARK  5 active torsions:
REMARK  status: ('A' for Active; 'I' for Inactive)
REMARK    1  A    between atoms: N_1  and  C_2
REMARK    2  A    between atoms: C_2  and  C_3
REMARK    3  A    between atoms: C_6  and  C_7
REMARK    4  A    between atoms: C_7  and  N_8
REMARK    5  A    between atoms: C_13  and  C_14
REMARK                            x       y       z     vdW  Elec       q    Type
REMARK                         _______ _______ _______ _____ _____    ______ ____
ROOT
ATOM      1  N   UNL     1      43.869   4.129  11.519  0.00  0.00    +0.000 N 
ATOM      2  N   UNL     1      43.200   5.232  11.101  0.00  0.00    +0.000 NA
ATOM      3  N   UNL     1      44.036   6.260  11.176  0.00  0.00    +0.000 NA
ATOM      4  C   UNL     1      45.155   5.841  11.838  0.00  0.00    +0.000 A 
ATOM      5  C   UNL     1      46.340   6.528  12.135  0.00  0.00    +0.000 A 
ATOM      6  C   UNL     1      47.329   5.890  12.903  0.00  0.00    +0.000 A 
ATOM      7  C   UNL     1      47.099   4.594  13.391  0.00  0.00    +0.000 A 
ATOM      8  C   UNL     1      45.941   3.864  13.040  0.00  0.00    +0.000 A 
ATOM      9  C   UNL     1      45.007   4.513  12.220  0.00  0.00    +0.000 A 
ENDROOT
BRANCH   6  10
ATOM     10  C   UNL     1      48.596   6.663  13.116  0.00  0.00    +0.000 C 
ATOM     11  N   UNL     1      49.064   7.469  12.115  0.00  0.00    +0.000 N 
ATOM     12  O   UNL     1      49.206   6.595  14.174  0.00  0.00    +0.000 OA
ATOM     13  H   UNL     1      48.684   7.529  11.183  0.00  0.00    +0.000 HD
ATOM     14  H   UNL     1      49.928   7.961  12.305  0.00  0.00    +0.000 HD
ENDBRANCH   6  10
BRANCH   1  15
ATOM     15  C   UNL     1      43.765   2.961  10.640  0.00  0.00    +0.000 C 
BRANCH  15  19
ATOM     16  C   UNL     1      46.488   2.851   7.262  0.00  0.00    +0.000 A 
ATOM     17  C   UNL     1      45.862   4.055   7.625  0.00  0.00    +0.000 A 
ATOM     18  C   UNL     1      44.966   4.105   8.704  0.00  0.00    +0.000 A 
ATOM     19  C   UNL     1      44.664   2.949   9.436  0.00  0.00    +0.000 A 
ATOM     20  C   UNL     1      45.317   1.755   9.090  0.00  0.00    +0.000 A 
ATOM     21  C   UNL     1      46.210   1.707   8.015  0.00  0.00    +0.000 A 
BRANCH  16  22
ATOM     22  C   UNL     1      47.420   2.768   6.077  0.00  0.00    +0.000 C 
BRANCH  22  23
ATOM     23  N   UNL     1      48.470   1.774   6.271  0.00  0.00    +0.000 NA
ATOM     24  H   UNL     1      49.139   1.842   5.508  0.00  0.00    +0.000 HD
ATOM     25  H   UNL     1      48.056   0.844   6.210  0.00  0.00    +0.000 HD
ENDBRANCH  22  23
ENDBRANCH  16  22
ENDBRANCH  15  19
ENDBRANCH   1  15
TORSDOF 5
ENDMDL
MODEL 3
REMARK VINA RESULT:    -7.924      2.823      6.365
REMARK INTER + INTRA:         -10.392
REMARK INTER:                  -9.573
REMARK INTRA:                  -0.820
REMARK UNBOUND:                -0.384
REMARK  Name = 
REMARK  5 active torsions:
REMARK  status: ('A' for Active; 'I' for Inactive)
REMARK    1  A    between atoms: N_1  and  C_2
REMARK    2  A    between atoms: C_2  and  C_3
REMARK    3  A    between atoms: C_6  and  C_7
REMARK    4  A    between atoms: C_7  and  N_8
REMARK    5  A    between atoms: C_13  and  C_14
REMARK                            x       y       z     vdW  Elec       q    Type
REMARK                         _______ _______ _______ _____ _____    ______ ____
ROOT
ATOM      1  N   UNL     1      43.364   4.228  10.579  0.00  0.00    +0.000 N 
ATOM      2  N   UNL     1      42.958   3.151  11.297  0.00  0.00    +0.000 NA
ATOM      3  N   UNL     1      43.729   2.127  10.954  0.00  0.00    +0.000 NA
ATOM      4  C   UNL     1      44.473   2.508   9.872  0.00  0.00    +0.000 A 
ATOM      5  C   UNL     1      45.463   1.811   9.165  0.00  0.00    +0.000 A 
ATOM      6  C   UNL     1      46.037   2.401   8.027  0.00  0.00    +0.000 A 
ATOM      7  C   UNL     1      45.584   3.659   7.595  0.00  0.00    +0.000 A 
ATOM      8  C   UNL     1      44.640   4.403   8.339  0.00  0.00    +0.000 A 
ATOM      9  C   UNL     1      44.137   3.804   9.503  0.00  0.00    +0.000 A 
ENDROOT
BRANCH   6  10
ATOM     10  C   UNL     1      47.138   1.626   7.368  0.00  0.00    +0.000 C 
ATOM     11  N   UNL     1      48.188   2.300   6.808  0.00  0.00    +0.000 N 
ATOM     12  O   UNL     1      47.118   0.403   7.339  0.00  0.00    +0.000 OA
ATOM     13  H   UNL     1      48.256   3.301   6.706  0.00  0.00    +0.000 HD
ATOM     14  H   UNL     1      48.900   1.730   6.368  0.00  0.00    +0.000 HD
ENDBRANCH   6  10
BRANCH   1  15
ATOM     15  C   UNL     1      43.581   5.453  11.353  0.00  0.00    +0.000 C 
BRANCH  15  19
ATOM     16  C   UNL     1      47.581   6.250  12.836  0.00  0.00    +0.000 A 
ATOM     17  C   UNL     1      47.136   6.852  11.648  0.00  0.00    +0.000 A 
ATOM     18  C   UNL     1      45.851   6.593  11.145  0.00  0.00    +0.000 A 
ATOM     19  C   UNL     1      44.988   5.713  11.811  0.00  0.00    +0.000 A 
ATOM     20  C   UNL     1      45.426   5.139  13.016  0.00  0.00    +0.000 A 
ATOM     21  C   UNL     1      46.706   5.398  13.515  0.00  0.00    +0.000 A 
BRANCH  16  22
ATOM     22  C   UNL     1      48.975   6.482  13.368  0.00  0.00    +0.000 C 
BRANCH  22  23
ATOM     23  N   UNL     1      49.018   6.458  14.826  0.00  0.00    +0.000 NA
ATOM     24  H   UNL     1      48.266   5.867  15.172  0.00  0.00    +0.000 HD
ATOM     25  H   UNL     1      48.832   7.398  15.175  0.00  0.00    +0.000 HD
ENDBRANCH  22  23
ENDBRANCH  16  22
ENDBRANCH  15  19
ENDBRANCH   1  15
TORSDOF 5
ENDMDL
MODEL 4
REMARK VINA RESULT:    -7.906      2.737      6.851
REMARK INTER + INTRA:         -10.369
REMARK INTER:                  -9.812
REMARK INTRA:                  -0.557
REMARK UNBOUND:                -0.384
REMARK  Name = 
REMARK  5 active torsions:
REMARK  status: ('A' for Active; 'I' for Inactive)
REMARK    1  A    between atoms: N_1  and  C_2
REMARK    2  A    between atoms: C_2  and  C_3
REMARK    3  A    between atoms: C_6  and  C_7
REMARK    4  A    between atoms: C_7  and  N_8
REMARK    5  A    between atoms: C_13  and  C_14
REMARK                            x       y       z     vdW  Elec       q    Type
REMARK                         _______ _______ _______ _____ _____    ______ ____
ROOT
ATOM      1  N   UNL     1      44.234   4.165  10.824  0.00  0.00    +0.000 N 
ATOM      2  N   UNL     1      43.396   3.118  11.032  0.00  0.00    +0.000 NA
ATOM      3  N   UNL     1      43.820   2.110  10.280  0.00  0.00    +0.000 NA
ATOM      4  C   UNL     1      44.791   2.590   9.447  0.00  0.00    +0.000 A 
ATOM      5  C   UNL     1      45.579   1.923   8.499  0.00  0.00    +0.000 A 
ATOM      6  C   UNL     1      46.469   2.664   7.703  0.00  0.00    +0.000 A 
ATOM      7  C   UNL     1      46.528   4.060   7.845  0.00  0.00    +0.000 A 
ATOM      8  C   UNL     1      45.793   4.736   8.845  0.00  0.00    +0.000 A 
ATOM      9  C   UNL     1      44.963   3.952   9.659  0.00  0.00    +0.000 A 
ENDROOT
BRANCH   6  10
ATOM     10  C   UNL     1      47.328   1.871   6.765  0.00  0.00    +0.000 C 
ATOM     11  N   UNL     1      48.418   2.466   6.192  0.00  0.00    +0.000 N 
ATOM     12  O   UNL     1      47.077   0.700   6.517  0.00  0.00    +0.000 OA
ATOM     13  H   UNL     1      48.661   3.442   6.265  0.00  0.00    +0.000 HD
ATOM     14  H   UNL     1      48.960   1.890   5.558  0.00  0.00    +0.000 HD
ENDBRANCH   6  10
BRANCH   1  15
ATOM     15  C   UNL     1      44.738   4.815  12.037  0.00  0.00    +0.000 C 
BRANCH  15  19
ATOM     16  C   UNL     1      45.802   9.020  11.862  0.00  0.00    +0.000 A 
ATOM     17  C   UNL     1      44.546   8.590  11.404  0.00  0.00    +0.000 A 
ATOM     18  C   UNL     1      44.191   7.232  11.438  0.00  0.00    +0.000 A 
ATOM     19  C   UNL     1      45.091   6.271  11.917  0.00  0.00    +0.000 A 
ATOM     20  C   UNL     1      46.333   6.709  12.404  0.00  0.00    +0.000 A 
ATOM     21  C   UNL     1      46.684   8.062  12.370  0.00  0.00    +0.000 A 
BRANCH  16  22
ATOM     22  C   UNL     1      46.217  10.470  11.792  0.00  0.00    +0.000 C 
BRANCH  22  23
ATOM     23  N   UNL     1      45.111  11.374  12.082  0.00  0.00    +0.000 NA
ATOM     24  H   UNL     1      44.714  11.137  12.988  0.00  0.00    +0.000 HD
ATOM     25  H   UNL     1      44.372  11.220  11.395  0.00  0.00    +0.000 HD
ENDBRANCH  22  23
ENDBRANCH  16  22
ENDBRANCH  15  19
ENDBRANCH   1  15
TORSDOF 5
ENDMDL
MODEL 5
REMARK VINA RESULT:    -7.362      3.265      6.781
REMARK INTER + INTRA:          -9.682
REMARK INTER:                  -9.797
REMARK INTRA:                   0.114
REMARK UNBOUND:                -0.384
REMARK  Name = 
REMARK  5 active torsions:
REMARK  status: ('A' for Active; 'I' for Inactive)
REMARK    1  A    between atoms: N_1  and  C_2
REMARK    2  A    between atoms: C_2  and  C_3
REMARK    3  A    between atoms: C_6  and  C_7
REMARK    4  A    between atoms: C_7  and  N_8
REMARK    5  A    between atoms: C_13  and  C_14
REMARK                            x       y       z     vdW  Elec       q    Type
REMARK                         _______ _______ _______ _____ _____    ______ ____
ROOT
ATOM      1  N   UNL     1      44.312   4.720  10.241  0.00  0.00    +0.000 N 
ATOM      2  N   UNL     1      43.373   3.868  10.725  0.00  0.00    +0.000 NA
ATOM      3  N   UNL     1      43.703   2.644  10.332  0.00  0.00    +0.000 NA
ATOM      4  C   UNL     1      44.725   2.754   9.432  0.00  0.00    +0.000 A 
ATOM      5  C   UNL     1      45.452   1.760   8.764  0.00  0.00    +0.000 A 
ATOM      6  C   UNL     1      46.419   2.136   7.817  0.00  0.00    +0.000 A 
ATOM      7  C   UNL     1      46.614   3.496   7.529  0.00  0.00    +0.000 A 
ATOM      8  C   UNL     1      45.940   4.511   8.246  0.00  0.00    +0.000 A 
ATOM      9  C   UNL     1      45.028   4.094   9.226  0.00  0.00    +0.000 A 
ENDROOT
BRANCH   6  10
ATOM     10  C   UNL     1      47.204   1.018   7.199  0.00  0.00    +0.000 C 
ATOM     11  N   UNL     1      46.927  -0.272   7.559  0.00  0.00    +0.000 N 
ATOM     12  O   UNL     1      48.075   1.242   6.370  0.00  0.00    +0.000 OA
ATOM     13  H   UNL     1      46.292  -0.555   8.289  0.00  0.00    +0.000 HD
ATOM     14  H   UNL     1      47.492  -0.989   7.120  0.00  0.00    +0.000 HD
ENDBRANCH   6  10
BRANCH   1  15
ATOM     15  C   UNL     1      44.866   5.662  11.217  0.00  0.00    +0.000 C 
BRANCH  15  19
ATOM     16  C   UNL     1      47.036   4.042  14.610  0.00  0.00    +0.000 A 
ATOM     17  C   UNL     1      46.585   3.190  13.589  0.00  0.00    +0.000 A 
ATOM     18  C   UNL     1      45.867   3.694  12.492  0.00  0.00    +0.000 A 
ATOM     19  C   UNL     1      45.572   5.061  12.400  0.00  0.00    +0.000 A 
ATOM     20  C   UNL     1      46.053   5.914  13.407  0.00  0.00    +0.000 A 
ATOM     21  C   UNL     1      46.767   5.410  14.499  0.00  0.00    +0.000 A 
BRANCH  16  22
ATOM     22  C   UNL     1      47.770   3.512  15.819  0.00  0.00    +0.000 C 
BRANCH  22  23
ATOM     23  N   UNL     1      48.777   4.448  16.304  0.00  0.00    +0.000 NA
ATOM     24  H   UNL     1      48.461   4.853  17.182  0.00  0.00    +0.000 HD
ATOM     25  H   UNL     1      48.855   5.219  15.642  0.00  0.00    +0.000 HD
ENDBRANCH  22  23
ENDBRANCH  16  22
ENDBRANCH  15  19
ENDBRANCH   1  15
TORSDOF 5
ENDMDL
MODEL 6
REMARK VINA RESULT:    -7.097      2.721      3.378
REMARK INTER + INTRA:          -9.347
REMARK INTER:                  -8.932
REMARK INTRA:                  -0.416
REMARK UNBOUND:                -0.384
REMARK  Name = 
REMARK  5 active torsions:
REMARK  status: ('A' for Active; 'I' for Inactive)
REMARK    1  A    between atoms: N_1  and  C_2
REMARK    2  A    between atoms: C_2  and  C_3
REMARK    3  A    between atoms: C_6  and  C_7
REMARK    4  A    between atoms: C_7  and  N_8
REMARK    5  A    between atoms: C_13  and  C_14
REMARK                            x       y       z     vdW  Elec       q    Type
REMARK                         _______ _______ _______ _____ _____    ______ ____
ROOT
ATOM      1  N   UNL     1      44.415   5.601  10.745  0.00  0.00    +0.000 N 
ATOM      2  N   UNL     1      45.297   6.518  10.274  0.00  0.00    +0.000 NA
ATOM      3  N   UNL     1      46.383   6.455  11.033  0.00  0.00    +0.000 NA
ATOM      4  C   UNL     1      46.101   5.653  12.102  0.00  0.00    +0.000 A 
ATOM      5  C   UNL     1      46.920   5.236  13.161  0.00  0.00    +0.000 A 
ATOM      6  C   UNL     1      46.366   4.460  14.192  0.00  0.00    +0.000 A 
ATOM      7  C   UNL     1      44.997   4.148  14.166  0.00  0.00    +0.000 A 
ATOM      8  C   UNL     1      44.176   4.500  13.070  0.00  0.00    +0.000 A 
ATOM      9  C   UNL     1      44.782   5.221  12.032  0.00  0.00    +0.000 A 
ENDROOT
BRANCH   6  10
ATOM     10  C   UNL     1      47.321   3.993  15.249  0.00  0.00    +0.000 C 
ATOM     11  N   UNL     1      47.554   4.787  16.338  0.00  0.00    +0.000 N 
ATOM     12  O   UNL     1      47.880   2.909  15.159  0.00  0.00    +0.000 OA
ATOM     13  H   UNL     1      47.211   5.727  16.464  0.00  0.00    +0.000 HD
ATOM     14  H   UNL     1      48.215   4.430  17.018  0.00  0.00    +0.000 HD
ENDBRANCH   6  10
BRANCH   1  15
ATOM     15  C   UNL     1      43.825   4.720   9.734  0.00  0.00    +0.000 C 
BRANCH  15  19
ATOM     16  C   UNL     1      46.636   2.103   7.712  0.00  0.00    +0.000 A 
ATOM     17  C   UNL     1      46.620   3.477   7.425  0.00  0.00    +0.000 A 
ATOM     18  C   UNL     1      45.707   4.336   8.057  0.00  0.00    +0.000 A 
ATOM     19  C   UNL     1      44.779   3.836   8.980  0.00  0.00    +0.000 A 
ATOM     20  C   UNL     1      44.819   2.466   9.287  0.00  0.00    +0.000 A 
ATOM     21  C   UNL     1      45.730   1.613   8.656  0.00  0.00    +0.000 A 
BRANCH  16  22
ATOM     22  C   UNL     1      47.580   1.157   7.009  0.00  0.00    +0.000 C 
BRANCH  22  23
ATOM     23  N   UNL     1      48.357   1.826   5.972  0.00  0.00    +0.000 NA
ATOM     24  H   UNL     1      48.070   2.800   5.915  0.00  0.00    +0.000 HD
ATOM     25  H   UNL     1      48.131   1.406   5.070  0.00  0.00    +0.000 HD
ENDBRANCH  22  23
ENDBRANCH  16  22
ENDBRANCH  15  19
ENDBRANCH   1  15
TORSDOF 5
ENDMDL
MODEL 7
REMARK VINA RESULT:    -6.596      4.893      5.647
REMARK INTER + INTRA:          -8.714
REMARK INTER:                  -8.560
REMARK INTRA:                  -0.154
REMARK UNBOUND:                -0.384
REMARK  Name = 
REMARK  5 active torsions:
REMARK  status: ('A' for Active; 'I' for Inactive)
REMARK    1  A    between atoms: N_1  and  C_2
REMARK    2  A    between atoms: C_2  and  C_3
REMARK    3  A    between atoms: C_6  and  C_7
REMARK    4  A    between atoms: C_7  and  N_8
REMARK    5  A    between atoms: C_13  and  C_14
REMARK                            x       y       z     vdW  Elec       q    Type
REMARK                         _______ _______ _______ _____ _____    ______ ____
ROOT
ATOM      1  N   UNL     1      47.267   4.583  14.489  0.00  0.00    +0.000 N 
ATOM      2  N   UNL     1      47.448   3.249  14.316  0.00  0.00    +0.000 NA
ATOM      3  N   UNL     1      47.787   2.735  15.491  0.00  0.00    +0.000 NA
ATOM      4  C   UNL     1      48.024   3.773  16.349  0.00  0.00    +0.000 A 
ATOM      5  C   UNL     1      48.365   3.762  17.708  0.00  0.00    +0.000 A 
ATOM      6  C   UNL     1      48.632   4.978  18.358  0.00  0.00    +0.000 A 
ATOM      7  C   UNL     1      48.589   6.178  17.629  0.00  0.00    +0.000 A 
ATOM      8  C   UNL     1      48.176   6.210  16.277  0.00  0.00    +0.000 A 
ATOM      9  C   UNL     1      47.859   4.981  15.683  0.00  0.00    +0.000 A 
ENDROOT
BRANCH   6  10
ATOM     10  C   UNL     1      48.919   4.890  19.827  0.00  0.00    +0.000 C 
ATOM     11  N   UNL     1      48.577   3.754  20.508  0.00  0.00    +0.000 N 
ATOM     12  O   UNL     1      49.466   5.809  20.419  0.00  0.00    +0.000 OA
ATOM     13  H   UNL     1      48.051   2.980  20.132  0.00  0.00    +0.000 HD
ATOM     14  H   UNL     1      48.783   3.749  21.499  0.00  0.00    +0.000 HD
ENDBRANCH   6  10
BRANCH   1  15
ATOM     15  C   UNL     1      46.025   5.124  13.933  0.00  0.00    +0.000 C 
BRANCH  15  19
ATOM     16  C   UNL     1      45.099   4.323   9.768  0.00  0.00    +0.000 A 
ATOM     17  C   UNL     1      44.834   3.354  10.749  0.00  0.00    +0.000 A 
ATOM     18  C   UNL     1      45.141   3.589  12.099  0.00  0.00    +0.000 A 
ATOM     19  C   UNL     1      45.736   4.794  12.495  0.00  0.00    +0.000 A 
ATOM     20  C   UNL     1      45.970   5.773  11.515  0.00  0.00    +0.000 A 
ATOM     21  C   UNL     1      45.662   5.537  10.172  0.00  0.00    +0.000 A 
BRANCH  16  22
ATOM     22  C   UNL     1      44.816   4.070   8.307  0.00  0.00    +0.000 C 
BRANCH  22  23
ATOM     23  N   UNL     1      46.029   4.104   7.498  0.00  0.00    +0.000 NA
ATOM     24  H   UNL     1      45.924   4.805   6.768  0.00  0.00    +0.000 HD
ATOM     25  H   UNL     1      46.132   3.208   7.023  0.00  0.00    +0.000 HD
ENDBRANCH  22  23
ENDBRANCH  16  22
ENDBRANCH  15  19
ENDBRANCH   1  15
TORSDOF 5
ENDMDL
MODEL 8
REMARK VINA RESULT:    -6.091      2.847      6.697
REMARK INTER + INTRA:          -8.077
REMARK INTER:                  -7.692
REMARK INTRA:                  -0.385
REMARK UNBOUND:                -0.384
REMARK  Name = 
REMARK  5 active torsions:
REMARK  status: ('A' for Active; 'I' for Inactive)
REMARK    1  A    between atoms: N_1  and  C_2
REMARK    2  A    between atoms: C_2  and  C_3
REMARK    3  A    between atoms: C_6  and  C_7
REMARK    4  A    between atoms: C_7  and  N_8
REMARK    5  A    between atoms: C_13  and  C_14
REMARK                            x       y       z     vdW  Elec       q    Type
REMARK                         _______ _______ _______ _____ _____    ______ ____
ROOT
ATOM      1  N   UNL     1      43.989   6.021  11.708  0.00  0.00    +0.000 N 
ATOM      2  N   UNL     1      42.812   5.432  12.037  0.00  0.00    +0.000 NA
ATOM      3  N   UNL     1      42.796   4.229  11.478  0.00  0.00    +0.000 NA
ATOM      4  C   UNL     1      43.863   4.148  10.629  0.00  0.00    +0.000 A 
ATOM      5  C   UNL     1      44.312   3.079   9.841  0.00  0.00    +0.000 A 
ATOM      6  C   UNL     1      45.408   3.271   8.984  0.00  0.00    +0.000 A 
ATOM      7  C   UNL     1      46.011   4.537   8.903  0.00  0.00    +0.000 A 
ATOM      8  C   UNL     1      45.615   5.602   9.744  0.00  0.00    +0.000 A 
ATOM      9  C   UNL     1      44.558   5.351  10.630  0.00  0.00    +0.000 A 
ENDROOT
BRANCH   6  10
ATOM     10  C   UNL     1      45.873   2.062   8.229  0.00  0.00    +0.000 C 
ATOM     11  N   UNL     1      46.592   2.229   7.077  0.00  0.00    +0.000 N 
ATOM     12  O   UNL     1      45.632   0.934   8.634  0.00  0.00    +0.000 OA
ATOM     13  H   UNL     1      46.770   3.109   6.618  0.00  0.00    +0.000 HD
ATOM     14  H   UNL     1      46.873   1.381   6.600  0.00  0.00    +0.000 HD
ENDBRANCH   6  10
BRANCH   1  15
ATOM     15  C   UNL     1      44.727   6.616  12.825  0.00  0.00    +0.000 C 
BRANCH  15  19
ATOM     16  C   UNL     1      47.985   9.340  11.925  0.00  0.00    +0.000 A 
ATOM     17  C   UNL     1      46.667   9.818  12.004  0.00  0.00    +0.000 A 
ATOM     18  C   UNL     1      45.599   8.949  12.278  0.00  0.00    +0.000 A 
ATOM     19  C   UNL     1      45.824   7.579  12.464  0.00  0.00    +0.000 A 
ATOM     20  C   UNL     1      47.147   7.111  12.417  0.00  0.00    +0.000 A 
ATOM     21  C   UNL     1      48.209   7.978  12.144  0.00  0.00    +0.000 A 
BRANCH  16  22
ATOM     22  C   UNL     1      49.140  10.252  11.588  0.00  0.00    +0.000 C 
BRANCH  22  23
ATOM     23  N   UNL     1      49.079  11.511  12.322  0.00  0.00    +0.000 NA
ATOM     24  H   UNL     1      48.972  12.278  11.661  0.00  0.00    +0.000 HD
ATOM     25  H   UNL     1      49.970  11.660  12.794  0.00  0.00    +0.000 HD
ENDBRANCH  22  23
ENDBRANCH  16  22
ENDBRANCH  15  19
ENDBRANCH   1  15
TORSDOF 5
ENDMDL
MODEL 9
REMARK VINA RESULT:    -5.830      5.025      8.062
REMARK INTER + INTRA:          -7.747
REMARK INTER:                  -7.262
REMARK INTRA:                  -0.485
REMARK UNBOUND:                -0.384
REMARK  Name = 
REMARK  5 active torsions:
REMARK  status: ('A' for Active; 'I' for Inactive)
REMARK    1  A    between atoms: N_1  and  C_2
REMARK    2  A    between atoms: C_2  and  C_3
REMARK    3  A    between atoms: C_6  and  C_7
REMARK    4  A    between atoms: C_7  and  N_8
REMARK    5  A    between atoms: C_13  and  C_14
REMARK                            x       y       z     vdW  Elec       q    Type
REMARK                         _______ _______ _______ _____ _____    ______ ____
ROOT
ATOM      1  N   UNL     1      48.314   6.567  13.632  0.00  0.00    +0.000 N 
ATOM      2  N   UNL     1      48.897   7.210  12.589  0.00  0.00    +0.000 NA
ATOM      3  N   UNL     1      47.980   7.347  11.640  0.00  0.00    +0.000 NA
ATOM      4  C   UNL     1      46.890   6.607  12.001  0.00  0.00    +0.000 A 
ATOM      5  C   UNL     1      45.649   6.456  11.366  0.00  0.00    +0.000 A 
ATOM      6  C   UNL     1      44.705   5.567  11.908  0.00  0.00    +0.000 A 
ATOM      7  C   UNL     1      45.032   4.820  13.051  0.00  0.00    +0.000 A 
ATOM      8  C   UNL     1      46.250   5.016  13.742  0.00  0.00    +0.000 A 
ATOM      9  C   UNL     1      47.139   5.957  13.203  0.00  0.00    +0.000 A 
ENDROOT
BRANCH   6  10
ATOM     10  C   UNL     1      43.377   5.515  11.214  0.00  0.00    +0.000 C 
ATOM     11  N   UNL     1      42.318   6.196  11.746  0.00  0.00    +0.000 N 
ATOM     12  O   UNL     1      43.234   4.887  10.174  0.00  0.00    +0.000 OA
ATOM     13  H   UNL     1      42.311   6.670  12.636  0.00  0.00    +0.000 HD
ATOM     14  H   UNL     1      41.441   6.120  11.244  0.00  0.00    +0.000 HD
ENDBRANCH   6  10
BRANCH   1  15
ATOM     15  C   UNL     1      48.523   7.183  14.944  0.00  0.00    +0.000 C 
BRANCH  15  19
ATOM     16  C   UNL     1      50.867   4.812  17.724  0.00  0.00    +0.000 A 
ATOM     17  C   UNL     1      49.517   4.502  17.497  0.00  0.00    +0.000 A 
ATOM     18  C   UNL     1      48.739   5.268  16.614  0.00  0.00    +0.000 A 
ATOM     19  C   UNL     1      49.291   6.371  15.949  0.00  0.00    +0.000 A 
ATOM     20  C   UNL     1      50.651   6.658  16.155  0.00  0.00    +0.000 A 
ATOM     21  C   UNL     1      51.424   5.893  17.034  0.00  0.00    +0.000 A 
BRANCH  16  22
ATOM     22  C   UNL     1      51.707   4.027  18.703  0.00  0.00    +0.000 C 
BRANCH  22  23
ATOM     23  N   UNL     1      51.443   4.411  20.085  0.00  0.00    +0.000 NA
ATOM     24  H   UNL     1      51.364   3.572  20.655  0.00  0.00    +0.000 HD
ATOM     25  H   UNL     1      50.537   4.876  20.129  0.00  0.00    +0.000 HD
ENDBRANCH  22  23
ENDBRANCH  16  22
ENDBRANCH  15  19
ENDBRANCH   1  15
TORSDOF 5
ENDMDL
