MODEL 1
REMARK VINA RESULT:    -7.264      0.000      0.000
REMARK INTER + INTRA:         -10.853
REMARK INTER:                  -9.811
REMARK INTRA:                  -1.041
REMARK UNBOUND:                -1.041
REMARK  Name = 
REMARK  6 active torsions:
REMARK  status: ('A' for Active; 'I' for Inactive)
REMARK    1  A    between atoms: C_2  and  C_20
REMARK    2  A    between atoms: N_3  and  C_4
REMARK    3  A    between atoms: C_4  and  C_5
REMARK    4  A    between atoms: C_8  and  C_9
REMARK    5  A    between atoms: C_9  and  N_10
REMARK    6  A    between atoms: C_11  and  C_13
REMARK                            x       y       z     vdW  Elec       q    Type
REMARK                         _______ _______ _______ _____ _____    ______ ____
ROOT
ATOM      1  C   UNL     1      47.208   3.386  16.635  0.00  0.00    +0.000 C 
ENDROOT
BRANCH   1   2
ATOM      2  C   UNL     1      48.650   3.600  17.020  0.00  0.00    +0.000 A 
ATOM      3  C   UNL     1      49.539   2.519  17.087  0.00  0.00    +0.000 A 
ATOM      4  C   UNL     1      50.870   2.713  17.474  0.00  0.00    +0.000 A 
ATOM      5  C   UNL     1      51.332   3.989  17.825  0.00  0.00    +0.000 A 
ATOM      6  C   UNL     1      50.438   5.066  17.769  0.00  0.00    +0.000 A 
ATOM      7  C   UNL     1      49.110   4.873  17.381  0.00  0.00    +0.000 A 
BRANCH   5   8
ATOM      8  C   UNL     1      52.749   4.204  18.280  0.00  0.00    +0.000 C 
BRANCH   8   9
ATOM      9  N   UNL     1      53.638   3.133  17.881  0.00  0.00    +0.000 N 
ATOM     10  C   UNL     1      54.226   2.360  18.858  0.00  0.00    +0.000 C 
ATOM     11  O   UNL     1      53.991   2.549  20.051  0.00  0.00    +0.000 OA
ATOM     12  H   UNL     1      53.968   3.108  16.925  0.00  0.00    +0.000 HD
BRANCH  10  13
ATOM     13  C   UNL     1      55.086   1.196  18.372  0.00  0.00    +0.000 C 
ATOM     14  C   UNL     1      54.347   0.360  17.341  0.00  0.00    +0.000 C 
ATOM     15  C   UNL     1      53.511  -0.552  18.218  0.00  0.00    +0.000 C 
ATOM     16  O   UNL     1      54.283  -0.790  19.405  0.00  0.00    +0.000 OA
ATOM     17  C   UNL     1      55.368   0.151  19.433  0.00  0.00    +0.000 C 
ENDBRANCH  10  13
ENDBRANCH   8   9
ENDBRANCH   5   8
ENDBRANCH   1   2
BRANCH   1  20
ATOM     18  O   UNL     1      47.200   3.093  13.854  0.00  0.00    +0.000 OA
ATOM     19  C   UNL     1      46.749   4.124  14.339  0.00  0.00    +0.000 C 
ATOM     20  N   UNL     1      46.785   4.383  15.683  0.00  0.00    +0.000 N 
ATOM     21  H   UNL     1      46.221   5.140  16.055  0.00  0.00    +0.000 HD
BRANCH  19  22
ATOM     22  C   UNL     1      46.179   5.187  13.497  0.00  0.00    +0.000 A 
ATOM     23  C   UNL     1      46.899   6.345  13.255  0.00  0.00    +0.000 A 
ATOM     24  S   UNL     1      46.058   7.477  12.289  0.00  0.00    +0.000 S 
ATOM     25  C   UNL     1      44.724   6.433  12.126  0.00  0.00    +0.000 A 
ATOM     26  N   UNL     1      43.636   6.789  11.389  0.00  0.00    +0.000 NA
ATOM     27  C   UNL     1      42.716   5.886  11.321  0.00  0.00    +0.000 A 
ATOM     28  N   UNL     1      42.781   4.659  11.926  0.00  0.00    +0.000 N 
ATOM     29  C   UNL     1      43.842   4.268  12.707  0.00  0.00    +0.000 A 
ATOM     30  O   UNL     1      43.844   3.184  13.277  0.00  0.00    +0.000 OA
ATOM     31  C   UNL     1      44.912   5.246  12.808  0.00  0.00    +0.000 A 
ATOM     32  H   UNL     1      42.022   3.999  11.846  0.00  0.00    +0.000 HD
ENDBRANCH  19  22
ENDBRANCH   1  20
TORSDOF 6
ENDMDL
MODEL 2
REMARK VINA RESULT:    -7.172      1.677      2.587
REMARK INTER + INTRA:         -10.729
REMARK INTER:                  -9.642
REMARK INTRA:                  -1.086
REMARK UNBOUND:                -1.041
REMARK  Name = 
REMARK  6 active torsions:
REMARK  status: ('A' for Active; 'I' for Inactive)
REMARK    1  A    between atoms: C_2  and  C_20
REMARK    2  A    between atoms: N_3  and  C_4
REMARK    3  A    between atoms: C_4  and  C_5
REMARK    4  A    between atoms: C_8  and  C_9
REMARK    5  A    between atoms: C_9  and  N_10
REMARK    6  A    between atoms: C_11  and  C_13
REMARK                            x       y       z     vdW  Elec       q    Type
REMARK                         _______ _______ _______ _____ _____    ______ ____
ROOT
ATOM      1  C   UNL     1      48.810   6.247  17.134  0.00  0.00    +0.000 C 
ENDROOT
BRANCH   1   2
ATOM      2  C   UNL     1      49.483   4.907  17.287  0.00  0.00    +0.000 A 
ATOM      3  C   UNL     1      50.876   4.818  17.421  0.00  0.00    +0.000 A 
ATOM      4  C   UNL     1      51.504   3.573  17.533  0.00  0.00    +0.000 A 
ATOM      5  C   UNL     1      50.754   2.390  17.489  0.00  0.00    +0.000 A 
ATOM      6  C   UNL     1      49.364   2.480  17.342  0.00  0.00    +0.000 A 
ATOM      7  C   UNL     1      48.736   3.724  17.233  0.00  0.00    +0.000 A 
BRANCH   5   8
ATOM      8  C   UNL     1      51.421   1.044  17.569  0.00  0.00    +0.000 C 
BRANCH   8   9
ATOM      9  N   UNL     1      52.727   1.098  18.192  0.00  0.00    +0.000 N 
ATOM     10  C   UNL     1      53.792   0.502  17.553  0.00  0.00    +0.000 C 
ATOM     11  O   UNL     1      53.656  -0.051  16.461  0.00  0.00    +0.000 OA
ATOM     12  H   UNL     1      52.791   1.382  19.160  0.00  0.00    +0.000 HD
BRANCH  10  13
ATOM     13  C   UNL     1      55.157   0.665  18.218  0.00  0.00    +0.000 C 
ATOM     14  C   UNL     1      55.775  -0.685  18.539  0.00  0.00    +0.000 C 
ATOM     15  C   UNL     1      55.111  -1.028  19.859  0.00  0.00    +0.000 C 
ATOM     16  O   UNL     1      54.897   0.217  20.539  0.00  0.00    +0.000 OA
ATOM     17  C   UNL     1      55.099   1.285  19.600  0.00  0.00    +0.000 C 
ENDBRANCH  10  13
ENDBRANCH   8   9
ENDBRANCH   5   8
ENDBRANCH   1   2
BRANCH   1  20
ATOM     18  O   UNL     1      49.510   6.787  14.481  0.00  0.00    +0.000 OA
ATOM     19  C   UNL     1      48.359   6.445  14.730  0.00  0.00    +0.000 C 
ATOM     20  N   UNL     1      47.911   6.237  16.007  0.00  0.00    +0.000 N 
ATOM     21  H   UNL     1      47.028   5.760  16.149  0.00  0.00    +0.000 HD
BRANCH  19  22
ATOM     22  C   UNL     1      47.356   6.284  13.665  0.00  0.00    +0.000 A 
ATOM     23  C   UNL     1      46.943   7.379  12.926  0.00  0.00    +0.000 A 
ATOM     24  S   UNL     1      45.747   7.002  11.765  0.00  0.00    +0.000 S 
ATOM     25  C   UNL     1      45.780   5.352  12.183  0.00  0.00    +0.000 A 
ATOM     26  N   UNL     1      44.991   4.446  11.542  0.00  0.00    +0.000 NA
ATOM     27  C   UNL     1      45.147   3.227  11.937  0.00  0.00    +0.000 A 
ATOM     28  N   UNL     1      46.017   2.829  12.916  0.00  0.00    +0.000 N 
ATOM     29  C   UNL     1      46.809   3.709  13.613  0.00  0.00    +0.000 A 
ATOM     30  O   UNL     1      47.537   3.326  14.520  0.00  0.00    +0.000 OA
ATOM     31  C   UNL     1      46.679   5.097  13.201  0.00  0.00    +0.000 A 
ATOM     32  H   UNL     1      46.085   1.859  13.189  0.00  0.00    +0.000 HD
ENDBRANCH  19  22
ENDBRANCH   1  20
TORSDOF 6
ENDMDL
MODEL 3
REMARK VINA RESULT:    -6.989      4.395      9.189
REMARK INTER + INTRA:         -10.482
REMARK INTER:                  -8.891
REMARK INTRA:                  -1.591
REMARK UNBOUND:                -1.041
REMARK  Name = 
REMARK  6 active torsions:
REMARK  status: ('A' for Active; 'I' for Inactive)
REMARK    1  A    between atoms: C_2  and  C_20
REMARK    2  A    between atoms: N_3  and  C_4
REMARK    3  A    between atoms: C_4  and  C_5
REMARK    4  A    between atoms: C_8  and  C_9
REMARK    5  A    between atoms: C_9  and  N_10
REMARK    6  A    between atoms: C_11  and  C_13
REMARK                            x       y       z     vdW  Elec       q    Type
REMARK                         _______ _______ _______ _____ _____    ______ ____
ROOT
ATOM      1  C   UNL     1      49.836   7.978  13.784  0.00  0.00    +0.000 C 
ENDROOT
BRANCH   1   2
ATOM      2  C   UNL     1      48.470   7.937  13.148  0.00  0.00    +0.000 A 
ATOM      3  C   UNL     1      47.517   8.924  13.436  0.00  0.00    +0.000 A 
ATOM      4  C   UNL     1      46.239   8.868  12.870  0.00  0.00    +0.000 A 
ATOM      5  C   UNL     1      45.880   7.812  12.022  0.00  0.00    +0.000 A 
ATOM      6  C   UNL     1      46.829   6.820  11.745  0.00  0.00    +0.000 A 
ATOM      7  C   UNL     1      48.107   6.876  12.309  0.00  0.00    +0.000 A 
BRANCH   5   8
ATOM      8  C   UNL     1      44.497   7.720  11.437  0.00  0.00    +0.000 C 
BRANCH   8   9
ATOM      9  N   UNL     1      44.154   6.380  11.009  0.00  0.00    +0.000 N 
ATOM     10  C   UNL     1      43.554   5.528  11.910  0.00  0.00    +0.000 C 
ATOM     11  O   UNL     1      43.289   5.892  13.055  0.00  0.00    +0.000 OA
ATOM     12  H   UNL     1      44.542   6.034  10.141  0.00  0.00    +0.000 HD
BRANCH  10  13
ATOM     13  C   UNL     1      43.142   4.159  11.374  0.00  0.00    +0.000 C 
ATOM     14  C   UNL     1      43.664   3.043  12.262  0.00  0.00    +0.000 C 
ATOM     15  C   UNL     1      45.083   2.875  11.754  0.00  0.00    +0.000 C 
ATOM     16  O   UNL     1      45.046   3.170  10.349  0.00  0.00    +0.000 OA
ATOM     17  C   UNL     1      43.787   3.794  10.052  0.00  0.00    +0.000 C 
ENDBRANCH  10  13
ENDBRANCH   8   9
ENDBRANCH   5   8
ENDBRANCH   1   2
BRANCH   1  20
ATOM     18  O   UNL     1      49.258   8.482  16.473  0.00  0.00    +0.000 OA
ATOM     19  C   UNL     1      49.553   7.341  16.137  0.00  0.00    +0.000 C 
ATOM     20  N   UNL     1      49.925   7.022  14.858  0.00  0.00    +0.000 N 
ATOM     21  H   UNL     1      49.955   6.046  14.582  0.00  0.00    +0.000 HD
BRANCH  19  22
ATOM     22  C   UNL     1      49.577   6.233  17.106  0.00  0.00    +0.000 A 
ATOM     23  C   UNL     1      50.442   6.273  18.187  0.00  0.00    +0.000 A 
ATOM     24  S   UNL     1      50.353   4.883  19.177  0.00  0.00    +0.000 S 
ATOM     25  C   UNL     1      49.119   4.208  18.217  0.00  0.00    +0.000 A 
ATOM     26  N   UNL     1      48.564   3.004  18.528  0.00  0.00    +0.000 NA
ATOM     27  C   UNL     1      47.615   2.633  17.735  0.00  0.00    +0.000 A 
ATOM     28  N   UNL     1      47.172   3.352  16.657  0.00  0.00    +0.000 N 
ATOM     29  C   UNL     1      47.724   4.553  16.285  0.00  0.00    +0.000 A 
ATOM     30  O   UNL     1      47.340   5.145  15.284  0.00  0.00    +0.000 OA
ATOM     31  C   UNL     1      48.792   5.024  17.151  0.00  0.00    +0.000 A 
ATOM     32  H   UNL     1      46.432   3.001  16.066  0.00  0.00    +0.000 HD
ENDBRANCH  19  22
ENDBRANCH   1  20
TORSDOF 6
ENDMDL
MODEL 4
REMARK VINA RESULT:    -6.946      5.126      9.554
REMARK INTER + INTRA:         -10.424
REMARK INTER:                  -9.503
REMARK INTRA:                  -0.921
REMARK UNBOUND:                -1.041
REMARK  Name = 
REMARK  6 active torsions:
REMARK  status: ('A' for Active; 'I' for Inactive)
REMARK    1  A    between atoms: C_2  and  C_20
REMARK    2  A    between atoms: N_3  and  C_4
REMARK    3  A    between atoms: C_4  and  C_5
REMARK    4  A    between atoms: C_8  and  C_9
REMARK    5  A    between atoms: C_9  and  N_10
REMARK    6  A    between atoms: C_11  and  C_13
REMARK                            x       y       z     vdW  Elec       q    Type
REMARK                         _______ _______ _______ _____ _____    ______ ____
ROOT
ATOM      1  C   UNL     1      46.777   4.262  14.429  0.00  0.00    +0.000 C 
ENDROOT
BRANCH   1   2
ATOM      2  C   UNL     1      46.064   4.354  13.104  0.00  0.00    +0.000 A 
ATOM      3  C   UNL     1      45.524   3.209  12.502  0.00  0.00    +0.000 A 
ATOM      4  C   UNL     1      44.889   3.289  11.258  0.00  0.00    +0.000 A 
ATOM      5  C   UNL     1      44.801   4.512  10.580  0.00  0.00    +0.000 A 
ATOM      6  C   UNL     1      45.352   5.653  11.177  0.00  0.00    +0.000 A 
ATOM      7  C   UNL     1      45.984   5.574  12.421  0.00  0.00    +0.000 A 
BRANCH   5   8
ATOM      8  C   UNL     1      44.155   4.605   9.225  0.00  0.00    +0.000 C 
BRANCH   8   9
ATOM      9  N   UNL     1      44.482   3.486   8.366  0.00  0.00    +0.000 N 
ATOM     10  C   UNL     1      45.590   3.575   7.552  0.00  0.00    +0.000 C 
ATOM     11  O   UNL     1      46.311   4.573   7.560  0.00  0.00    +0.000 OA
ATOM     12  H   UNL     1      43.790   2.762   8.229  0.00  0.00    +0.000 HD
BRANCH  10  13
ATOM     13  C   UNL     1      45.929   2.332   6.734  0.00  0.00    +0.000 C 
ATOM     14  C   UNL     1      47.007   1.505   7.412  0.00  0.00    +0.000 C 
ATOM     15  C   UNL     1      48.272   2.211   6.966  0.00  0.00    +0.000 C 
ATOM     16  O   UNL     1      48.010   2.714   5.648  0.00  0.00    +0.000 OA
ATOM     17  C   UNL     1      46.596   2.630   5.406  0.00  0.00    +0.000 C 
ENDBRANCH  10  13
ENDBRANCH   8   9
ENDBRANCH   5   8
ENDBRANCH   1   2
BRANCH   1  20
ATOM     18  O   UNL     1      48.673   4.660  16.446  0.00  0.00    +0.000 OA
ATOM     19  C   UNL     1      48.391   5.597  15.708  0.00  0.00    +0.000 C 
ATOM     20  N   UNL     1      47.420   5.512  14.746  0.00  0.00    +0.000 N 
ATOM     21  H   UNL     1      47.369   6.231  14.033  0.00  0.00    +0.000 HD
BRANCH  19  22
ATOM     22  C   UNL     1      49.049   6.907  15.840  0.00  0.00    +0.000 A 
ATOM     23  C   UNL     1      49.204   7.485  17.089  0.00  0.00    +0.000 A 
ATOM     24  S   UNL     1      49.954   9.020  17.037  0.00  0.00    +0.000 S 
ATOM     25  C   UNL     1      50.139   8.936  15.346  0.00  0.00    +0.000 A 
ATOM     26  N   UNL     1      50.739   9.942  14.652  0.00  0.00    +0.000 NA
ATOM     27  C   UNL     1      50.843   9.727  13.383  0.00  0.00    +0.000 A 
ATOM     28  N   UNL     1      50.400   8.601  12.743  0.00  0.00    +0.000 N 
ATOM     29  C   UNL     1      49.760   7.576  13.395  0.00  0.00    +0.000 A 
ATOM     30  O   UNL     1      49.328   6.606  12.784  0.00  0.00    +0.000 OA
ATOM     31  C   UNL     1      49.623   7.762  14.830  0.00  0.00    +0.000 A 
ATOM     32  H   UNL     1      50.501   8.497  11.744  0.00  0.00    +0.000 HD
ENDBRANCH  19  22
ENDBRANCH   1  20
TORSDOF 6
ENDMDL
MODEL 5
REMARK VINA RESULT:    -6.873      4.734      9.414
REMARK INTER + INTRA:         -10.325
REMARK INTER:                  -9.171
REMARK INTRA:                  -1.154
REMARK UNBOUND:                -1.041
REMARK  Name = 
REMARK  6 active torsions:
REMARK  status: ('A' for Active; 'I' for Inactive)
REMARK    1  A    between atoms: C_2  and  C_20
REMARK    2  A    between atoms: N_3  and  C_4
REMARK    3  A    between atoms: C_4  and  C_5
REMARK    4  A    between atoms: C_8  and  C_9
REMARK    5  A    between atoms: C_9  and  N_10
REMARK    6  A    between atoms: C_11  and  C_13
REMARK                            x       y       z     vdW  Elec       q    Type
REMARK                         _______ _______ _______ _____ _____    ______ ____
ROOT
ATOM      1  C   UNL     1      47.367   3.805  15.434  0.00  0.00    +0.000 C 
ENDROOT
BRANCH   1   2
ATOM      2  C   UNL     1      46.746   4.385  14.189  0.00  0.00    +0.000 A 
ATOM      3  C   UNL     1      45.938   3.596  13.359  0.00  0.00    +0.000 A 
ATOM      4  C   UNL     1      45.386   4.126  12.188  0.00  0.00    +0.000 A 
ATOM      5  C   UNL     1      45.649   5.450  11.811  0.00  0.00    +0.000 A 
ATOM      6  C   UNL     1      46.467   6.233  12.635  0.00  0.00    +0.000 A 
ATOM      7  C   UNL     1      47.017   5.705  13.807  0.00  0.00    +0.000 A 
BRANCH   5   8
ATOM      8  C   UNL     1      45.094   6.020  10.535  0.00  0.00    +0.000 C 
BRANCH   8   9
ATOM      9  N   UNL     1      44.664   4.999   9.602  0.00  0.00    +0.000 N 
ATOM     10  C   UNL     1      45.476   4.694   8.531  0.00  0.00    +0.000 C 
ATOM     11  O   UNL     1      46.560   5.254   8.371  0.00  0.00    +0.000 OA
ATOM     12  H   UNL     1      43.703   4.686   9.634  0.00  0.00    +0.000 HD
BRANCH  10  13
ATOM     13  C   UNL     1      45.008   3.554   7.631  0.00  0.00    +0.000 C 
ATOM     14  C   UNL     1      44.539   2.364   8.452  0.00  0.00    +0.000 C 
ATOM     15  C   UNL     1      45.847   1.659   8.757  0.00  0.00    +0.000 C 
ATOM     16  O   UNL     1      46.700   1.883   7.625  0.00  0.00    +0.000 OA
ATOM     17  C   UNL     1      46.115   2.916   6.816  0.00  0.00    +0.000 C 
ENDBRANCH  10  13
ENDBRANCH   8   9
ENDBRANCH   5   8
ENDBRANCH   1   2
BRANCH   1  20
ATOM     18  O   UNL     1      49.571   4.650  16.934  0.00  0.00    +0.000 OA
ATOM     19  C   UNL     1      48.481   5.170  17.144  0.00  0.00    +0.000 C 
ATOM     20  N   UNL     1      47.337   4.763  16.510  0.00  0.00    +0.000 N 
ATOM     21  H   UNL     1      46.511   5.351  16.557  0.00  0.00    +0.000 HD
BRANCH  19  22
ATOM     22  C   UNL     1      48.316   6.244  18.136  0.00  0.00    +0.000 A 
ATOM     23  C   UNL     1      48.118   5.933  19.471  0.00  0.00    +0.000 A 
ATOM     24  S   UNL     1      47.910   7.308  20.464  0.00  0.00    +0.000 S 
ATOM     25  C   UNL     1      48.127   8.363  19.146  0.00  0.00    +0.000 A 
ATOM     26  N   UNL     1      48.088   9.714  19.310  0.00  0.00    +0.000 NA
ATOM     27  C   UNL     1      48.305  10.391  18.232  0.00  0.00    +0.000 A 
ATOM     28  N   UNL     1      48.554   9.842  17.003  0.00  0.00    +0.000 N 
ATOM     29  C   UNL     1      48.570   8.486  16.782  0.00  0.00    +0.000 A 
ATOM     30  O   UNL     1      48.744   8.029  15.659  0.00  0.00    +0.000 OA
ATOM     31  C   UNL     1      48.341   7.676  17.966  0.00  0.00    +0.000 A 
ATOM     32  H   UNL     1      48.705  10.426  16.194  0.00  0.00    +0.000 HD
ENDBRANCH  19  22
ENDBRANCH   1  20
TORSDOF 6
ENDMDL
MODEL 6
REMARK VINA RESULT:    -6.700      3.596      9.811
REMARK INTER + INTRA:         -10.091
REMARK INTER:                  -8.889
REMARK INTRA:                  -1.202
REMARK UNBOUND:                -1.041
REMARK  Name = 
REMARK  6 active torsions:
REMARK  status: ('A' for Active; 'I' for Inactive)
REMARK    1  A    between atoms: C_2  and  C_20
REMARK    2  A    between atoms: N_3  and  C_4
REMARK    3  A    between atoms: C_4  and  C_5
REMARK    4  A    between atoms: C_8  and  C_9
REMARK    5  A    between atoms: C_9  and  N_10
REMARK    6  A    between atoms: C_11  and  C_13
REMARK                            x       y       z     vdW  Elec       q    Type
REMARK                         _______ _______ _______ _____ _____    ______ ____
ROOT
ATOM      1  C   UNL     1      47.265   4.056  15.739  0.00  0.00    +0.000 C 
ENDROOT
BRANCH   1   2
ATOM      2  C   UNL     1      46.798   4.621  14.421  0.00  0.00    +0.000 A 
ATOM      3  C   UNL     1      45.997   3.858  13.560  0.00  0.00    +0.000 A 
ATOM      4  C   UNL     1      45.588   4.372  12.324  0.00  0.00    +0.000 A 
ATOM      5  C   UNL     1      45.992   5.650  11.915  0.00  0.00    +0.000 A 
ATOM      6  C   UNL     1      46.802   6.405  12.771  0.00  0.00    +0.000 A 
ATOM      7  C   UNL     1      47.209   5.894  14.007  0.00  0.00    +0.000 A 
BRANCH   5   8
ATOM      8  C   UNL     1      45.591   6.198  10.573  0.00  0.00    +0.000 C 
BRANCH   8   9
ATOM      9  N   UNL     1      44.971   5.205   9.720  0.00  0.00    +0.000 N 
ATOM     10  C   UNL     1      45.646   4.781   8.596  0.00  0.00    +0.000 C 
ATOM     11  O   UNL     1      46.765   5.212   8.321  0.00  0.00    +0.000 OA
ATOM     12  H   UNL     1      43.989   5.001   9.848  0.00  0.00    +0.000 HD
BRANCH  10  13
ATOM     13  C   UNL     1      44.977   3.674   7.785  0.00  0.00    +0.000 C 
ATOM     14  C   UNL     1      44.527   2.532   8.680  0.00  0.00    +0.000 C 
ATOM     15  C   UNL     1      45.803   1.728   8.829  0.00  0.00    +0.000 C 
ATOM     16  O   UNL     1      46.519   1.873   7.593  0.00  0.00    +0.000 OA
ATOM     17  C   UNL     1      45.917   2.943   6.847  0.00  0.00    +0.000 C 
ENDBRANCH  10  13
ENDBRANCH   8   9
ENDBRANCH   5   8
ENDBRANCH   1   2
BRANCH   1  20
ATOM     18  O   UNL     1      47.193   5.108  18.329  0.00  0.00    +0.000 OA
ATOM     19  C   UNL     1      48.180   5.320  17.633  0.00  0.00    +0.000 C 
ATOM     20  N   UNL     1      48.266   4.908  16.330  0.00  0.00    +0.000 N 
ATOM     21  H   UNL     1      49.168   4.920  15.867  0.00  0.00    +0.000 HD
BRANCH  19  22
ATOM     22  C   UNL     1      49.332   6.082  18.141  0.00  0.00    +0.000 A 
ATOM     23  C   UNL     1      49.138   7.308  18.756  0.00  0.00    +0.000 A 
ATOM     24  S   UNL     1      50.594   8.059  19.243  0.00  0.00    +0.000 S 
ATOM     25  C   UNL     1      51.524   6.745  18.690  0.00  0.00    +0.000 A 
ATOM     26  N   UNL     1      52.879   6.735  18.823  0.00  0.00    +0.000 NA
ATOM     27  C   UNL     1      53.451   5.660  18.393  0.00  0.00    +0.000 A 
ATOM     28  N   UNL     1      52.793   4.594  17.840  0.00  0.00    +0.000 N 
ATOM     29  C   UNL     1      51.432   4.573  17.655  0.00  0.00    +0.000 A 
ATOM     30  O   UNL     1      50.882   3.625  17.108  0.00  0.00    +0.000 OA
ATOM     31  C   UNL     1      50.737   5.756  18.131  0.00  0.00    +0.000 A 
ATOM     32  H   UNL     1      53.299   3.785  17.511  0.00  0.00    +0.000 HD
ENDBRANCH  19  22
ENDBRANCH   1  20
TORSDOF 6
ENDMDL
MODEL 7
REMARK VINA RESULT:    -6.685      3.445      4.859
REMARK INTER + INTRA:         -10.071
REMARK INTER:                  -8.828
REMARK INTRA:                  -1.243
REMARK UNBOUND:                -1.041
REMARK  Name = 
REMARK  6 active torsions:
REMARK  status: ('A' for Active; 'I' for Inactive)
REMARK    1  A    between atoms: C_2  and  C_20
REMARK    2  A    between atoms: N_3  and  C_4
REMARK    3  A    between atoms: C_4  and  C_5
REMARK    4  A    between atoms: C_8  and  C_9
REMARK    5  A    between atoms: C_9  and  N_10
REMARK    6  A    between atoms: C_11  and  C_13
REMARK                            x       y       z     vdW  Elec       q    Type
REMARK                         _______ _______ _______ _____ _____    ______ ____
ROOT
ATOM      1  C   UNL     1      48.232   8.241  11.869  0.00  0.00    +0.000 C 
ENDROOT
BRANCH   1   2
ATOM      2  C   UNL     1      48.825   8.012  13.236  0.00  0.00    +0.000 A 
ATOM      3  C   UNL     1      50.214   8.002  13.420  0.00  0.00    +0.000 A 
ATOM      4  C   UNL     1      50.764   7.759  14.684  0.00  0.00    +0.000 A 
ATOM      5  C   UNL     1      49.936   7.498  15.784  0.00  0.00    +0.000 A 
ATOM      6  C   UNL     1      48.548   7.497  15.595  0.00  0.00    +0.000 A 
ATOM      7  C   UNL     1      47.998   7.742  14.334  0.00  0.00    +0.000 A 
BRANCH   5   8
ATOM      8  C   UNL     1      50.516   7.198  17.139  0.00  0.00    +0.000 C 
BRANCH   8   9
ATOM      9  N   UNL     1      49.952   6.008  17.742  0.00  0.00    +0.000 N 
ATOM     10  C   UNL     1      50.608   4.807  17.581  0.00  0.00    +0.000 C 
ATOM     11  O   UNL     1      51.666   4.735  16.958  0.00  0.00    +0.000 OA
ATOM     12  H   UNL     1      49.000   6.042  18.083  0.00  0.00    +0.000 HD
BRANCH  10  13
ATOM     13  C   UNL     1      50.008   3.607  18.310  0.00  0.00    +0.000 C 
ATOM     14  C   UNL     1      49.699   2.477  17.344  0.00  0.00    +0.000 C 
ATOM     15  C   UNL     1      48.346   2.891  16.798  0.00  0.00    +0.000 C 
ATOM     16  O   UNL     1      47.672   3.573  17.866  0.00  0.00    +0.000 OA
ATOM     17  C   UNL     1      48.633   3.864  18.894  0.00  0.00    +0.000 C 
ENDBRANCH  10  13
ENDBRANCH   8   9
ENDBRANCH   5   8
ENDBRANCH   1   2
BRANCH   1  20
ATOM     18  O   UNL     1      45.459   7.885  11.796  0.00  0.00    +0.000 OA
ATOM     19  C   UNL     1      46.180   7.002  11.343  0.00  0.00    +0.000 C 
ATOM     20  N   UNL     1      47.546   7.060  11.409  0.00  0.00    +0.000 N 
ATOM     21  H   UNL     1      48.095   6.421  10.844  0.00  0.00    +0.000 HD
BRANCH  19  22
ATOM     22  C   UNL     1      45.619   5.784  10.738  0.00  0.00    +0.000 A 
ATOM     23  C   UNL     1      45.843   5.505   9.400  0.00  0.00    +0.000 A 
ATOM     24  S   UNL     1      45.081   4.070   8.870  0.00  0.00    +0.000 S 
ATOM     25  C   UNL     1      44.467   3.753  10.426  0.00  0.00    +0.000 A 
ATOM     26  N   UNL     1      43.723   2.641  10.677  0.00  0.00    +0.000 NA
ATOM     27  C   UNL     1      43.355   2.510  11.908  0.00  0.00    +0.000 A 
ATOM     28  N   UNL     1      43.661   3.390  12.912  0.00  0.00    +0.000 N 
ATOM     29  C   UNL     1      44.380   4.541  12.700  0.00  0.00    +0.000 A 
ATOM     30  O   UNL     1      44.590   5.334  13.610  0.00  0.00    +0.000 OA
ATOM     31  C   UNL     1      44.827   4.734  11.331  0.00  0.00    +0.000 A 
ATOM     32  H   UNL     1      43.334   3.237  13.854  0.00  0.00    +0.000 HD
ENDBRANCH  19  22
ENDBRANCH   1  20
TORSDOF 6
ENDMDL
MODEL 8
REMARK VINA RESULT:    -6.620      6.986      8.142
REMARK INTER + INTRA:          -9.984
REMARK INTER:                  -8.861
REMARK INTRA:                  -1.123
REMARK UNBOUND:                -1.041
REMARK  Name = 
REMARK  6 active torsions:
REMARK  status: ('A' for Active; 'I' for Inactive)
REMARK    1  A    between atoms: C_2  and  C_20
REMARK    2  A    between atoms: N_3  and  C_4
REMARK    3  A    between atoms: C_4  and  C_5
REMARK    4  A    between atoms: C_8  and  C_9
REMARK    5  A    between atoms: C_9  and  N_10
REMARK    6  A    between atoms: C_11  and  C_13
REMARK                            x       y       z     vdW  Elec       q    Type
REMARK                         _______ _______ _______ _____ _____    ______ ____
ROOT
ATOM      1  C   UNL     1      46.332   8.304  12.935  0.00  0.00    +0.000 C 
ENDROOT
BRANCH   1   2
ATOM      2  C   UNL     1      47.726   8.408  12.370  0.00  0.00    +0.000 A 
ATOM      3  C   UNL     1      48.584   7.299  12.374  0.00  0.00    +0.000 A 
ATOM      4  C   UNL     1      49.888   7.404  11.878  0.00  0.00    +0.000 A 
ATOM      5  C   UNL     1      50.369   8.626  11.389  0.00  0.00    +0.000 A 
ATOM      6  C   UNL     1      49.515   9.736  11.398  0.00  0.00    +0.000 A 
ATOM      7  C   UNL     1      48.211   9.631  11.891  0.00  0.00    +0.000 A 
BRANCH   5   8
ATOM      8  C   UNL     1      51.780   8.762  10.889  0.00  0.00    +0.000 C 
BRANCH   8   9
ATOM      9  N   UNL     1      52.065   7.896   9.763  0.00  0.00    +0.000 N 
ATOM     10  C   UNL     1      53.355   7.447   9.581  0.00  0.00    +0.000 C 
ATOM     11  O   UNL     1      54.255   7.750  10.365  0.00  0.00    +0.000 OA
ATOM     12  H   UNL     1      51.374   7.810   9.031  0.00  0.00    +0.000 HD
BRANCH  10  13
ATOM     13  C   UNL     1      53.574   6.473   8.427  0.00  0.00    +0.000 C 
ATOM     14  C   UNL     1      54.589   7.016   7.435  0.00  0.00    +0.000 C 
ATOM     15  C   UNL     1      53.733   7.926   6.576  0.00  0.00    +0.000 C 
ATOM     16  O   UNL     1      52.431   7.323   6.523  0.00  0.00    +0.000 OA
ATOM     17  C   UNL     1      52.366   6.298   7.528  0.00  0.00    +0.000 C 
ENDBRANCH  10  13
ENDBRANCH   8   9
ENDBRANCH   5   8
ENDBRANCH   1   2
BRANCH   1  20
ATOM     18  O   UNL     1      44.302   7.661  11.122  0.00  0.00    +0.000 OA
ATOM     19  C   UNL     1      44.843   6.756  11.747  0.00  0.00    +0.000 C 
ATOM     20  N   UNL     1      45.791   6.988  12.708  0.00  0.00    +0.000 N 
ATOM     21  H   UNL     1      46.353   6.213  13.043  0.00  0.00    +0.000 HD
BRANCH  19  22
ATOM     22  C   UNL     1      44.473   5.347  11.540  0.00  0.00    +0.000 A 
ATOM     23  C   UNL     1      43.704   4.684  12.482  0.00  0.00    +0.000 A 
ATOM     24  S   UNL     1      43.409   3.047  12.086  0.00  0.00    +0.000 S 
ATOM     25  C   UNL     1      44.261   3.189  10.618  0.00  0.00    +0.000 A 
ATOM     26  N   UNL     1      44.377   2.134   9.766  0.00  0.00    +0.000 NA
ATOM     27  C   UNL     1      45.017   2.395   8.676  0.00  0.00    +0.000 A 
ATOM     28  N   UNL     1      45.554   3.614   8.359  0.00  0.00    +0.000 N 
ATOM     29  C   UNL     1      45.491   4.698   9.201  0.00  0.00    +0.000 A 
ATOM     30  O   UNL     1      46.029   5.759   8.910  0.00  0.00    +0.000 OA
ATOM     31  C   UNL     1      44.772   4.461  10.441  0.00  0.00    +0.000 A 
ATOM     32  H   UNL     1      46.055   3.753   7.493  0.00  0.00    +0.000 HD
ENDBRANCH  19  22
ENDBRANCH   1  20
TORSDOF 6
ENDMDL
MODEL 9
REMARK VINA RESULT:    -6.570      3.872      5.462
REMARK INTER + INTRA:          -9.916
REMARK INTER:                  -8.750
REMARK INTRA:                  -1.166
REMARK UNBOUND:                -1.041
REMARK  Name = 
REMARK  6 active torsions:
REMARK  status: ('A' for Active; 'I' for Inactive)
REMARK    1  A    between atoms: C_2  and  C_20
REMARK    2  A    between atoms: N_3  and  C_4
REMARK    3  A    between atoms: C_4  and  C_5
REMARK    4  A    between atoms: C_8  and  C_9
REMARK    5  A    between atoms: C_9  and  N_10
REMARK    6  A    between atoms: C_11  and  C_13
REMARK                            x       y       z     vdW  Elec       q    Type
REMARK                         _______ _______ _______ _____ _____    ______ ____
ROOT
ATOM      1  C   UNL     1      47.305   7.846  11.955  0.00  0.00    +0.000 C 
ENDROOT
BRANCH   1   2
ATOM      2  C   UNL     1      47.966   7.942  13.307  0.00  0.00    +0.000 A 
ATOM      3  C   UNL     1      47.794   9.081  14.107  0.00  0.00    +0.000 A 
ATOM      4  C   UNL     1      48.431   9.183  15.348  0.00  0.00    +0.000 A 
ATOM      5  C   UNL     1      49.271   8.159  15.805  0.00  0.00    +0.000 A 
ATOM      6  C   UNL     1      49.452   7.028  15.000  0.00  0.00    +0.000 A 
ATOM      7  C   UNL     1      48.814   6.924  13.760  0.00  0.00    +0.000 A 
BRANCH   5   8
ATOM      8  C   UNL     1      49.993   8.274  17.120  0.00  0.00    +0.000 C 
BRANCH   8   9
ATOM      9  N   UNL     1      50.356   6.989  17.678  0.00  0.00    +0.000 N 
ATOM     10  C   UNL     1      49.440   6.324  18.465  0.00  0.00    +0.000 C 
ATOM     11  O   UNL     1      48.322   6.792  18.680  0.00  0.00    +0.000 OA
ATOM     12  H   UNL     1      51.326   6.706  17.655  0.00  0.00    +0.000 HD
BRANCH  10  13
ATOM     13  C   UNL     1      49.851   4.938  18.955  0.00  0.00    +0.000 C 
ATOM     14  C   UNL     1      50.343   4.073  17.807  0.00  0.00    +0.000 C 
ATOM     15  C   UNL     1      49.043   3.546  17.232  0.00  0.00    +0.000 C 
ATOM     16  O   UNL     1      48.139   3.406  18.339  0.00  0.00    +0.000 OA
ATOM     17  C   UNL     1      48.698   4.098  19.468  0.00  0.00    +0.000 C 
ENDBRANCH  10  13
ENDBRANCH   8   9
ENDBRANCH   5   8
ENDBRANCH   1   2
BRANCH   1  20
ATOM     18  O   UNL     1      44.541   7.483  11.740  0.00  0.00    +0.000 OA
ATOM     19  C   UNL     1      45.273   6.505  11.641  0.00  0.00    +0.000 C 
ATOM     20  N   UNL     1      46.630   6.581  11.810  0.00  0.00    +0.000 N 
ATOM     21  H   UNL     1      47.208   5.801  11.516  0.00  0.00    +0.000 HD
BRANCH  19  22
ATOM     22  C   UNL     1      44.734   5.161  11.381  0.00  0.00    +0.000 A 
ATOM     23  C   UNL     1      43.937   4.536  12.325  0.00  0.00    +0.000 A 
ATOM     24  S   UNL     1      43.438   2.969  11.861  0.00  0.00    +0.000 S 
ATOM     25  C   UNL     1      44.234   3.098  10.362  0.00  0.00    +0.000 A 
ATOM     26  N   UNL     1      44.190   2.086   9.451  0.00  0.00    +0.000 NA
ATOM     27  C   UNL     1      44.806   2.336   8.344  0.00  0.00    +0.000 A 
ATOM     28  N   UNL     1      45.466   3.502   8.064  0.00  0.00    +0.000 N 
ATOM     29  C   UNL     1      45.566   4.536   8.963  0.00  0.00    +0.000 A 
ATOM     30  O   UNL     1      46.209   5.545   8.700  0.00  0.00    +0.000 OA
ATOM     31  C   UNL     1      44.880   4.312  10.224  0.00  0.00    +0.000 A 
ATOM     32  H   UNL     1      45.940   3.633   7.182  0.00  0.00    +0.000 HD
ENDBRANCH  19  22
ENDBRANCH   1  20
TORSDOF 6
ENDMDL
