MODEL 1
REMARK VINA RESULT:    -7.764      0.000      0.000
REMARK INTER + INTRA:         -12.265
REMARK INTER:                 -11.621
REMARK INTRA:                  -0.644
REMARK UNBOUND:                -0.644
REMARK  Name = 
REMARK  10 active torsions:
REMARK  status: ('A' for Active; 'I' for Inactive)
REMARK    1  A    between atoms: C_1  and  C_2
REMARK    2  A    between atoms: C_2  and  O_3
REMARK    3  A    between atoms: C_5  and  O_6
REMARK    4  A    between atoms: O_6  and  C_7
REMARK    5  A    between atoms: C_9  and  C_10
REMARK    6  A    between atoms: C_13  and  C_14
REMARK    7  A    between atoms: C_14  and  C_17
REMARK    8  A    between atoms: C_17  and  N_18
REMARK    9  A    between atoms: N_18  and  C_19
REMARK   10  A    between atoms: C_24  and  C_25
REMARK                            x       y       z     vdW  Elec       q    Type
REMARK                         _______ _______ _______ _____ _____    ______ ____
ROOT
ATOM      1  C   UNL     1      46.799   5.058  14.348  0.00  0.00    +0.000 A 
ATOM      2  C   UNL     1      47.953   5.829  14.255  0.00  0.00    +0.000 A 
ATOM      3  C   UNL     1      48.183   6.596  13.108  0.00  0.00    +0.000 A 
ATOM      4  C   UNL     1      47.257   6.582  12.054  0.00  0.00    +0.000 A 
ATOM      5  C   UNL     1      46.097   5.791  12.127  0.00  0.00    +0.000 A 
ATOM      6  C   UNL     1      45.895   5.025  13.288  0.00  0.00    +0.000 A 
ENDROOT
BRANCH   5   7
ATOM      7  C   UNL     1      45.109   5.806  10.963  0.00  0.00    +0.000 C 
ATOM      8  F   UNL     1      44.153   4.844  11.135  0.00  0.00    +0.000 F 
ATOM      9  F   UNL     1      44.424   6.992  10.921  0.00  0.00    +0.000 F 
BRANCH   7  10
ATOM     10  C   UNL     1      45.772   5.599   9.578  0.00  0.00    +0.000 C 
BRANCH  10  11
ATOM     11  N   UNL     1      45.002   4.774   8.624  0.00  0.00    +0.000 N 
ATOM     12  H   UNL     1      44.604   5.333   7.870  0.00  0.00    +0.000 HD
BRANCH  11  13
ATOM     13  C   UNL     1      45.748   3.687   8.121  0.00  0.00    +0.000 A 
ATOM     14  N   UNL     1      46.727   3.947   7.219  0.00  0.00    +0.000 NA
ATOM     15  C   UNL     1      47.477   2.925   6.752  0.00  0.00    +0.000 A 
ATOM     16  C   UNL     1      47.316   1.616   7.153  0.00  0.00    +0.000 A 
ATOM     17  C   UNL     1      46.325   1.344   8.088  0.00  0.00    +0.000 A 
ATOM     18  C   UNL     1      45.527   2.385   8.583  0.00  0.00    +0.000 A 
BRANCH  18  19
ATOM     19  C   UNL     1      44.514   2.085   9.547  0.00  0.00    +0.000 C 
ATOM     20  N   UNL     1      43.717   1.863  10.361  0.00  0.00    +0.000 NA
ENDBRANCH  18  19
ENDBRANCH  11  13
ENDBRANCH  10  11
ENDBRANCH   7  10
ENDBRANCH   5   7
BRANCH   3  21
ATOM     21  C   UNL     1      49.365   7.404  13.014  0.00  0.00    +0.000 C 
ATOM     22  N   UNL     1      50.320   8.056  12.934  0.00  0.00    +0.000 NA
ENDBRANCH   3  21
BRANCH   1  23
ATOM     23  O   UNL     1      46.613   4.347  15.510  0.00  0.00    +0.000 OA
BRANCH  23  27
ATOM     24  C   UNL     1      48.509   4.338  19.599  0.00  0.00    +0.000 C 
ATOM     25  C   UNL     1      47.721   4.454  18.305  0.00  0.00    +0.000 C 
ATOM     26  C   UNL     1      47.567   3.117  17.537  0.00  0.00    +0.000 C 
ATOM     27  C   UNL     1      47.798   3.907  16.223  0.00  0.00    +0.000 C 
ATOM     28  C   UNL     1      48.513   4.978  17.080  0.00  0.00    +0.000 C 
BRANCH  25  29
ATOM     29  O   UNL     1      46.494   5.170  18.565  0.00  0.00    +0.000 OA
ATOM     30  H   UNL     1      46.744   6.107  18.636  0.00  0.00    +0.000 HD
ENDBRANCH  25  29
ENDBRANCH  23  27
ENDBRANCH   1  23
TORSDOF 9
ENDMDL
MODEL 2
REMARK VINA RESULT:    -7.685      1.787      2.543
REMARK INTER + INTRA:         -12.147
REMARK INTER:                 -10.995
REMARK INTRA:                  -1.152
REMARK UNBOUND:                -0.644
REMARK  Name = 
REMARK  10 active torsions:
REMARK  status: ('A' for Active; 'I' for Inactive)
REMARK    1  A    between atoms: C_1  and  C_2
REMARK    2  A    between atoms: C_2  and  O_3
REMARK    3  A    between atoms: C_5  and  O_6
REMARK    4  A    between atoms: O_6  and  C_7
REMARK    5  A    between atoms: C_9  and  C_10
REMARK    6  A    between atoms: C_13  and  C_14
REMARK    7  A    between atoms: C_14  and  C_17
REMARK    8  A    between atoms: C_17  and  N_18
REMARK    9  A    between atoms: N_18  and  C_19
REMARK   10  A    between atoms: C_24  and  C_25
REMARK                            x       y       z     vdW  Elec       q    Type
REMARK                         _______ _______ _______ _____ _____    ______ ____
ROOT
ATOM      1  C   UNL     1      46.851   5.143  13.817  0.00  0.00    +0.000 A 
ATOM      2  C   UNL     1      46.776   6.500  13.521  0.00  0.00    +0.000 A 
ATOM      3  C   UNL     1      45.825   6.959  12.605  0.00  0.00    +0.000 A 
ATOM      4  C   UNL     1      44.952   6.052  11.983  0.00  0.00    +0.000 A 
ATOM      5  C   UNL     1      45.030   4.676  12.258  0.00  0.00    +0.000 A 
ATOM      6  C   UNL     1      46.001   4.242  13.177  0.00  0.00    +0.000 A 
ENDROOT
BRANCH   5   7
ATOM      7  C   UNL     1      44.061   3.720  11.567  0.00  0.00    +0.000 C 
ATOM      8  F   UNL     1      43.126   3.264  12.453  0.00  0.00    +0.000 F 
ATOM      9  F   UNL     1      43.349   4.369  10.593  0.00  0.00    +0.000 F 
BRANCH   7  10
ATOM     10  C   UNL     1      44.750   2.499  10.907  0.00  0.00    +0.000 C 
BRANCH  10  11
ATOM     11  N   UNL     1      44.370   2.238   9.503  0.00  0.00    +0.000 N 
ATOM     12  H   UNL     1      43.797   2.988   9.117  0.00  0.00    +0.000 HD
BRANCH  11  13
ATOM     13  C   UNL     1      45.482   1.964   8.681  0.00  0.00    +0.000 A 
ATOM     14  N   UNL     1      45.755   0.667   8.386  0.00  0.00    +0.000 NA
ATOM     15  C   UNL     1      46.794   0.385   7.571  0.00  0.00    +0.000 A 
ATOM     16  C   UNL     1      47.598   1.348   6.999  0.00  0.00    +0.000 A 
ATOM     17  C   UNL     1      47.317   2.678   7.284  0.00  0.00    +0.000 A 
ATOM     18  C   UNL     1      46.249   2.999   8.134  0.00  0.00    +0.000 A 
BRANCH  18  19
ATOM     19  C   UNL     1      45.972   4.374   8.413  0.00  0.00    +0.000 C 
ATOM     20  N   UNL     1      45.710   5.477   8.661  0.00  0.00    +0.000 NA
ENDBRANCH  18  19
ENDBRANCH  11  13
ENDBRANCH  10  11
ENDBRANCH   7  10
ENDBRANCH   5   7
BRANCH   3  21
ATOM     21  C   UNL     1      45.734   8.359  12.308  0.00  0.00    +0.000 C 
ATOM     22  N   UNL     1      45.661   9.490  12.064  0.00  0.00    +0.000 NA
ENDBRANCH   3  21
BRANCH   1  23
ATOM     23  O   UNL     1      47.788   4.754  14.745  0.00  0.00    +0.000 OA
BRANCH  23  27
ATOM     24  C   UNL     1      49.027   3.481  18.888  0.00  0.00    +0.000 C 
ATOM     25  C   UNL     1      48.799   3.985  17.472  0.00  0.00    +0.000 C 
ATOM     26  C   UNL     1      47.463   4.747  17.280  0.00  0.00    +0.000 C 
ATOM     27  C   UNL     1      47.315   4.032  15.911  0.00  0.00    +0.000 C 
ATOM     28  C   UNL     1      48.259   2.939  16.464  0.00  0.00    +0.000 C 
BRANCH  25  29
ATOM     29  O   UNL     1      49.984   4.680  17.025  0.00  0.00    +0.000 OA
ATOM     30  H   UNL     1      50.736   4.147  17.335  0.00  0.00    +0.000 HD
ENDBRANCH  25  29
ENDBRANCH  23  27
ENDBRANCH   1  23
TORSDOF 9
ENDMDL
MODEL 3
REMARK VINA RESULT:    -7.524      1.659      2.073
REMARK INTER + INTRA:         -11.907
REMARK INTER:                 -11.125
REMARK INTRA:                  -0.782
REMARK UNBOUND:                -0.644
REMARK  Name = 
REMARK  10 active torsions:
REMARK  status: ('A' for Active; 'I' for Inactive)
REMARK    1  A    between atoms: C_1  and  C_2
REMARK    2  A    between atoms: C_2  and  O_3
REMARK    3  A    between atoms: C_5  and  O_6
REMARK    4  A    between atoms: O_6  and  C_7
REMARK    5  A    between atoms: C_9  and  C_10
REMARK    6  A    between atoms: C_13  and  C_14
REMARK    7  A    between atoms: C_14  and  C_17
REMARK    8  A    between atoms: C_17  and  N_18
REMARK    9  A    between atoms: N_18  and  C_19
REMARK   10  A    between atoms: C_24  and  C_25
REMARK                            x       y       z     vdW  Elec       q    Type
REMARK                         _______ _______ _______ _____ _____    ______ ____
ROOT
ATOM      1  C   UNL     1      48.795   6.663  14.360  0.00  0.00    +0.000 A 
ATOM      2  C   UNL     1      49.342   7.742  13.675  0.00  0.00    +0.000 A 
ATOM      3  C   UNL     1      48.702   8.235  12.533  0.00  0.00    +0.000 A 
ATOM      4  C   UNL     1      47.515   7.639  12.079  0.00  0.00    +0.000 A 
ATOM      5  C   UNL     1      46.963   6.535  12.751  0.00  0.00    +0.000 A 
ATOM      6  C   UNL     1      47.631   6.056  13.890  0.00  0.00    +0.000 A 
ENDROOT
BRANCH   5   7
ATOM      7  C   UNL     1      45.667   5.916  12.230  0.00  0.00    +0.000 C 
ATOM      8  F   UNL     1      45.688   4.559  12.389  0.00  0.00    +0.000 F 
ATOM      9  F   UNL     1      44.593   6.349  12.963  0.00  0.00    +0.000 F 
BRANCH   7  10
ATOM     10  C   UNL     1      45.376   6.234  10.742  0.00  0.00    +0.000 C 
BRANCH  10  11
ATOM     11  N   UNL     1      44.358   5.379  10.098  0.00  0.00    +0.000 N 
ATOM     12  H   UNL     1      43.692   5.924   9.551  0.00  0.00    +0.000 HD
BRANCH  11  13
ATOM     13  C   UNL     1      44.926   4.339   9.333  0.00  0.00    +0.000 A 
ATOM     14  N   UNL     1      45.761   4.677   8.317  0.00  0.00    +0.000 NA
ATOM     15  C   UNL     1      46.344   3.695   7.595  0.00  0.00    +0.000 A 
ATOM     16  C   UNL     1      46.152   2.352   7.839  0.00  0.00    +0.000 A 
ATOM     17  C   UNL     1      45.310   1.999   8.886  0.00  0.00    +0.000 A 
ATOM     18  C   UNL     1      44.686   2.997   9.647  0.00  0.00    +0.000 A 
BRANCH  18  19
ATOM     19  C   UNL     1      43.825   2.614  10.722  0.00  0.00    +0.000 C 
ATOM     20  N   UNL     1      43.103   2.342  11.590  0.00  0.00    +0.000 NA
ENDBRANCH  18  19
ENDBRANCH  11  13
ENDBRANCH  10  11
ENDBRANCH   7  10
ENDBRANCH   5   7
BRANCH   3  21
ATOM     21  C   UNL     1      49.255   9.357  11.832  0.00  0.00    +0.000 C 
ATOM     22  N   UNL     1      49.698  10.265  11.263  0.00  0.00    +0.000 NA
ENDBRANCH   3  21
BRANCH   1  23
ATOM     23  O   UNL     1      49.453   6.238  15.490  0.00  0.00    +0.000 OA
BRANCH  23  27
ATOM     24  C   UNL     1      48.527   3.209  18.697  0.00  0.00    +0.000 C 
ATOM     25  C   UNL     1      48.953   4.083  17.528  0.00  0.00    +0.000 C 
ATOM     26  C   UNL     1      49.413   5.505  17.938  0.00  0.00    +0.000 C 
ATOM     27  C   UNL     1      48.664   6.047  16.692  0.00  0.00    +0.000 C 
ATOM     28  C   UNL     1      47.802   4.764  16.744  0.00  0.00    +0.000 C 
BRANCH  25  29
ATOM     29  O   UNL     1      49.875   3.342  16.699  0.00  0.00    +0.000 OA
ATOM     30  H   UNL     1      50.763   3.595  17.002  0.00  0.00    +0.000 HD
ENDBRANCH  25  29
ENDBRANCH  23  27
ENDBRANCH   1  23
TORSDOF 9
ENDMDL
MODEL 4
REMARK VINA RESULT:    -7.465      2.456      4.346
REMARK INTER + INTRA:         -11.818
REMARK INTER:                 -10.651
REMARK INTRA:                  -1.166
REMARK UNBOUND:                -0.644
REMARK  Name = 
REMARK  10 active torsions:
REMARK  status: ('A' for Active; 'I' for Inactive)
REMARK    1  A    between atoms: C_1  and  C_2
REMARK    2  A    between atoms: C_2  and  O_3
REMARK    3  A    between atoms: C_5  and  O_6
REMARK    4  A    between atoms: O_6  and  C_7
REMARK    5  A    between atoms: C_9  and  C_10
REMARK    6  A    between atoms: C_13  and  C_14
REMARK    7  A    between atoms: C_14  and  C_17
REMARK    8  A    between atoms: C_17  and  N_18
REMARK    9  A    between atoms: N_18  and  C_19
REMARK   10  A    between atoms: C_24  and  C_25
REMARK                            x       y       z     vdW  Elec       q    Type
REMARK                         _______ _______ _______ _____ _____    ______ ____
ROOT
ATOM      1  C   UNL     1      48.260   7.296  13.639  0.00  0.00    +0.000 A 
ATOM      2  C   UNL     1      48.221   6.306  14.615  0.00  0.00    +0.000 A 
ATOM      3  C   UNL     1      47.249   5.303  14.546  0.00  0.00    +0.000 A 
ATOM      4  C   UNL     1      46.314   5.298  13.499  0.00  0.00    +0.000 A 
ATOM      5  C   UNL     1      46.331   6.304  12.517  0.00  0.00    +0.000 A 
ATOM      6  C   UNL     1      47.314   7.304  12.616  0.00  0.00    +0.000 A 
ENDROOT
BRANCH   5   7
ATOM      7  C   UNL     1      45.302   6.264  11.389  0.00  0.00    +0.000 C 
ATOM      8  F   UNL     1      44.281   5.413  11.704  0.00  0.00    +0.000 F 
ATOM      9  F   UNL     1      44.714   7.489  11.223  0.00  0.00    +0.000 F 
BRANCH   7  10
ATOM     10  C   UNL     1      45.892   5.839  10.021  0.00  0.00    +0.000 C 
BRANCH  10  11
ATOM     11  N   UNL     1      44.958   5.135   9.118  0.00  0.00    +0.000 N 
ATOM     12  H   UNL     1      44.582   5.754   8.400  0.00  0.00    +0.000 HD
BRANCH  11  13
ATOM     13  C   UNL     1      45.520   3.971   8.554  0.00  0.00    +0.000 A 
ATOM     14  N   UNL     1      46.427   4.119   7.556  0.00  0.00    +0.000 NA
ATOM     15  C   UNL     1      47.004   3.018   7.026  0.00  0.00    +0.000 A 
ATOM     16  C   UNL     1      46.735   1.735   7.454  0.00  0.00    +0.000 A 
ATOM     17  C   UNL     1      45.818   1.577   8.485  0.00  0.00    +0.000 A 
ATOM     18  C   UNL     1      45.198   2.702   9.047  0.00  0.00    +0.000 A 
BRANCH  18  19
ATOM     19  C   UNL     1      44.259   2.519  10.110  0.00  0.00    +0.000 C 
ATOM     20  N   UNL     1      43.485   2.414  10.968  0.00  0.00    +0.000 NA
ENDBRANCH  18  19
ENDBRANCH  11  13
ENDBRANCH  10  11
ENDBRANCH   7  10
ENDBRANCH   5   7
BRANCH   3  21
ATOM     21  C   UNL     1      47.213   4.271  15.542  0.00  0.00    +0.000 C 
ATOM     22  N   UNL     1      47.182   3.436  16.346  0.00  0.00    +0.000 NA
ENDBRANCH   3  21
BRANCH   1  23
ATOM     23  O   UNL     1      49.254   8.240  13.744  0.00  0.00    +0.000 OA
BRANCH  23  27
ATOM     24  C   UNL     1      52.959   8.903  11.263  0.00  0.00    +0.000 C 
ATOM     25  C   UNL     1      51.834   8.590  12.236  0.00  0.00    +0.000 C 
ATOM     26  C   UNL     1      50.572   7.985  11.569  0.00  0.00    +0.000 C 
ATOM     27  C   UNL     1      49.716   8.864  12.518  0.00  0.00    +0.000 C 
ATOM     28  C   UNL     1      50.946   9.792  12.648  0.00  0.00    +0.000 C 
BRANCH  25  29
ATOM     29  O   UNL     1      52.370   7.843  13.349  0.00  0.00    +0.000 OA
ATOM     30  H   UNL     1      52.996   8.441  13.792  0.00  0.00    +0.000 HD
ENDBRANCH  25  29
ENDBRANCH  23  27
ENDBRANCH   1  23
TORSDOF 9
ENDMDL
MODEL 5
REMARK VINA RESULT:    -7.081      2.629      3.566
REMARK INTER + INTRA:         -11.244
REMARK INTER:                 -10.045
REMARK INTRA:                  -1.199
REMARK UNBOUND:                -0.644
REMARK  Name = 
REMARK  10 active torsions:
REMARK  status: ('A' for Active; 'I' for Inactive)
REMARK    1  A    between atoms: C_1  and  C_2
REMARK    2  A    between atoms: C_2  and  O_3
REMARK    3  A    between atoms: C_5  and  O_6
REMARK    4  A    between atoms: O_6  and  C_7
REMARK    5  A    between atoms: C_9  and  C_10
REMARK    6  A    between atoms: C_13  and  C_14
REMARK    7  A    between atoms: C_14  and  C_17
REMARK    8  A    between atoms: C_17  and  N_18
REMARK    9  A    between atoms: N_18  and  C_19
REMARK   10  A    between atoms: C_24  and  C_25
REMARK                            x       y       z     vdW  Elec       q    Type
REMARK                         _______ _______ _______ _____ _____    ______ ____
ROOT
ATOM      1  C   UNL     1      48.351   7.183  13.826  0.00  0.00    +0.000 A 
ATOM      2  C   UNL     1      48.279   6.165  14.771  0.00  0.00    +0.000 A 
ATOM      3  C   UNL     1      47.279   5.193  14.668  0.00  0.00    +0.000 A 
ATOM      4  C   UNL     1      46.350   5.247  13.617  0.00  0.00    +0.000 A 
ATOM      5  C   UNL     1      46.400   6.282  12.667  0.00  0.00    +0.000 A 
ATOM      6  C   UNL     1      47.410   7.250  12.800  0.00  0.00    +0.000 A 
ENDROOT
BRANCH   5   7
ATOM      7  C   UNL     1      45.376   6.305  11.534  0.00  0.00    +0.000 C 
ATOM      8  F   UNL     1      44.313   5.500  11.834  0.00  0.00    +0.000 F 
ATOM      9  F   UNL     1      44.847   7.560  11.382  0.00  0.00    +0.000 F 
BRANCH   7  10
ATOM     10  C   UNL     1      45.951   5.871  10.163  0.00  0.00    +0.000 C 
BRANCH  10  11
ATOM     11  N   UNL     1      44.987   5.227   9.247  0.00  0.00    +0.000 N 
ATOM     12  H   UNL     1      44.650   5.871   8.532  0.00  0.00    +0.000 HD
BRANCH  11  13
ATOM     13  C   UNL     1      45.491   4.040   8.674  0.00  0.00    +0.000 A 
ATOM     14  N   UNL     1      46.406   4.150   7.677  0.00  0.00    +0.000 NA
ATOM     15  C   UNL     1      46.928   3.026   7.140  0.00  0.00    +0.000 A 
ATOM     16  C   UNL     1      46.595   1.755   7.558  0.00  0.00    +0.000 A 
ATOM     17  C   UNL     1      45.670   1.635   8.588  0.00  0.00    +0.000 A 
ATOM     18  C   UNL     1      45.107   2.785   9.158  0.00  0.00    +0.000 A 
BRANCH  18  19
ATOM     19  C   UNL     1      44.159   2.641  10.219  0.00  0.00    +0.000 C 
ATOM     20  N   UNL     1      43.422   2.504  11.105  0.00  0.00    +0.000 NA
ENDBRANCH  18  19
ENDBRANCH  11  13
ENDBRANCH  10  11
ENDBRANCH   7  10
ENDBRANCH   5   7
BRANCH   3  21
ATOM     21  C   UNL     1      47.210   4.133  15.631  0.00  0.00    +0.000 C 
ATOM     22  N   UNL     1      47.155   3.278  16.413  0.00  0.00    +0.000 NA
ENDBRANCH   3  21
BRANCH   1  23
ATOM     23  O   UNL     1      49.370   8.095  13.964  0.00  0.00    +0.000 OA
BRANCH  23  27
ATOM     24  C   UNL     1      49.836  10.709  17.607  0.00  0.00    +0.000 C 
ATOM     25  C   UNL     1      49.773   9.682  16.489  0.00  0.00    +0.000 C 
ATOM     26  C   UNL     1      50.188  10.233  15.101  0.00  0.00    +0.000 C 
ATOM     27  C   UNL     1      49.030   9.406  14.485  0.00  0.00    +0.000 C 
ATOM     28  C   UNL     1      48.368   9.431  15.883  0.00  0.00    +0.000 C 
BRANCH  25  29
ATOM     29  O   UNL     1      50.455   8.482  16.914  0.00  0.00    +0.000 OA
ATOM     30  H   UNL     1      50.146   8.309  17.819  0.00  0.00    +0.000 HD
ENDBRANCH  25  29
ENDBRANCH  23  27
ENDBRANCH   1  23
TORSDOF 9
ENDMDL
MODEL 6
REMARK VINA RESULT:    -6.976      3.309      5.338
REMARK INTER + INTRA:         -11.086
REMARK INTER:                  -9.928
REMARK INTRA:                  -1.158
REMARK UNBOUND:                -0.644
REMARK  Name = 
REMARK  10 active torsions:
REMARK  status: ('A' for Active; 'I' for Inactive)
REMARK    1  A    between atoms: C_1  and  C_2
REMARK    2  A    between atoms: C_2  and  O_3
REMARK    3  A    between atoms: C_5  and  O_6
REMARK    4  A    between atoms: O_6  and  C_7
REMARK    5  A    between atoms: C_9  and  C_10
REMARK    6  A    between atoms: C_13  and  C_14
REMARK    7  A    between atoms: C_14  and  C_17
REMARK    8  A    between atoms: C_17  and  N_18
REMARK    9  A    between atoms: N_18  and  C_19
REMARK   10  A    between atoms: C_24  and  C_25
REMARK                            x       y       z     vdW  Elec       q    Type
REMARK                         _______ _______ _______ _____ _____    ______ ____
ROOT
ATOM      1  C   UNL     1      49.346   7.860  12.215  0.00  0.00    +0.000 A 
ATOM      2  C   UNL     1      49.751   7.672  13.532  0.00  0.00    +0.000 A 
ATOM      3  C   UNL     1      48.939   6.946  14.410  0.00  0.00    +0.000 A 
ATOM      4  C   UNL     1      47.718   6.415  13.964  0.00  0.00    +0.000 A 
ATOM      5  C   UNL     1      47.288   6.615  12.641  0.00  0.00    +0.000 A 
ATOM      6  C   UNL     1      48.120   7.354  11.783  0.00  0.00    +0.000 A 
ENDROOT
BRANCH   5   7
ATOM      7  C   UNL     1      45.958   6.017  12.190  0.00  0.00    +0.000 C 
ATOM      8  F   UNL     1      45.929   4.673  12.438  0.00  0.00    +0.000 F 
ATOM      9  F   UNL     1      44.919   6.540  12.915  0.00  0.00    +0.000 F 
BRANCH   7  10
ATOM     10  C   UNL     1      45.645   6.248  10.691  0.00  0.00    +0.000 C 
BRANCH  10  11
ATOM     11  N   UNL     1      44.566   5.407  10.131  0.00  0.00    +0.000 N 
ATOM     12  H   UNL     1      43.876   5.960   9.623  0.00  0.00    +0.000 HD
BRANCH  11  13
ATOM     13  C   UNL     1      45.058   4.346   9.343  0.00  0.00    +0.000 A 
ATOM     14  N   UNL     1      45.895   4.645   8.317  0.00  0.00    +0.000 NA
ATOM     15  C   UNL     1      46.405   3.640   7.573  0.00  0.00    +0.000 A 
ATOM     16  C   UNL     1      46.136   2.308   7.804  0.00  0.00    +0.000 A 
ATOM     17  C   UNL     1      45.292   1.992   8.862  0.00  0.00    +0.000 A 
ATOM     18  C   UNL     1      44.742   3.016   9.645  0.00  0.00    +0.000 A 
BRANCH  18  19
ATOM     19  C   UNL     1      43.878   2.672  10.731  0.00  0.00    +0.000 C 
ATOM     20  N   UNL     1      43.148   2.425  11.599  0.00  0.00    +0.000 NA
ENDBRANCH  18  19
ENDBRANCH  11  13
ENDBRANCH  10  11
ENDBRANCH   7  10
ENDBRANCH   5   7
BRANCH   3  21
ATOM     21  C   UNL     1      49.359   6.737  15.765  0.00  0.00    +0.000 C 
ATOM     22  N   UNL     1      49.696   6.571  16.862  0.00  0.00    +0.000 NA
ENDBRANCH   3  21
BRANCH   1  23
ATOM     23  O   UNL     1      50.196   8.558  11.391  0.00  0.00    +0.000 OA
BRANCH  23  27
ATOM     24  C   UNL     1      54.212   9.761   9.734  0.00  0.00    +0.000 C 
ATOM     25  C   UNL     1      52.780   9.500  10.169  0.00  0.00    +0.000 C 
ATOM     26  C   UNL     1      52.598   9.373  11.703  0.00  0.00    +0.000 C 
ATOM     27  C   UNL     1      51.605   8.212  11.436  0.00  0.00    +0.000 C 
ATOM     28  C   UNL     1      52.304   8.028  10.069  0.00  0.00    +0.000 C 
BRANCH  25  29
ATOM     29  O   UNL     1      51.909  10.447   9.514  0.00  0.00    +0.000 OA
ATOM     30  H   UNL     1      51.056   9.993   9.408  0.00  0.00    +0.000 HD
ENDBRANCH  25  29
ENDBRANCH  23  27
ENDBRANCH   1  23
TORSDOF 9
ENDMDL
MODEL 7
REMARK VINA RESULT:    -6.935      3.021      3.857
REMARK INTER + INTRA:         -11.025
REMARK INTER:                  -9.819
REMARK INTRA:                  -1.206
REMARK UNBOUND:                -0.644
REMARK  Name = 
REMARK  10 active torsions:
REMARK  status: ('A' for Active; 'I' for Inactive)
REMARK    1  A    between atoms: C_1  and  C_2
REMARK    2  A    between atoms: C_2  and  O_3
REMARK    3  A    between atoms: C_5  and  O_6
REMARK    4  A    between atoms: O_6  and  C_7
REMARK    5  A    between atoms: C_9  and  C_10
REMARK    6  A    between atoms: C_13  and  C_14
REMARK    7  A    between atoms: C_14  and  C_17
REMARK    8  A    between atoms: C_17  and  N_18
REMARK    9  A    between atoms: N_18  and  C_19
REMARK   10  A    between atoms: C_24  and  C_25
REMARK                            x       y       z     vdW  Elec       q    Type
REMARK                         _______ _______ _______ _____ _____    ______ ____
ROOT
ATOM      1  C   UNL     1      46.920   8.277  13.111  0.00  0.00    +0.000 A 
ATOM      2  C   UNL     1      46.088   9.372  12.906  0.00  0.00    +0.000 A 
ATOM      3  C   UNL     1      44.986   9.254  12.052  0.00  0.00    +0.000 A 
ATOM      4  C   UNL     1      44.726   8.038  11.401  0.00  0.00    +0.000 A 
ATOM      5  C   UNL     1      45.571   6.930  11.585  0.00  0.00    +0.000 A 
ATOM      6  C   UNL     1      46.675   7.079  12.442  0.00  0.00    +0.000 A 
ENDROOT
BRANCH   5   7
ATOM      7  C   UNL     1      45.253   5.621  10.865  0.00  0.00    +0.000 C 
ATOM      8  F   UNL     1      45.615   4.552  11.635  0.00  0.00    +0.000 F 
ATOM      9  F   UNL     1      43.903   5.487  10.673  0.00  0.00    +0.000 F 
BRANCH   7  10
ATOM     10  C   UNL     1      45.938   5.487   9.482  0.00  0.00    +0.000 C 
BRANCH  10  11
ATOM     11  N   UNL     1      45.154   4.773   8.453  0.00  0.00    +0.000 N 
ATOM     12  H   UNL     1      44.881   5.387   7.686  0.00  0.00    +0.000 HD
BRANCH  11  13
ATOM     13  C   UNL     1      45.806   3.615   7.978  0.00  0.00    +0.000 A 
ATOM     14  N   UNL     1      46.739   3.762   7.003  0.00  0.00    +0.000 NA
ATOM     15  C   UNL     1      47.401   2.671   6.560  0.00  0.00    +0.000 A 
ATOM     16  C   UNL     1      47.194   1.400   7.055  0.00  0.00    +0.000 A 
ATOM     17  C   UNL     1      46.251   1.245   8.063  0.00  0.00    +0.000 A 
ATOM     18  C   UNL     1      45.544   2.359   8.536  0.00  0.00    +0.000 A 
BRANCH  18  19
ATOM     19  C   UNL     1      44.580   2.180   9.576  0.00  0.00    +0.000 C 
ATOM     20  N   UNL     1      43.763   2.041  10.390  0.00  0.00    +0.000 NA
ENDBRANCH  18  19
ENDBRANCH  11  13
ENDBRANCH  10  11
ENDBRANCH   7  10
ENDBRANCH   5   7
BRANCH   3  21
ATOM     21  C   UNL     1      44.116  10.376  11.849  0.00  0.00    +0.000 C 
ATOM     22  N   UNL     1      43.410  11.281  11.685  0.00  0.00    +0.000 NA
ENDBRANCH   3  21
BRANCH   1  23
ATOM     23  O   UNL     1      47.972   8.443  13.981  0.00  0.00    +0.000 OA
BRANCH  23  27
ATOM     24  C   UNL     1      52.426   8.109  14.585  0.00  0.00    +0.000 C 
ATOM     25  C   UNL     1      50.947   8.421  14.426  0.00  0.00    +0.000 C 
ATOM     26  C   UNL     1      50.009   7.400  15.119  0.00  0.00    +0.000 C 
ATOM     27  C   UNL     1      49.074   7.504  13.885  0.00  0.00    +0.000 C 
ATOM     28  C   UNL     1      50.308   7.982  13.084  0.00  0.00    +0.000 C 
BRANCH  25  29
ATOM     29  O   UNL     1      50.720   9.807  14.763  0.00  0.00    +0.000 OA
ATOM     30  H   UNL     1      51.169   9.949  15.614  0.00  0.00    +0.000 HD
ENDBRANCH  25  29
ENDBRANCH  23  27
ENDBRANCH   1  23
TORSDOF 9
ENDMDL
MODEL 8
REMARK VINA RESULT:    -6.856      3.390      7.819
REMARK INTER + INTRA:         -10.907
REMARK INTER:                  -9.521
REMARK INTRA:                  -1.386
REMARK UNBOUND:                -0.644
REMARK  Name = 
REMARK  10 active torsions:
REMARK  status: ('A' for Active; 'I' for Inactive)
REMARK    1  A    between atoms: C_1  and  C_2
REMARK    2  A    between atoms: C_2  and  O_3
REMARK    3  A    between atoms: C_5  and  O_6
REMARK    4  A    between atoms: O_6  and  C_7
REMARK    5  A    between atoms: C_9  and  C_10
REMARK    6  A    between atoms: C_13  and  C_14
REMARK    7  A    between atoms: C_14  and  C_17
REMARK    8  A    between atoms: C_17  and  N_18
REMARK    9  A    between atoms: N_18  and  C_19
REMARK   10  A    between atoms: C_24  and  C_25
REMARK                            x       y       z     vdW  Elec       q    Type
REMARK                         _______ _______ _______ _____ _____    ______ ____
ROOT
ATOM      1  C   UNL     1      45.672   5.478   9.891  0.00  0.00    +0.000 A 
ATOM      2  C   UNL     1      44.629   5.063  10.712  0.00  0.00    +0.000 A 
ATOM      3  C   UNL     1      44.581   5.493  12.041  0.00  0.00    +0.000 A 
ATOM      4  C   UNL     1      45.583   6.337  12.546  0.00  0.00    +0.000 A 
ATOM      5  C   UNL     1      46.653   6.748  11.732  0.00  0.00    +0.000 A 
ATOM      6  C   UNL     1      46.680   6.294  10.403  0.00  0.00    +0.000 A 
ENDROOT
BRANCH   5   7
ATOM      7  C   UNL     1      47.721   7.670  12.314  0.00  0.00    +0.000 C 
ATOM      8  F   UNL     1      48.925   7.452  11.704  0.00  0.00    +0.000 F 
ATOM      9  F   UNL     1      47.421   8.983  12.061  0.00  0.00    +0.000 F 
BRANCH   7  10
ATOM     10  C   UNL     1      47.911   7.520  13.844  0.00  0.00    +0.000 C 
BRANCH  10  11
ATOM     11  N   UNL     1      48.689   6.340  14.274  0.00  0.00    +0.000 N 
ATOM     12  H   UNL     1      49.694   6.495  14.194  0.00  0.00    +0.000 HD
BRANCH  11  13
ATOM     13  C   UNL     1      48.337   5.899  15.567  0.00  0.00    +0.000 A 
ATOM     14  N   UNL     1      48.694   6.670  16.625  0.00  0.00    +0.000 NA
ATOM     15  C   UNL     1      48.336   6.284  17.869  0.00  0.00    +0.000 A 
ATOM     16  C   UNL     1      47.606   5.144  18.132  0.00  0.00    +0.000 A 
ATOM     17  C   UNL     1      47.224   4.357  17.053  0.00  0.00    +0.000 A 
ATOM     18  C   UNL     1      47.590   4.731  15.753  0.00  0.00    +0.000 A 
BRANCH  18  19
ATOM     19  C   UNL     1      47.185   3.909  14.654  0.00  0.00    +0.000 C 
ATOM     20  N   UNL     1      46.898   3.247  13.745  0.00  0.00    +0.000 NA
ENDBRANCH  18  19
ENDBRANCH  11  13
ENDBRANCH  10  11
ENDBRANCH   7  10
ENDBRANCH   5   7
BRANCH   3  21
ATOM     21  C   UNL     1      43.499   5.079  12.888  0.00  0.00    +0.000 C 
ATOM     22  N   UNL     1      42.626   4.741  13.571  0.00  0.00    +0.000 NA
ENDBRANCH   3  21
BRANCH   1  23
ATOM     23  O   UNL     1      45.653   5.045   8.586  0.00  0.00    +0.000 OA
BRANCH  23  27
ATOM     24  C   UNL     1      46.925   1.073   6.876  0.00  0.00    +0.000 C 
ATOM     25  C   UNL     1      46.680   2.481   7.392  0.00  0.00    +0.000 C 
ATOM     26  C   UNL     1      46.078   2.536   8.819  0.00  0.00    +0.000 C 
ATOM     27  C   UNL     1      45.173   3.699   8.335  0.00  0.00    +0.000 C 
ATOM     28  C   UNL     1      45.377   3.161   6.899  0.00  0.00    +0.000 C 
BRANCH  25  29
ATOM     29  O   UNL     1      47.872   3.272   7.187  0.00  0.00    +0.000 OA
ATOM     30  H   UNL     1      47.562   4.175   7.009  0.00  0.00    +0.000 HD
ENDBRANCH  25  29
ENDBRANCH  23  27
ENDBRANCH   1  23
TORSDOF 9
ENDMDL
MODEL 9
REMARK VINA RESULT:    -6.486      5.032      8.251
REMARK INTER + INTRA:         -10.353
REMARK INTER:                  -8.332
REMARK INTRA:                  -2.021
REMARK UNBOUND:                -0.644
REMARK  Name = 
REMARK  10 active torsions:
REMARK  status: ('A' for Active; 'I' for Inactive)
REMARK    1  A    between atoms: C_1  and  C_2
REMARK    2  A    between atoms: C_2  and  O_3
REMARK    3  A    between atoms: C_5  and  O_6
REMARK    4  A    between atoms: O_6  and  C_7
REMARK    5  A    between atoms: C_9  and  C_10
REMARK    6  A    between atoms: C_13  and  C_14
REMARK    7  A    between atoms: C_14  and  C_17
REMARK    8  A    between atoms: C_17  and  N_18
REMARK    9  A    between atoms: N_18  and  C_19
REMARK   10  A    between atoms: C_24  and  C_25
REMARK                            x       y       z     vdW  Elec       q    Type
REMARK                         _______ _______ _______ _____ _____    ______ ____
ROOT
ATOM      1  C   UNL     1      47.345   4.004  16.346  0.00  0.00    +0.000 A 
ATOM      2  C   UNL     1      48.352   3.047  16.283  0.00  0.00    +0.000 A 
ATOM      3  C   UNL     1      49.299   2.969  17.309  0.00  0.00    +0.000 A 
ATOM      4  C   UNL     1      49.236   3.856  18.395  0.00  0.00    +0.000 A 
ATOM      5  C   UNL     1      48.235   4.841  18.461  0.00  0.00    +0.000 A 
ATOM      6  C   UNL     1      47.301   4.901  17.412  0.00  0.00    +0.000 A 
ENDROOT
BRANCH   5   7
ATOM      7  C   UNL     1      48.194   5.784  19.661  0.00  0.00    +0.000 C 
ATOM      8  F   UNL     1      46.992   5.688  20.304  0.00  0.00    +0.000 F 
ATOM      9  F   UNL     1      49.132   5.428  20.593  0.00  0.00    +0.000 F 
BRANCH   7  10
ATOM     10  C   UNL     1      48.439   7.270  19.295  0.00  0.00    +0.000 C 
BRANCH  10  11
ATOM     11  N   UNL     1      49.717   7.552  18.609  0.00  0.00    +0.000 N 
ATOM     12  H   UNL     1      50.418   6.836  18.799  0.00  0.00    +0.000 HD
BRANCH  11  13
ATOM     13  C   UNL     1      49.555   7.761  17.224  0.00  0.00    +0.000 A 
ATOM     14  N   UNL     1      48.607   8.642  16.817  0.00  0.00    +0.000 NA
ATOM     15  C   UNL     1      48.460   8.883  15.495  0.00  0.00    +0.000 A 
ATOM     16  C   UNL     1      49.237   8.292  14.522  0.00  0.00    +0.000 A 
ATOM     17  C   UNL     1      50.220   7.400  14.932  0.00  0.00    +0.000 A 
ATOM     18  C   UNL     1      50.388   7.125  16.296  0.00  0.00    +0.000 A 
BRANCH  18  19
ATOM     19  C   UNL     1      51.407   6.207  16.699  0.00  0.00    +0.000 C 
ATOM     20  N   UNL     1      52.202   5.435  17.045  0.00  0.00    +0.000 NA
ENDBRANCH  18  19
ENDBRANCH  11  13
ENDBRANCH  10  11
ENDBRANCH   7  10
ENDBRANCH   5   7
BRANCH   3  21
ATOM     21  C   UNL     1      50.331   1.974  17.255  0.00  0.00    +0.000 C 
ATOM     22  N   UNL     1      51.164   1.169  17.215  0.00  0.00    +0.000 NA
ENDBRANCH   3  21
BRANCH   1  23
ATOM     23  O   UNL     1      46.427   4.017  15.323  0.00  0.00    +0.000 OA
BRANCH  23  27
ATOM     24  C   UNL     1      45.770   5.954  11.306  0.00  0.00    +0.000 C 
ATOM     25  C   UNL     1      45.825   5.403  12.721  0.00  0.00    +0.000 C 
ATOM     26  C   UNL     1      47.237   5.439  13.359  0.00  0.00    +0.000 C 
ATOM     27  C   UNL     1      46.939   4.042  13.965  0.00  0.00    +0.000 C 
ATOM     28  C   UNL     1      45.893   3.859  12.840  0.00  0.00    +0.000 C 
BRANCH  25  29
ATOM     29  O   UNL     1      44.771   6.010  13.502  0.00  0.00    +0.000 OA
ATOM     30  H   UNL     1      45.053   6.927  13.658  0.00  0.00    +0.000 HD
ENDBRANCH  25  29
ENDBRANCH  23  27
ENDBRANCH   1  23
TORSDOF 9
ENDMDL
