MODEL 1
REMARK VINA RESULT:    -8.064      0.000      0.000
REMARK INTER + INTRA:         -12.782
REMARK INTER:                 -11.600
REMARK INTRA:                  -1.183
REMARK UNBOUND:                -1.183
REMARK  Name = 
REMARK  8 active torsions:
REMARK  status: ('A' for Active; 'I' for Inactive)
REMARK    1  A    between atoms: N_1  and  C_2
REMARK    2  A    between atoms: C_2  and  C_3
REMARK    3  A    between atoms: C_3  and  N_4
REMARK    4  A    between atoms: C_3  and  C_17
REMARK    5  A    between atoms: C_5  and  C_7
REMARK    6  A    between atoms: C_20  and  O_21
REMARK    7  A    between atoms: O_21  and  C_22
REMARK    8  A    between atoms: C_22  and  C_23
REMARK                            x       y       z     vdW  Elec       q    Type
REMARK                         _______ _______ _______ _____ _____    ______ ____
ROOT
ATOM      1  C   UNL     1      47.891   6.941  13.700  0.00  0.00    +0.000 C 
ENDROOT
BRANCH   1   2
ATOM      2  C   UNL     1      46.935   6.098  12.861  0.00  0.00    +0.000 A 
ATOM      3  C   UNL     1      46.485   6.541  11.610  0.00  0.00    +0.000 A 
ATOM      4  C   UNL     1      45.605   5.757  10.854  0.00  0.00    +0.000 A 
ATOM      5  C   UNL     1      45.171   4.521  11.335  0.00  0.00    +0.000 A 
ATOM      6  C   UNL     1      45.581   4.094  12.599  0.00  0.00    +0.000 A 
ATOM      7  C   UNL     1      46.471   4.864  13.343  0.00  0.00    +0.000 A 
BRANCH   5   8
ATOM      8  O   UNL     1      44.354   3.800  10.501  0.00  0.00    +0.000 OA
BRANCH   8   9
ATOM      9  C   UNL     1      44.421   4.202   9.127  0.00  0.00    +0.000 C 
BRANCH   9  10
ATOM     10  C   UNL     1      45.367   3.318   8.353  0.00  0.00    +0.000 A 
ATOM     11  C   UNL     1      45.530   1.978   8.697  0.00  0.00    +0.000 A 
ATOM     12  C   UNL     1      46.444   1.211   7.981  0.00  0.00    +0.000 A 
ATOM     13  C   UNL     1      47.164   1.796   6.946  0.00  0.00    +0.000 A 
ATOM     14  C   UNL     1      46.943   3.134   6.667  0.00  0.00    +0.000 A 
ATOM     15  N   UNL     1      46.067   3.906   7.347  0.00  0.00    +0.000 NA
ENDBRANCH   9  10
ENDBRANCH   8   9
ENDBRANCH   5   8
ENDBRANCH   1   2
BRANCH   1  16
ATOM     16  N   UNL     1      47.859   6.446  15.074  0.00  0.00    +0.000 N 
ATOM     17  C   UNL     1      48.995   6.273  15.823  0.00  0.00    +0.000 C 
ATOM     18  O   UNL     1      50.101   6.637  15.437  0.00  0.00    +0.000 OA
ATOM     19  H   UNL     1      47.035   5.907  15.331  0.00  0.00    +0.000 HD
BRANCH  17  20
ATOM     20  C   UNL     1      48.831   5.670  17.150  0.00  0.00    +0.000 A 
ATOM     21  C   UNL     1      49.050   4.309  17.316  0.00  0.00    +0.000 A 
ATOM     22  S   UNL     1      48.753   3.757  18.901  0.00  0.00    +0.000 S 
ATOM     23  C   UNL     1      48.281   5.310  19.410  0.00  0.00    +0.000 A 
ATOM     24  N   UNL     1      47.829   5.526  20.674  0.00  0.00    +0.000 NA
ATOM     25  C   UNL     1      47.466   6.743  20.908  0.00  0.00    +0.000 A 
ATOM     26  N   UNL     1      47.545   7.770  20.004  0.00  0.00    +0.000 N 
ATOM     27  C   UNL     1      48.058   7.613  18.738  0.00  0.00    +0.000 A 
ATOM     28  O   UNL     1      48.224   8.566  17.986  0.00  0.00    +0.000 OA
ATOM     29  C   UNL     1      48.410   6.248  18.401  0.00  0.00    +0.000 A 
ATOM     30  H   UNL     1      47.285   8.711  20.265  0.00  0.00    +0.000 HD
ENDBRANCH  17  20
ENDBRANCH   1  16
BRANCH   1  31
ATOM     31  C   UNL     1      47.521   8.457  13.585  0.00  0.00    +0.000 C 
BRANCH  31  32
ATOM     32  N   UNL     1      47.321   9.137  14.875  0.00  0.00    +0.000 NA
ATOM     33  H   UNL     1      48.190   9.596  15.141  0.00  0.00    +0.000 HD
ATOM     34  H   UNL     1      47.131   8.444  15.600  0.00  0.00    +0.000 HD
ENDBRANCH  31  32
ENDBRANCH   1  31
TORSDOF 8
ENDMDL
MODEL 2
REMARK VINA RESULT:    -8.044      1.712      2.408
REMARK INTER + INTRA:         -12.753
REMARK INTER:                 -11.817
REMARK INTRA:                  -0.936
REMARK UNBOUND:                -1.183
REMARK  Name = 
REMARK  8 active torsions:
REMARK  status: ('A' for Active; 'I' for Inactive)
REMARK    1  A    between atoms: N_1  and  C_2
REMARK    2  A    between atoms: C_2  and  C_3
REMARK    3  A    between atoms: C_3  and  N_4
REMARK    4  A    between atoms: C_3  and  C_17
REMARK    5  A    between atoms: C_5  and  C_7
REMARK    6  A    between atoms: C_20  and  O_21
REMARK    7  A    between atoms: O_21  and  C_22
REMARK    8  A    between atoms: C_22  and  C_23
REMARK                            x       y       z     vdW  Elec       q    Type
REMARK                         _______ _______ _______ _____ _____    ______ ____
ROOT
ATOM      1  C   UNL     1      47.362   7.641  13.001  0.00  0.00    +0.000 C 
ENDROOT
BRANCH   1   2
ATOM      2  C   UNL     1      46.552   6.553  12.301  0.00  0.00    +0.000 A 
ATOM      3  C   UNL     1      46.428   6.527  10.905  0.00  0.00    +0.000 A 
ATOM      4  C   UNL     1      45.679   5.525  10.278  0.00  0.00    +0.000 A 
ATOM      5  C   UNL     1      45.052   4.534  11.035  0.00  0.00    +0.000 A 
ATOM      6  C   UNL     1      45.137   4.578  12.427  0.00  0.00    +0.000 A 
ATOM      7  C   UNL     1      45.897   5.564  13.051  0.00  0.00    +0.000 A 
BRANCH   5   8
ATOM      8  O   UNL     1      44.388   3.563  10.330  0.00  0.00    +0.000 OA
BRANCH   8   9
ATOM      9  C   UNL     1      44.344   3.793   8.916  0.00  0.00    +0.000 C 
BRANCH   9  10
ATOM     10  C   UNL     1      45.402   2.986   8.206  0.00  0.00    +0.000 A 
ATOM     11  C   UNL     1      46.142   3.544   7.166  0.00  0.00    +0.000 A 
ATOM     12  C   UNL     1      47.079   2.749   6.511  0.00  0.00    +0.000 A 
ATOM     13  C   UNL     1      47.254   1.430   6.912  0.00  0.00    +0.000 A 
ATOM     14  C   UNL     1      46.479   0.952   7.955  0.00  0.00    +0.000 A 
ATOM     15  N   UNL     1      45.558   1.697   8.605  0.00  0.00    +0.000 NA
ENDBRANCH   9  10
ENDBRANCH   8   9
ENDBRANCH   5   8
ENDBRANCH   1   2
BRANCH   1  16
ATOM     16  N   UNL     1      47.527   7.262  14.403  0.00  0.00    +0.000 N 
ATOM     17  C   UNL     1      48.744   6.921  14.936  0.00  0.00    +0.000 C 
ATOM     18  O   UNL     1      49.792   7.028  14.310  0.00  0.00    +0.000 OA
ATOM     19  H   UNL     1      46.691   6.919  14.870  0.00  0.00    +0.000 HD
BRANCH  17  20
ATOM     20  C   UNL     1      48.752   6.461  16.329  0.00  0.00    +0.000 A 
ATOM     21  C   UNL     1      49.170   7.324  17.333  0.00  0.00    +0.000 A 
ATOM     22  S   UNL     1      49.182   6.615  18.883  0.00  0.00    +0.000 S 
ATOM     23  C   UNL     1      48.669   5.118  18.260  0.00  0.00    +0.000 A 
ATOM     24  N   UNL     1      48.542   4.031  19.066  0.00  0.00    +0.000 NA
ATOM     25  C   UNL     1      48.186   2.952  18.451  0.00  0.00    +0.000 A 
ATOM     26  N   UNL     1      47.913   2.869  17.111  0.00  0.00    +0.000 N 
ATOM     27  C   UNL     1      47.963   3.957  16.271  0.00  0.00    +0.000 A 
ATOM     28  O   UNL     1      47.606   3.885  15.100  0.00  0.00    +0.000 OA
ATOM     29  C   UNL     1      48.430   5.177  16.899  0.00  0.00    +0.000 A 
ATOM     30  H   UNL     1      47.596   2.003  16.698  0.00  0.00    +0.000 HD
ENDBRANCH  17  20
ENDBRANCH   1  16
BRANCH   1  31
ATOM     31  C   UNL     1      46.672   9.033  12.818  0.00  0.00    +0.000 C 
BRANCH  31  32
ATOM     32  N   UNL     1      45.236   9.051  13.141  0.00  0.00    +0.000 NA
ATOM     33  H   UNL     1      45.118   9.419  14.084  0.00  0.00    +0.000 HD
ATOM     34  H   UNL     1      44.879   8.095  13.162  0.00  0.00    +0.000 HD
ENDBRANCH  31  32
ENDBRANCH   1  31
TORSDOF 8
ENDMDL
MODEL 3
REMARK VINA RESULT:    -7.645      2.959      4.998
REMARK INTER + INTRA:         -12.179
REMARK INTER:                 -10.765
REMARK INTRA:                  -1.414
REMARK UNBOUND:                -1.183
REMARK  Name = 
REMARK  8 active torsions:
REMARK  status: ('A' for Active; 'I' for Inactive)
REMARK    1  A    between atoms: N_1  and  C_2
REMARK    2  A    between atoms: C_2  and  C_3
REMARK    3  A    between atoms: C_3  and  N_4
REMARK    4  A    between atoms: C_3  and  C_17
REMARK    5  A    between atoms: C_5  and  C_7
REMARK    6  A    between atoms: C_20  and  O_21
REMARK    7  A    between atoms: O_21  and  C_22
REMARK    8  A    between atoms: C_22  and  C_23
REMARK                            x       y       z     vdW  Elec       q    Type
REMARK                         _______ _______ _______ _____ _____    ______ ____
ROOT
ATOM      1  C   UNL     1      46.931   5.597  14.159  0.00  0.00    +0.000 C 
ENDROOT
BRANCH   1   2
ATOM      2  C   UNL     1      46.195   5.083  12.925  0.00  0.00    +0.000 A 
ATOM      3  C   UNL     1      45.647   3.793  12.892  0.00  0.00    +0.000 A 
ATOM      4  C   UNL     1      44.979   3.336  11.751  0.00  0.00    +0.000 A 
ATOM      5  C   UNL     1      44.842   4.162  10.634  0.00  0.00    +0.000 A 
ATOM      6  C   UNL     1      45.421   5.431  10.645  0.00  0.00    +0.000 A 
ATOM      7  C   UNL     1      46.071   5.894  11.786  0.00  0.00    +0.000 A 
BRANCH   5   8
ATOM      8  O   UNL     1      44.124   3.647   9.585  0.00  0.00    +0.000 OA
BRANCH   8   9
ATOM      9  C   UNL     1      44.470   2.299   9.244  0.00  0.00    +0.000 C 
BRANCH   9  10
ATOM     10  C   UNL     1      45.587   2.270   8.230  0.00  0.00    +0.000 A 
ATOM     11  C   UNL     1      45.795   3.347   7.371  0.00  0.00    +0.000 A 
ATOM     12  C   UNL     1      46.810   3.259   6.423  0.00  0.00    +0.000 A 
ATOM     13  C   UNL     1      47.588   2.109   6.361  0.00  0.00    +0.000 A 
ATOM     14  C   UNL     1      47.316   1.083   7.251  0.00  0.00    +0.000 A 
ATOM     15  N   UNL     1      46.335   1.137   8.177  0.00  0.00    +0.000 NA
ENDBRANCH   9  10
ENDBRANCH   8   9
ENDBRANCH   5   8
ENDBRANCH   1   2
BRANCH   1  16
ATOM     16  N   UNL     1      48.123   6.317  13.718  0.00  0.00    +0.000 N 
ATOM     17  C   UNL     1      48.754   7.250  14.502  0.00  0.00    +0.000 C 
ATOM     18  O   UNL     1      48.436   7.454  15.669  0.00  0.00    +0.000 OA
ATOM     19  H   UNL     1      48.259   6.374  12.712  0.00  0.00    +0.000 HD
BRANCH  17  20
ATOM     20  C   UNL     1      49.877   7.974  13.898  0.00  0.00    +0.000 A 
ATOM     21  C   UNL     1      51.151   7.833  14.434  0.00  0.00    +0.000 A 
ATOM     22  S   UNL     1      52.329   8.790  13.658  0.00  0.00    +0.000 S 
ATOM     23  C   UNL     1      51.170   9.458  12.606  0.00  0.00    +0.000 A 
ATOM     24  N   UNL     1      51.510  10.422  11.711  0.00  0.00    +0.000 NA
ATOM     25  C   UNL     1      50.523  10.867  11.008  0.00  0.00    +0.000 A 
ATOM     26  N   UNL     1      49.233  10.412  11.095  0.00  0.00    +0.000 N 
ATOM     27  C   UNL     1      48.857   9.392  11.938  0.00  0.00    +0.000 A 
ATOM     28  O   UNL     1      47.724   8.925  11.919  0.00  0.00    +0.000 OA
ATOM     29  C   UNL     1      49.915   8.910  12.802  0.00  0.00    +0.000 A 
ATOM     30  H   UNL     1      48.513  10.772  10.484  0.00  0.00    +0.000 HD
ENDBRANCH  17  20
ENDBRANCH   1  16
BRANCH   1  31
ATOM     31  C   UNL     1      47.252   4.414  15.131  0.00  0.00    +0.000 C 
BRANCH  31  32
ATOM     32  N   UNL     1      47.182   4.760  16.560  0.00  0.00    +0.000 NA
ATOM     33  H   UNL     1      46.921   5.741  16.646  0.00  0.00    +0.000 HD
ATOM     34  H   UNL     1      48.109   4.675  16.977  0.00  0.00    +0.000 HD
ENDBRANCH  31  32
ENDBRANCH   1  31
TORSDOF 8
ENDMDL
MODEL 4
REMARK VINA RESULT:    -7.599      3.284      4.907
REMARK INTER + INTRA:         -12.113
REMARK INTER:                 -10.763
REMARK INTRA:                  -1.350
REMARK UNBOUND:                -1.183
REMARK  Name = 
REMARK  8 active torsions:
REMARK  status: ('A' for Active; 'I' for Inactive)
REMARK    1  A    between atoms: N_1  and  C_2
REMARK    2  A    between atoms: C_2  and  C_3
REMARK    3  A    between atoms: C_3  and  N_4
REMARK    4  A    between atoms: C_3  and  C_17
REMARK    5  A    between atoms: C_5  and  C_7
REMARK    6  A    between atoms: C_20  and  O_21
REMARK    7  A    between atoms: O_21  and  C_22
REMARK    8  A    between atoms: C_22  and  C_23
REMARK                            x       y       z     vdW  Elec       q    Type
REMARK                         _______ _______ _______ _____ _____    ______ ____
ROOT
ATOM      1  C   UNL     1      46.752   5.751  13.982  0.00  0.00    +0.000 C 
ENDROOT
BRANCH   1   2
ATOM      2  C   UNL     1      46.061   5.138  12.766  0.00  0.00    +0.000 A 
ATOM      3  C   UNL     1      45.587   3.819  12.791  0.00  0.00    +0.000 A 
ATOM      4  C   UNL     1      44.959   3.271  11.667  0.00  0.00    +0.000 A 
ATOM      5  C   UNL     1      44.791   4.033  10.510  0.00  0.00    +0.000 A 
ATOM      6  C   UNL     1      45.298   5.332  10.465  0.00  0.00    +0.000 A 
ATOM      7  C   UNL     1      45.907   5.886  11.589  0.00  0.00    +0.000 A 
BRANCH   5   8
ATOM      8  O   UNL     1      44.116   3.429   9.480  0.00  0.00    +0.000 OA
BRANCH   8   9
ATOM      9  C   UNL     1      44.589   2.114   9.161  0.00  0.00    +0.000 C 
BRANCH   9  10
ATOM     10  C   UNL     1      45.690   2.172   8.132  0.00  0.00    +0.000 A 
ATOM     11  C   UNL     1      45.802   3.262   7.272  0.00  0.00    +0.000 A 
ATOM     12  C   UNL     1      46.807   3.254   6.310  0.00  0.00    +0.000 A 
ATOM     13  C   UNL     1      47.671   2.168   6.235  0.00  0.00    +0.000 A 
ATOM     14  C   UNL     1      47.493   1.124   7.127  0.00  0.00    +0.000 A 
ATOM     15  N   UNL     1      46.523   1.101   8.067  0.00  0.00    +0.000 NA
ENDBRANCH   9  10
ENDBRANCH   8   9
ENDBRANCH   5   8
ENDBRANCH   1   2
BRANCH   1  16
ATOM     16  N   UNL     1      47.883   6.550  13.515  0.00  0.00    +0.000 N 
ATOM     17  C   UNL     1      47.866   7.921  13.511  0.00  0.00    +0.000 C 
ATOM     18  O   UNL     1      46.954   8.571  14.012  0.00  0.00    +0.000 OA
ATOM     19  H   UNL     1      48.522   6.082  12.877  0.00  0.00    +0.000 HD
BRANCH  17  20
ATOM     20  C   UNL     1      49.025   8.598  12.920  0.00  0.00    +0.000 A 
ATOM     21  C   UNL     1      48.849   9.417  11.813  0.00  0.00    +0.000 A 
ATOM     22  S   UNL     1      50.303  10.074  11.210  0.00  0.00    +0.000 S 
ATOM     23  C   UNL     1      51.222   9.252  12.384  0.00  0.00    +0.000 A 
ATOM     24  N   UNL     1      52.579   9.326  12.387  0.00  0.00    +0.000 NA
ATOM     25  C   UNL     1      53.147   8.619  13.307  0.00  0.00    +0.000 A 
ATOM     26  N   UNL     1      52.481   7.872  14.243  0.00  0.00    +0.000 N 
ATOM     27  C   UNL     1      51.109   7.821  14.318  0.00  0.00    +0.000 A 
ATOM     28  O   UNL     1      50.534   7.239  15.230  0.00  0.00    +0.000 OA
ATOM     29  C   UNL     1      50.424   8.539  13.261  0.00  0.00    +0.000 A 
ATOM     30  H   UNL     1      52.984   7.375  14.964  0.00  0.00    +0.000 HD
ENDBRANCH  17  20
ENDBRANCH   1  16
BRANCH   1  31
ATOM     31  C   UNL     1      47.165   4.632  14.993  0.00  0.00    +0.000 C 
BRANCH  31  32
ATOM     32  N   UNL     1      48.301   4.981  15.862  0.00  0.00    +0.000 NA
ATOM     33  H   UNL     1      48.626   5.914  15.615  0.00  0.00    +0.000 HD
ATOM     34  H   UNL     1      49.080   4.349  15.675  0.00  0.00    +0.000 HD
ENDBRANCH  31  32
ENDBRANCH   1  31
TORSDOF 8
ENDMDL
MODEL 5
REMARK VINA RESULT:    -6.789      3.458      8.348
REMARK INTER + INTRA:         -10.948
REMARK INTER:                  -9.783
REMARK INTRA:                  -1.164
REMARK UNBOUND:                -1.183
REMARK  Name = 
REMARK  8 active torsions:
REMARK  status: ('A' for Active; 'I' for Inactive)
REMARK    1  A    between atoms: N_1  and  C_2
REMARK    2  A    between atoms: C_2  and  C_3
REMARK    3  A    between atoms: C_3  and  N_4
REMARK    4  A    between atoms: C_3  and  C_17
REMARK    5  A    between atoms: C_5  and  C_7
REMARK    6  A    between atoms: C_20  and  O_21
REMARK    7  A    between atoms: O_21  and  C_22
REMARK    8  A    between atoms: C_22  and  C_23
REMARK                            x       y       z     vdW  Elec       q    Type
REMARK                         _______ _______ _______ _____ _____    ______ ____
ROOT
ATOM      1  C   UNL     1      48.259   7.783  12.819  0.00  0.00    +0.000 C 
ENDROOT
BRANCH   1   2
ATOM      2  C   UNL     1      48.593   7.183  14.182  0.00  0.00    +0.000 A 
ATOM      3  C   UNL     1      48.004   5.985  14.611  0.00  0.00    +0.000 A 
ATOM      4  C   UNL     1      48.317   5.450  15.865  0.00  0.00    +0.000 A 
ATOM      5  C   UNL     1      49.227   6.098  16.701  0.00  0.00    +0.000 A 
ATOM      6  C   UNL     1      49.785   7.312  16.298  0.00  0.00    +0.000 A 
ATOM      7  C   UNL     1      49.488   7.837  15.042  0.00  0.00    +0.000 A 
BRANCH   5   8
ATOM      8  O   UNL     1      49.514   5.470  17.886  0.00  0.00    +0.000 OA
BRANCH   8   9
ATOM      9  C   UNL     1      49.245   4.062  17.883  0.00  0.00    +0.000 C 
BRANCH   9  10
ATOM     10  C   UNL     1      50.527   3.268  17.859  0.00  0.00    +0.000 A 
ATOM     11  C   UNL     1      50.560   1.990  17.308  0.00  0.00    +0.000 A 
ATOM     12  C   UNL     1      51.755   1.277  17.346  0.00  0.00    +0.000 A 
ATOM     13  C   UNL     1      52.878   1.857  17.924  0.00  0.00    +0.000 A 
ATOM     14  C   UNL     1      52.761   3.133  18.450  0.00  0.00    +0.000 A 
ATOM     15  N   UNL     1      51.614   3.846  18.433  0.00  0.00    +0.000 NA
ENDBRANCH   9  10
ENDBRANCH   8   9
ENDBRANCH   5   8
ENDBRANCH   1   2
BRANCH   1  16
ATOM     16  N   UNL     1      47.598   6.759  12.013  0.00  0.00    +0.000 N 
ATOM     17  C   UNL     1      46.267   6.820  11.688  0.00  0.00    +0.000 C 
ATOM     18  O   UNL     1      45.570   7.796  11.944  0.00  0.00    +0.000 OA
ATOM     19  H   UNL     1      48.047   5.846  12.003  0.00  0.00    +0.000 HD
BRANCH  17  20
ATOM     20  C   UNL     1      45.707   5.675  10.963  0.00  0.00    +0.000 A 
ATOM     21  C   UNL     1      45.827   5.614   9.581  0.00  0.00    +0.000 A 
ATOM     22  S   UNL     1      45.068   4.254   8.888  0.00  0.00    +0.000 S 
ATOM     23  C   UNL     1      44.518   3.721  10.407  0.00  0.00    +0.000 A 
ATOM     24  N   UNL     1      43.727   2.622  10.519  0.00  0.00    +0.000 NA
ATOM     25  C   UNL     1      43.349   2.359  11.726  0.00  0.00    +0.000 A 
ATOM     26  N   UNL     1      43.717   3.076  12.834  0.00  0.00    +0.000 N 
ATOM     27  C   UNL     1      44.569   4.154  12.776  0.00  0.00    +0.000 A 
ATOM     28  O   UNL     1      44.974   4.711  13.790  0.00  0.00    +0.000 OA
ATOM     29  C   UNL     1      44.962   4.535  11.434  0.00  0.00    +0.000 A 
ATOM     30  H   UNL     1      43.422   2.792  13.757  0.00  0.00    +0.000 HD
ENDBRANCH  17  20
ENDBRANCH   1  16
BRANCH   1  31
ATOM     31  C   UNL     1      49.550   8.356  12.147  0.00  0.00    +0.000 C 
BRANCH  31  32
ATOM     32  N   UNL     1      50.492   7.334  11.663  0.00  0.00    +0.000 NA
ATOM     33  H   UNL     1      51.321   7.345  12.256  0.00  0.00    +0.000 HD
ATOM     34  H   UNL     1      50.810   7.579  10.725  0.00  0.00    +0.000 HD
ENDBRANCH  31  32
ENDBRANCH   1  31
TORSDOF 8
ENDMDL
MODEL 6
REMARK VINA RESULT:    -6.636      4.151      5.695
REMARK INTER + INTRA:         -10.729
REMARK INTER:                  -9.569
REMARK INTRA:                  -1.160
REMARK UNBOUND:                -1.183
REMARK  Name = 
REMARK  8 active torsions:
REMARK  status: ('A' for Active; 'I' for Inactive)
REMARK    1  A    between atoms: N_1  and  C_2
REMARK    2  A    between atoms: C_2  and  C_3
REMARK    3  A    between atoms: C_3  and  N_4
REMARK    4  A    between atoms: C_3  and  C_17
REMARK    5  A    between atoms: C_5  and  C_7
REMARK    6  A    between atoms: C_20  and  O_21
REMARK    7  A    between atoms: O_21  and  C_22
REMARK    8  A    between atoms: C_22  and  C_23
REMARK                            x       y       z     vdW  Elec       q    Type
REMARK                         _______ _______ _______ _____ _____    ______ ____
ROOT
ATOM      1  C   UNL     1      48.471   7.353  13.908  0.00  0.00    +0.000 C 
ENDROOT
BRANCH   1   2
ATOM      2  C   UNL     1      47.428   6.471  13.227  0.00  0.00    +0.000 A 
ATOM      3  C   UNL     1      46.732   6.914  12.094  0.00  0.00    +0.000 A 
ATOM      4  C   UNL     1      45.776   6.095  11.483  0.00  0.00    +0.000 A 
ATOM      5  C   UNL     1      45.509   4.823  11.991  0.00  0.00    +0.000 A 
ATOM      6  C   UNL     1      46.168   4.392  13.143  0.00  0.00    +0.000 A 
ATOM      7  C   UNL     1      47.133   5.199  13.741  0.00  0.00    +0.000 A 
BRANCH   5   8
ATOM      8  O   UNL     1      44.597   4.071  11.293  0.00  0.00    +0.000 OA
BRANCH   8   9
ATOM      9  C   UNL     1      44.386   4.511   9.945  0.00  0.00    +0.000 C 
BRANCH   9  10
ATOM     10  C   UNL     1      45.203   3.692   8.977  0.00  0.00    +0.000 A 
ATOM     11  C   UNL     1      45.296   2.309   9.119  0.00  0.00    +0.000 A 
ATOM     12  C   UNL     1      46.094   1.599   8.228  0.00  0.00    +0.000 A 
ATOM     13  C   UNL     1      46.771   2.281   7.224  0.00  0.00    +0.000 A 
ATOM     14  C   UNL     1      46.626   3.656   7.152  0.00  0.00    +0.000 A 
ATOM     15  N   UNL     1      45.863   4.374   8.005  0.00  0.00    +0.000 NA
ENDBRANCH   9  10
ENDBRANCH   8   9
ENDBRANCH   5   8
ENDBRANCH   1   2
BRANCH   1  16
ATOM     16  N   UNL     1      49.715   7.267  13.148  0.00  0.00    +0.000 N 
ATOM     17  C   UNL     1      50.175   8.296  12.366  0.00  0.00    +0.000 C 
ATOM     18  O   UNL     1      49.641   9.400  12.347  0.00  0.00    +0.000 OA
ATOM     19  H   UNL     1      50.038   6.327  12.932  0.00  0.00    +0.000 HD
BRANCH  17  20
ATOM     20  C   UNL     1      51.383   8.039  11.574  0.00  0.00    +0.000 A 
ATOM     21  C   UNL     1      51.280   7.354  10.370  0.00  0.00    +0.000 A 
ATOM     22  S   UNL     1      52.781   7.083   9.608  0.00  0.00    +0.000 S 
ATOM     23  C   UNL     1      53.623   7.835  10.881  0.00  0.00    +0.000 A 
ATOM     24  N   UNL     1      54.981   7.883  10.890  0.00  0.00    +0.000 NA
ATOM     25  C   UNL     1      55.487   8.446  11.937  0.00  0.00    +0.000 A 
ATOM     26  N   UNL     1      54.757   8.994  12.960  0.00  0.00    +0.000 N 
ATOM     27  C   UNL     1      53.382   9.028  12.960  0.00  0.00    +0.000 A 
ATOM     28  O   UNL     1      52.752   9.622  13.827  0.00  0.00    +0.000 OA
ATOM     29  C   UNL     1      52.766   8.342  11.841  0.00  0.00    +0.000 A 
ATOM     30  H   UNL     1      55.213   9.459  13.731  0.00  0.00    +0.000 HD
ENDBRANCH  17  20
ENDBRANCH   1  16
BRANCH   1  31
ATOM     31  C   UNL     1      48.636   6.938  15.407  0.00  0.00    +0.000 C 
BRANCH  31  32
ATOM     32  N   UNL     1      49.946   6.352  15.738  0.00  0.00    +0.000 NA
ATOM     33  H   UNL     1      50.473   6.221  14.877  0.00  0.00    +0.000 HD
ATOM     34  H   UNL     1      49.813   5.422  16.135  0.00  0.00    +0.000 HD
ENDBRANCH  31  32
ENDBRANCH   1  31
TORSDOF 8
ENDMDL
MODEL 7
REMARK VINA RESULT:    -6.587      3.185      8.770
REMARK INTER + INTRA:         -10.658
REMARK INTER:                  -9.597
REMARK INTRA:                  -1.060
REMARK UNBOUND:                -1.183
REMARK  Name = 
REMARK  8 active torsions:
REMARK  status: ('A' for Active; 'I' for Inactive)
REMARK    1  A    between atoms: N_1  and  C_2
REMARK    2  A    between atoms: C_2  and  C_3
REMARK    3  A    between atoms: C_3  and  N_4
REMARK    4  A    between atoms: C_3  and  C_17
REMARK    5  A    between atoms: C_5  and  C_7
REMARK    6  A    between atoms: C_20  and  O_21
REMARK    7  A    between atoms: O_21  and  C_22
REMARK    8  A    between atoms: C_22  and  C_23
REMARK                            x       y       z     vdW  Elec       q    Type
REMARK                         _______ _______ _______ _____ _____    ______ ____
ROOT
ATOM      1  C   UNL     1      47.699   7.257  12.857  0.00  0.00    +0.000 C 
ENDROOT
BRANCH   1   2
ATOM      2  C   UNL     1      48.248   6.769  14.195  0.00  0.00    +0.000 A 
ATOM      3  C   UNL     1      47.673   5.677  14.860  0.00  0.00    +0.000 A 
ATOM      4  C   UNL     1      48.185   5.245  16.088  0.00  0.00    +0.000 A 
ATOM      5  C   UNL     1      49.280   5.891  16.663  0.00  0.00    +0.000 A 
ATOM      6  C   UNL     1      49.831   7.005  16.027  0.00  0.00    +0.000 A 
ATOM      7  C   UNL     1      49.333   7.425  14.796  0.00  0.00    +0.000 A 
BRANCH   5   8
ATOM      8  O   UNL     1      49.746   5.362  17.839  0.00  0.00    +0.000 OA
BRANCH   8   9
ATOM      9  C   UNL     1      51.168   5.183  17.877  0.00  0.00    +0.000 C 
BRANCH   9  10
ATOM     10  C   UNL     1      51.529   3.721  17.779  0.00  0.00    +0.000 A 
ATOM     11  C   UNL     1      50.583   2.781  17.379  0.00  0.00    +0.000 A 
ATOM     12  C   UNL     1      50.949   1.439  17.343  0.00  0.00    +0.000 A 
ATOM     13  C   UNL     1      52.241   1.074  17.700  0.00  0.00    +0.000 A 
ATOM     14  C   UNL     1      53.122   2.070  18.086  0.00  0.00    +0.000 A 
ATOM     15  N   UNL     1      52.794   3.379  18.137  0.00  0.00    +0.000 NA
ENDBRANCH   9  10
ENDBRANCH   8   9
ENDBRANCH   5   8
ENDBRANCH   1   2
BRANCH   1  16
ATOM     16  N   UNL     1      46.910   6.181  12.263  0.00  0.00    +0.000 N 
ATOM     17  C   UNL     1      45.538   6.199  12.238  0.00  0.00    +0.000 C 
ATOM     18  O   UNL     1      44.885   7.172  12.600  0.00  0.00    +0.000 OA
ATOM     19  H   UNL     1      47.373   5.279  12.193  0.00  0.00    +0.000 HD
BRANCH  17  20
ATOM     20  C   UNL     1      44.868   5.008  11.705  0.00  0.00    +0.000 A 
ATOM     21  C   UNL     1      44.059   4.247  12.538  0.00  0.00    +0.000 A 
ATOM     22  S   UNL     1      43.409   2.864  11.783  0.00  0.00    +0.000 S 
ATOM     23  C   UNL     1      44.220   3.213  10.328  0.00  0.00    +0.000 A 
ATOM     24  N   UNL     1      44.147   2.368   9.266  0.00  0.00    +0.000 NA
ATOM     25  C   UNL     1      44.846   2.736   8.244  0.00  0.00    +0.000 A 
ATOM     26  N   UNL     1      45.584   3.889   8.176  0.00  0.00    +0.000 N 
ATOM     27  C   UNL     1      45.633   4.805   9.201  0.00  0.00    +0.000 A 
ATOM     28  O   UNL     1      46.207   5.881   9.078  0.00  0.00    +0.000 OA
ATOM     29  C   UNL     1      44.925   4.401  10.399  0.00  0.00    +0.000 A 
ATOM     30  H   UNL     1      46.075   4.142   7.330  0.00  0.00    +0.000 HD
ENDBRANCH  17  20
ENDBRANCH   1  16
BRANCH   1  31
ATOM     31  C   UNL     1      48.867   7.743  11.937  0.00  0.00    +0.000 C 
BRANCH  31  32
ATOM     32  N   UNL     1      48.830   9.178  11.609  0.00  0.00    +0.000 NA
ATOM     33  H   UNL     1      48.147   9.634  12.211  0.00  0.00    +0.000 HD
ATOM     34  H   UNL     1      48.493   9.301  10.653  0.00  0.00    +0.000 HD
ENDBRANCH  31  32
ENDBRANCH   1  31
TORSDOF 8
ENDMDL
MODEL 8
REMARK VINA RESULT:    -6.368      3.376      9.606
REMARK INTER + INTRA:         -10.342
REMARK INTER:                  -9.364
REMARK INTRA:                  -0.979
REMARK UNBOUND:                -1.183
REMARK  Name = 
REMARK  8 active torsions:
REMARK  status: ('A' for Active; 'I' for Inactive)
REMARK    1  A    between atoms: N_1  and  C_2
REMARK    2  A    between atoms: C_2  and  C_3
REMARK    3  A    between atoms: C_3  and  N_4
REMARK    4  A    between atoms: C_3  and  C_17
REMARK    5  A    between atoms: C_5  and  C_7
REMARK    6  A    between atoms: C_20  and  O_21
REMARK    7  A    between atoms: O_21  and  C_22
REMARK    8  A    between atoms: C_22  and  C_23
REMARK                            x       y       z     vdW  Elec       q    Type
REMARK                         _______ _______ _______ _____ _____    ______ ____
ROOT
ATOM      1  C   UNL     1      44.598   4.612  11.476  0.00  0.00    +0.000 C 
ENDROOT
BRANCH   1   2
ATOM      2  C   UNL     1      45.696   5.052  12.440  0.00  0.00    +0.000 A 
ATOM      3  C   UNL     1      45.832   4.460  13.703  0.00  0.00    +0.000 A 
ATOM      4  C   UNL     1      46.841   4.878  14.578  0.00  0.00    +0.000 A 
ATOM      5  C   UNL     1      47.731   5.885  14.199  0.00  0.00    +0.000 A 
ATOM      6  C   UNL     1      47.575   6.507  12.960  0.00  0.00    +0.000 A 
ATOM      7  C   UNL     1      46.582   6.080  12.082  0.00  0.00    +0.000 A 
BRANCH   5   8
ATOM      8  O   UNL     1      48.721   6.188  15.099  0.00  0.00    +0.000 OA
BRANCH   8   9
ATOM      9  C   UNL     1      48.522   5.620  16.400  0.00  0.00    +0.000 C 
BRANCH   9  10
ATOM     10  C   UNL     1      49.797   5.004  16.919  0.00  0.00    +0.000 A 
ATOM     11  C   UNL     1      50.960   5.762  17.027  0.00  0.00    +0.000 A 
ATOM     12  C   UNL     1      52.124   5.141  17.471  0.00  0.00    +0.000 A 
ATOM     13  C   UNL     1      52.095   3.791  17.798  0.00  0.00    +0.000 A 
ATOM     14  C   UNL     1      50.898   3.108  17.663  0.00  0.00    +0.000 A 
ATOM     15  N   UNL     1      49.755   3.682  17.229  0.00  0.00    +0.000 NA
ENDBRANCH   9  10
ENDBRANCH   8   9
ENDBRANCH   5   8
ENDBRANCH   1   2
BRANCH   1  16
ATOM     16  N   UNL     1      45.215   3.862  10.385  0.00  0.00    +0.000 N 
ATOM     17  C   UNL     1      44.650   2.730   9.855  0.00  0.00    +0.000 C 
ATOM     18  O   UNL     1      43.532   2.340  10.173  0.00  0.00    +0.000 OA
ATOM     19  H   UNL     1      46.219   3.987  10.274  0.00  0.00    +0.000 HD
BRANCH  17  20
ATOM     20  C   UNL     1      45.426   2.016   8.835  0.00  0.00    +0.000 A 
ATOM     21  C   UNL     1      45.389   0.628   8.795  0.00  0.00    +0.000 A 
ATOM     22  S   UNL     1      46.395  -0.047   7.595  0.00  0.00    +0.000 S 
ATOM     23  C   UNL     1      46.944   1.491   7.115  0.00  0.00    +0.000 A 
ATOM     24  N   UNL     1      47.896   1.625   6.155  0.00  0.00    +0.000 NA
ATOM     25  C   UNL     1      48.248   2.846   5.922  0.00  0.00    +0.000 A 
ATOM     26  N   UNL     1      47.711   3.946   6.540  0.00  0.00    +0.000 N 
ATOM     27  C   UNL     1      46.699   3.861   7.468  0.00  0.00    +0.000 A 
ATOM     28  O   UNL     1      46.157   4.860   7.924  0.00  0.00    +0.000 OA
ATOM     29  C   UNL     1      46.321   2.506   7.818  0.00  0.00    +0.000 A 
ATOM     30  H   UNL     1      47.999   4.879   6.281  0.00  0.00    +0.000 HD
ENDBRANCH  17  20
ENDBRANCH   1  16
BRANCH   1  31
ATOM     31  C   UNL     1      43.779   5.851  10.984  0.00  0.00    +0.000 C 
BRANCH  31  32
ATOM     32  N   UNL     1      42.361   5.843  11.378  0.00  0.00    +0.000 NA
ATOM     33  H   UNL     1      42.286   5.462  12.320  0.00  0.00    +0.000 HD
ATOM     34  H   UNL     1      41.842   5.206  10.771  0.00  0.00    +0.000 HD
ENDBRANCH  31  32
ENDBRANCH   1  31
TORSDOF 8
ENDMDL
MODEL 9
REMARK VINA RESULT:    -6.192      3.951      8.722
REMARK INTER + INTRA:         -10.089
REMARK INTER:                  -8.946
REMARK INTRA:                  -1.143
REMARK UNBOUND:                -1.183
REMARK  Name = 
REMARK  8 active torsions:
REMARK  status: ('A' for Active; 'I' for Inactive)
REMARK    1  A    between atoms: N_1  and  C_2
REMARK    2  A    between atoms: C_2  and  C_3
REMARK    3  A    between atoms: C_3  and  N_4
REMARK    4  A    between atoms: C_3  and  C_17
REMARK    5  A    between atoms: C_5  and  C_7
REMARK    6  A    between atoms: C_20  and  O_21
REMARK    7  A    between atoms: O_21  and  C_22
REMARK    8  A    between atoms: C_22  and  C_23
REMARK                            x       y       z     vdW  Elec       q    Type
REMARK                         _______ _______ _______ _____ _____    ______ ____
ROOT
ATOM      1  C   UNL     1      48.007   4.446  16.409  0.00  0.00    +0.000 C 
ENDROOT
BRANCH   1   2
ATOM      2  C   UNL     1      49.167   5.374  16.761  0.00  0.00    +0.000 A 
ATOM      3  C   UNL     1      49.244   6.670  16.232  0.00  0.00    +0.000 A 
ATOM      4  C   UNL     1      50.316   7.507  16.561  0.00  0.00    +0.000 A 
ATOM      5  C   UNL     1      51.317   7.064  17.426  0.00  0.00    +0.000 A 
ATOM      6  C   UNL     1      51.269   5.761  17.922  0.00  0.00    +0.000 A 
ATOM      7  C   UNL     1      50.193   4.933  17.610  0.00  0.00    +0.000 A 
BRANCH   5   8
ATOM      8  O   UNL     1      52.297   7.973  17.734  0.00  0.00    +0.000 OA
BRANCH   8   9
ATOM      9  C   UNL     1      53.630   7.459  17.617  0.00  0.00    +0.000 C 
BRANCH   9  10
ATOM     10  C   UNL     1      54.076   7.442  16.176  0.00  0.00    +0.000 A 
ATOM     11  C   UNL     1      53.895   8.558  15.363  0.00  0.00    +0.000 A 
ATOM     12  C   UNL     1      54.283   8.483  14.028  0.00  0.00    +0.000 A 
ATOM     13  C   UNL     1      54.843   7.305  13.546  0.00  0.00    +0.000 A 
ATOM     14  C   UNL     1      54.989   6.241  14.419  0.00  0.00    +0.000 A 
ATOM     15  N   UNL     1      54.616   6.282  15.717  0.00  0.00    +0.000 NA
ENDBRANCH   9  10
ENDBRANCH   8   9
ENDBRANCH   5   8
ENDBRANCH   1   2
BRANCH   1  16
ATOM     16  N   UNL     1      47.138   5.134  15.457  0.00  0.00    +0.000 N 
ATOM     17  C   UNL     1      46.992   4.719  14.158  0.00  0.00    +0.000 C 
ATOM     18  O   UNL     1      47.481   3.675  13.740  0.00  0.00    +0.000 OA
ATOM     19  H   UNL     1      46.931   6.107  15.670  0.00  0.00    +0.000 HD
BRANCH  17  20
ATOM     20  C   UNL     1      46.171   5.560  13.281  0.00  0.00    +0.000 A 
ATOM     21  C   UNL     1      46.551   6.874  13.039  0.00  0.00    +0.000 A 
ATOM     22  S   UNL     1      45.456   7.732  12.054  0.00  0.00    +0.000 S 
ATOM     23  C   UNL     1      44.416   6.390  11.950  0.00  0.00    +0.000 A 
ATOM     24  N   UNL     1      43.229   6.474  11.293  0.00  0.00    +0.000 NA
ATOM     25  C   UNL     1      42.523   5.393  11.330  0.00  0.00    +0.000 A 
ATOM     26  N   UNL     1      42.911   4.226  11.937  0.00  0.00    +0.000 N 
ATOM     27  C   UNL     1      44.130   4.076  12.555  0.00  0.00    +0.000 A 
ATOM     28  O   UNL     1      44.502   2.993  12.991  0.00  0.00    +0.000 OA
ATOM     29  C   UNL     1      44.929   5.284  12.604  0.00  0.00    +0.000 A 
ATOM     30  H   UNL     1      42.330   3.401  11.893  0.00  0.00    +0.000 HD
ENDBRANCH  17  20
ENDBRANCH   1  16
BRANCH   1  31
ATOM     31  C   UNL     1      47.260   3.994  17.707  0.00  0.00    +0.000 C 
BRANCH  31  32
ATOM     32  N   UNL     1      46.569   5.078  18.423  0.00  0.00    +0.000 NA
ATOM     33  H   UNL     1      45.995   5.595  17.760  0.00  0.00    +0.000 HD
ATOM     34  H   UNL     1      47.256   5.742  18.782  0.00  0.00    +0.000 HD
ENDBRANCH  31  32
ENDBRANCH   1  31
TORSDOF 8
ENDMDL
