MODEL 1
REMARK VINA RESULT:    -8.205      0.000      0.000
REMARK INTER + INTRA:         -10.913
REMARK INTER:                 -10.603
REMARK INTRA:                  -0.309
REMARK UNBOUND:                -0.309
REMARK  Name = 
REMARK  5 active torsions:
REMARK  status: ('A' for Active; 'I' for Inactive)
REMARK    1  A    between atoms: C_2  and  C_17
REMARK    2  A    between atoms: N_3  and  C_4
REMARK    3  A    between atoms: C_4  and  C_5
REMARK    4  A    between atoms: C_8  and  C_9
REMARK    5  A    between atoms: C_9  and  N_10
REMARK                            x       y       z     vdW  Elec       q    Type
REMARK                         _______ _______ _______ _____ _____    ______ ____
ROOT
ATOM      1  O   UNL     1      46.586   3.262  13.649  0.00  0.00    +0.000 OA
ATOM      2  C   UNL     1      46.361   4.405  14.039  0.00  0.00    +0.000 C 
ATOM      3  N   UNL     1      45.168   5.039  13.819  0.00  0.00    +0.000 N 
ATOM      4  H   UNL     1      45.089   6.030  14.011  0.00  0.00    +0.000 HD
ENDROOT
BRANCH   2   5
ATOM      5  C   UNL     1      47.357   5.159  14.810  0.00  0.00    +0.000 A 
ATOM      6  C   UNL     1      48.079   6.173  14.194  0.00  0.00    +0.000 A 
ATOM      7  S   UNL     1      49.197   6.939  15.230  0.00  0.00    +0.000 S 
ATOM      8  C   UNL     1      48.728   5.970  16.547  0.00  0.00    +0.000 A 
ATOM      9  N   UNL     1      49.287   6.137  17.777  0.00  0.00    +0.000 NA
ATOM     10  C   UNL     1      48.806   5.365  18.692  0.00  0.00    +0.000 A 
ATOM     11  N   UNL     1      47.828   4.427  18.490  0.00  0.00    +0.000 N 
ATOM     12  C   UNL     1      47.293   4.168  17.249  0.00  0.00    +0.000 A 
ATOM     13  O   UNL     1      46.525   3.224  17.083  0.00  0.00    +0.000 OA
ATOM     14  C   UNL     1      47.755   5.049  16.195  0.00  0.00    +0.000 A 
ATOM     15  H   UNL     1      47.520   3.828  19.240  0.00  0.00    +0.000 HD
ENDBRANCH   2   5
BRANCH   3  16
ATOM     16  C   UNL     1      44.137   4.484  12.985  0.00  0.00    +0.000 C 
BRANCH  16  17
ATOM     17  C   UNL     1      44.540   4.487  11.534  0.00  0.00    +0.000 A 
ATOM     18  C   UNL     1      45.289   5.553  11.023  0.00  0.00    +0.000 A 
ATOM     19  C   UNL     1      45.771   5.516   9.716  0.00  0.00    +0.000 A 
ATOM     20  C   UNL     1      45.530   4.408   8.895  0.00  0.00    +0.000 A 
ATOM     21  C   UNL     1      44.684   3.394   9.371  0.00  0.00    +0.000 A 
ATOM     22  C   UNL     1      44.189   3.435  10.678  0.00  0.00    +0.000 A 
BRANCH  20  23
ATOM     23  C   UNL     1      46.212   4.288   7.548  0.00  0.00    +0.000 C 
BRANCH  23  24
ATOM     24  N   UNL     1      46.118   2.995   6.848  0.00  0.00    +0.000 NA
ATOM     25  C   UNL     1      46.768   1.869   7.518  0.00  0.00    +0.000 C 
ATOM     26  C   UNL     1      48.143   1.755   6.884  0.00  0.00    +0.000 C 
ATOM     27  C   UNL     1      47.915   2.197   5.449  0.00  0.00    +0.000 C 
ATOM     28  C   UNL     1      46.609   2.987   5.467  0.00  0.00    +0.000 C 
ENDBRANCH  23  24
ENDBRANCH  20  23
ENDBRANCH  16  17
ENDBRANCH   3  16
TORSDOF 5
ENDMDL
MODEL 2
REMARK VINA RESULT:    -7.662      2.068      3.282
REMARK INTER + INTRA:         -10.210
REMARK INTER:                  -9.412
REMARK INTRA:                  -0.798
REMARK UNBOUND:                -0.309
REMARK  Name = 
REMARK  5 active torsions:
REMARK  status: ('A' for Active; 'I' for Inactive)
REMARK    1  A    between atoms: C_2  and  C_17
REMARK    2  A    between atoms: N_3  and  C_4
REMARK    3  A    between atoms: C_4  and  C_5
REMARK    4  A    between atoms: C_8  and  C_9
REMARK    5  A    between atoms: C_9  and  N_10
REMARK                            x       y       z     vdW  Elec       q    Type
REMARK                         _______ _______ _______ _____ _____    ______ ____
ROOT
ATOM      1  O   UNL     1      46.411   3.876  14.069  0.00  0.00    +0.000 OA
ATOM      2  C   UNL     1      46.406   5.098  13.942  0.00  0.00    +0.000 C 
ATOM      3  N   UNL     1      45.288   5.798  13.574  0.00  0.00    +0.000 N 
ATOM      4  H   UNL     1      45.374   6.775  13.323  0.00  0.00    +0.000 HD
ENDROOT
BRANCH   2   5
ATOM      5  C   UNL     1      47.605   5.899  14.217  0.00  0.00    +0.000 A 
ATOM      6  C   UNL     1      48.198   5.843  15.472  0.00  0.00    +0.000 A 
ATOM      7  S   UNL     1      49.573   6.840  15.620  0.00  0.00    +0.000 S 
ATOM      8  C   UNL     1      49.450   7.350  14.002  0.00  0.00    +0.000 A 
ATOM      9  N   UNL     1      50.362   8.206  13.463  0.00  0.00    +0.000 NA
ATOM     10  C   UNL     1      50.172   8.473  12.215  0.00  0.00    +0.000 A 
ATOM     11  N   UNL     1      49.144   7.977  11.457  0.00  0.00    +0.000 N 
ATOM     12  C   UNL     1      48.156   7.175  11.979  0.00  0.00    +0.000 A 
ATOM     13  O   UNL     1      47.176   6.869  11.304  0.00  0.00    +0.000 OA
ATOM     14  C   UNL     1      48.353   6.795  13.363  0.00  0.00    +0.000 A 
ATOM     15  H   UNL     1      49.029   8.253  10.494  0.00  0.00    +0.000 HD
ENDBRANCH   2   5
BRANCH   3  16
ATOM     16  C   UNL     1      44.072   5.155  13.159  0.00  0.00    +0.000 C 
BRANCH  16  17
ATOM     17  C   UNL     1      44.227   4.499  11.813  0.00  0.00    +0.000 A 
ATOM     18  C   UNL     1      44.672   5.252  10.720  0.00  0.00    +0.000 A 
ATOM     19  C   UNL     1      44.934   4.637   9.497  0.00  0.00    +0.000 A 
ATOM     20  C   UNL     1      44.772   3.256   9.341  0.00  0.00    +0.000 A 
ATOM     21  C   UNL     1      44.217   2.523  10.402  0.00  0.00    +0.000 A 
ATOM     22  C   UNL     1      43.942   3.140  11.626  0.00  0.00    +0.000 A 
BRANCH  20  23
ATOM     23  C   UNL     1      45.236   2.567   8.074  0.00  0.00    +0.000 C 
BRANCH  23  24
ATOM     24  N   UNL     1      46.659   2.692   7.712  0.00  0.00    +0.000 NA
ATOM     25  C   UNL     1      46.965   3.707   6.704  0.00  0.00    +0.000 C 
ATOM     26  C   UNL     1      47.017   2.965   5.381  0.00  0.00    +0.000 C 
ATOM     27  C   UNL     1      47.552   1.594   5.757  0.00  0.00    +0.000 C 
ATOM     28  C   UNL     1      47.305   1.458   7.258  0.00  0.00    +0.000 C 
ENDBRANCH  23  24
ENDBRANCH  20  23
ENDBRANCH  16  17
ENDBRANCH   3  16
TORSDOF 5
ENDMDL
MODEL 3
REMARK VINA RESULT:    -7.486      3.216      4.673
REMARK INTER + INTRA:          -9.984
REMARK INTER:                  -9.856
REMARK INTRA:                  -0.127
REMARK UNBOUND:                -0.309
REMARK  Name = 
REMARK  5 active torsions:
REMARK  status: ('A' for Active; 'I' for Inactive)
REMARK    1  A    between atoms: C_2  and  C_17
REMARK    2  A    between atoms: N_3  and  C_4
REMARK    3  A    between atoms: C_4  and  C_5
REMARK    4  A    between atoms: C_8  and  C_9
REMARK    5  A    between atoms: C_9  and  N_10
REMARK                            x       y       z     vdW  Elec       q    Type
REMARK                         _______ _______ _______ _____ _____    ______ ____
ROOT
ATOM      1  O   UNL     1      45.911   5.250  13.065  0.00  0.00    +0.000 OA
ATOM      2  C   UNL     1      45.302   6.312  12.948  0.00  0.00    +0.000 C 
ATOM      3  N   UNL     1      43.936   6.377  12.886  0.00  0.00    +0.000 N 
ATOM      4  H   UNL     1      43.491   7.247  12.625  0.00  0.00    +0.000 HD
ENDROOT
BRANCH   2   5
ATOM      5  C   UNL     1      46.010   7.597  12.904  0.00  0.00    +0.000 A 
ATOM      6  C   UNL     1      47.200   7.751  13.602  0.00  0.00    +0.000 A 
ATOM      7  S   UNL     1      47.883   9.306  13.448  0.00  0.00    +0.000 S 
ATOM      8  C   UNL     1      46.634   9.815  12.411  0.00  0.00    +0.000 A 
ATOM      9  N   UNL     1      46.632  11.067  11.875  0.00  0.00    +0.000 NA
ATOM     10  C   UNL     1      45.650  11.302  11.071  0.00  0.00    +0.000 A 
ATOM     11  N   UNL     1      44.658  10.408  10.766  0.00  0.00    +0.000 N 
ATOM     12  C   UNL     1      44.576   9.163  11.345  0.00  0.00    +0.000 A 
ATOM     13  O   UNL     1      43.596   8.447  11.155  0.00  0.00    +0.000 OA
ATOM     14  C   UNL     1      45.688   8.823  12.210  0.00  0.00    +0.000 A 
ATOM     15  H   UNL     1      43.896  10.665  10.157  0.00  0.00    +0.000 HD
ENDBRANCH   2   5
BRANCH   3  16
ATOM     16  C   UNL     1      43.107   5.206  12.800  0.00  0.00    +0.000 C 
BRANCH  16  17
ATOM     17  C   UNL     1      43.482   4.350  11.620  0.00  0.00    +0.000 A 
ATOM     18  C   UNL     1      43.739   4.948  10.381  0.00  0.00    +0.000 A 
ATOM     19  C   UNL     1      44.202   4.186   9.310  0.00  0.00    +0.000 A 
ATOM     20  C   UNL     1      44.433   2.813   9.455  0.00  0.00    +0.000 A 
ATOM     21  C   UNL     1      44.067   2.197  10.661  0.00  0.00    +0.000 A 
ATOM     22  C   UNL     1      43.590   2.958  11.734  0.00  0.00    +0.000 A 
BRANCH  20  23
ATOM     23  C   UNL     1      45.113   2.029   8.351  0.00  0.00    +0.000 C 
BRANCH  23  24
ATOM     24  N   UNL     1      46.506   2.379   8.024  0.00  0.00    +0.000 NA
ATOM     25  C   UNL     1      46.683   3.629   7.284  0.00  0.00    +0.000 C 
ATOM     26  C   UNL     1      46.772   3.228   5.822  0.00  0.00    +0.000 C 
ATOM     27  C   UNL     1      47.448   1.869   5.862  0.00  0.00    +0.000 C 
ATOM     28  C   UNL     1      47.258   1.359   7.288  0.00  0.00    +0.000 C 
ENDBRANCH  23  24
ENDBRANCH  20  23
ENDBRANCH  16  17
ENDBRANCH   3  16
TORSDOF 5
ENDMDL
MODEL 4
REMARK VINA RESULT:    -7.480      4.002      9.025
REMARK INTER + INTRA:          -9.976
REMARK INTER:                  -9.348
REMARK INTRA:                  -0.628
REMARK UNBOUND:                -0.309
REMARK  Name = 
REMARK  5 active torsions:
REMARK  status: ('A' for Active; 'I' for Inactive)
REMARK    1  A    between atoms: C_2  and  C_17
REMARK    2  A    between atoms: N_3  and  C_4
REMARK    3  A    between atoms: C_4  and  C_5
REMARK    4  A    between atoms: C_8  and  C_9
REMARK    5  A    between atoms: C_9  and  N_10
REMARK                            x       y       z     vdW  Elec       q    Type
REMARK                         _______ _______ _______ _____ _____    ______ ____
ROOT
ATOM      1  O   UNL     1      47.226   3.113  14.019  0.00  0.00    +0.000 OA
ATOM      2  C   UNL     1      46.772   4.162  14.470  0.00  0.00    +0.000 C 
ATOM      3  N   UNL     1      46.786   4.458  15.808  0.00  0.00    +0.000 N 
ATOM      4  H   UNL     1      46.256   5.251  16.146  0.00  0.00    +0.000 HD
ENDROOT
BRANCH   2   5
ATOM      5  C   UNL     1      46.212   5.194  13.589  0.00  0.00    +0.000 A 
ATOM      6  C   UNL     1      46.961   6.325  13.292  0.00  0.00    +0.000 A 
ATOM      7  S   UNL     1      46.157   7.422  12.263  0.00  0.00    +0.000 S 
ATOM      8  C   UNL     1      44.798   6.406  12.146  0.00  0.00    +0.000 A 
ATOM      9  N   UNL     1      43.731   6.746  11.371  0.00  0.00    +0.000 NA
ATOM     10  C   UNL     1      42.790   5.863  11.341  0.00  0.00    +0.000 A 
ATOM     11  N   UNL     1      42.807   4.678  12.027  0.00  0.00    +0.000 N 
ATOM     12  C   UNL     1      43.826   4.330  12.884  0.00  0.00    +0.000 A 
ATOM     13  O   UNL     1      43.737   3.328  13.589  0.00  0.00    +0.000 OA
ATOM     14  C   UNL     1      44.938   5.259  12.910  0.00  0.00    +0.000 A 
ATOM     15  H   UNL     1      42.023   4.045  11.990  0.00  0.00    +0.000 HD
ENDBRANCH   2   5
BRANCH   3  16
ATOM     16  C   UNL     1      47.192   3.509  16.808  0.00  0.00    +0.000 C 
BRANCH  16  17
ATOM     17  C   UNL     1      48.683   3.523  17.011  0.00  0.00    +0.000 A 
ATOM     18  C   UNL     1      49.350   4.743  17.174  0.00  0.00    +0.000 A 
ATOM     19  C   UNL     1      50.709   4.770  17.480  0.00  0.00    +0.000 A 
ATOM     20  C   UNL     1      51.430   3.581  17.645  0.00  0.00    +0.000 A 
ATOM     21  C   UNL     1      50.787   2.365  17.368  0.00  0.00    +0.000 A 
ATOM     22  C   UNL     1      49.426   2.336  17.048  0.00  0.00    +0.000 A 
BRANCH  20  23
ATOM     23  C   UNL     1      52.854   3.613  18.161  0.00  0.00    +0.000 C 
BRANCH  23  24
ATOM     24  N   UNL     1      53.289   2.506  19.030  0.00  0.00    +0.000 NA
ATOM     25  C   UNL     1      54.080   2.896  20.197  0.00  0.00    +0.000 C 
ATOM     26  C   UNL     1      55.531   2.724  19.782  0.00  0.00    +0.000 C 
ATOM     27  C   UNL     1      55.493   1.546  18.824  0.00  0.00    +0.000 C 
ATOM     28  C   UNL     1      54.042   1.438  18.366  0.00  0.00    +0.000 C 
ENDBRANCH  23  24
ENDBRANCH  20  23
ENDBRANCH  16  17
ENDBRANCH   3  16
TORSDOF 5
ENDMDL
MODEL 5
REMARK VINA RESULT:    -7.438      1.495      1.988
REMARK INTER + INTRA:          -9.922
REMARK INTER:                  -9.320
REMARK INTRA:                  -0.602
REMARK UNBOUND:                -0.309
REMARK  Name = 
REMARK  5 active torsions:
REMARK  status: ('A' for Active; 'I' for Inactive)
REMARK    1  A    between atoms: C_2  and  C_17
REMARK    2  A    between atoms: N_3  and  C_4
REMARK    3  A    between atoms: C_4  and  C_5
REMARK    4  A    between atoms: C_8  and  C_9
REMARK    5  A    between atoms: C_9  and  N_10
REMARK                            x       y       z     vdW  Elec       q    Type
REMARK                         _______ _______ _______ _____ _____    ______ ____
ROOT
ATOM      1  O   UNL     1      48.103   7.225  12.624  0.00  0.00    +0.000 OA
ATOM      2  C   UNL     1      47.519   6.782  13.611  0.00  0.00    +0.000 C 
ATOM      3  N   UNL     1      46.164   6.587  13.641  0.00  0.00    +0.000 N 
ATOM      4  H   UNL     1      45.712   6.381  14.523  0.00  0.00    +0.000 HD
ENDROOT
BRANCH   2   5
ATOM      5  C   UNL     1      48.252   6.395  14.822  0.00  0.00    +0.000 A 
ATOM      6  C   UNL     1      49.281   7.201  15.291  0.00  0.00    +0.000 A 
ATOM      7  S   UNL     1      50.029   6.599  16.700  0.00  0.00    +0.000 S 
ATOM      8  C   UNL     1      48.978   5.262  16.757  0.00  0.00    +0.000 A 
ATOM      9  N   UNL     1      49.059   4.347  17.762  0.00  0.00    +0.000 NA
ATOM     10  C   UNL     1      48.172   3.411  17.704  0.00  0.00    +0.000 A 
ATOM     11  N   UNL     1      47.221   3.294  16.725  0.00  0.00    +0.000 N 
ATOM     12  C   UNL     1      47.154   4.148  15.649  0.00  0.00    +0.000 A 
ATOM     13  O   UNL     1      46.381   3.926  14.721  0.00  0.00    +0.000 OA
ATOM     14  C   UNL     1      48.089   5.255  15.695  0.00  0.00    +0.000 A 
ATOM     15  H   UNL     1      46.578   2.517  16.716  0.00  0.00    +0.000 HD
ENDBRANCH   2   5
BRANCH   3  16
ATOM     16  C   UNL     1      45.294   7.024  12.584  0.00  0.00    +0.000 C 
BRANCH  16  17
ATOM     17  C   UNL     1      45.154   5.973  11.515  0.00  0.00    +0.000 A 
ATOM     18  C   UNL     1      45.729   6.181  10.256  0.00  0.00    +0.000 A 
ATOM     19  C   UNL     1      45.712   5.173   9.295  0.00  0.00    +0.000 A 
ATOM     20  C   UNL     1      45.134   3.929   9.573  0.00  0.00    +0.000 A 
ATOM     21  C   UNL     1      44.458   3.762  10.792  0.00  0.00    +0.000 A 
ATOM     22  C   UNL     1      44.463   4.777  11.753  0.00  0.00    +0.000 A 
BRANCH  20  23
ATOM     23  C   UNL     1      45.284   2.778   8.599  0.00  0.00    +0.000 C 
BRANCH  23  24
ATOM     24  N   UNL     1      46.638   2.477   8.103  0.00  0.00    +0.000 NA
ATOM     25  C   UNL     1      47.146   3.385   7.074  0.00  0.00    +0.000 C 
ATOM     26  C   UNL     1      46.850   2.706   5.748  0.00  0.00    +0.000 C 
ATOM     27  C   UNL     1      46.974   1.226   6.067  0.00  0.00    +0.000 C 
ATOM     28  C   UNL     1      46.834   1.121   7.583  0.00  0.00    +0.000 C 
ENDBRANCH  23  24
ENDBRANCH  20  23
ENDBRANCH  16  17
ENDBRANCH   3  16
TORSDOF 5
ENDMDL
MODEL 6
REMARK VINA RESULT:    -7.161      4.017      9.147
REMARK INTER + INTRA:          -9.564
REMARK INTER:                  -8.962
REMARK INTRA:                  -0.602
REMARK UNBOUND:                -0.309
REMARK  Name = 
REMARK  5 active torsions:
REMARK  status: ('A' for Active; 'I' for Inactive)
REMARK    1  A    between atoms: C_2  and  C_17
REMARK    2  A    between atoms: N_3  and  C_4
REMARK    3  A    between atoms: C_4  and  C_5
REMARK    4  A    between atoms: C_8  and  C_9
REMARK    5  A    between atoms: C_9  and  N_10
REMARK                            x       y       z     vdW  Elec       q    Type
REMARK                         _______ _______ _______ _____ _____    ______ ____
ROOT
ATOM      1  O   UNL     1      47.195   3.196  13.863  0.00  0.00    +0.000 OA
ATOM      2  C   UNL     1      46.744   4.231  14.348  0.00  0.00    +0.000 C 
ATOM      3  N   UNL     1      46.802   4.505  15.688  0.00  0.00    +0.000 N 
ATOM      4  H   UNL     1      46.275   5.285  16.059  0.00  0.00    +0.000 HD
ENDROOT
BRANCH   2   5
ATOM      5  C   UNL     1      46.140   5.270  13.505  0.00  0.00    +0.000 A 
ATOM      6  C   UNL     1      46.847   6.435  13.236  0.00  0.00    +0.000 A 
ATOM      7  S   UNL     1      45.995   7.535  12.250  0.00  0.00    +0.000 S 
ATOM      8  C   UNL     1      44.670   6.477  12.114  0.00  0.00    +0.000 A 
ATOM      9  N   UNL     1      43.584   6.804  11.360  0.00  0.00    +0.000 NA
ATOM     10  C   UNL     1      42.674   5.891  11.310  0.00  0.00    +0.000 A 
ATOM     11  N   UNL     1      42.739   4.686  11.959  0.00  0.00    +0.000 N 
ATOM     12  C   UNL     1      43.778   4.347  12.795  0.00  0.00    +0.000 A 
ATOM     13  O   UNL     1      43.730   3.321  13.469  0.00  0.00    +0.000 OA
ATOM     14  C   UNL     1      44.858   5.312  12.840  0.00  0.00    +0.000 A 
ATOM     15  H   UNL     1      41.976   4.028  11.909  0.00  0.00    +0.000 HD
ENDBRANCH   2   5
BRANCH   3  16
ATOM     16  C   UNL     1      47.255   3.545  16.657  0.00  0.00    +0.000 C 
BRANCH  16  17
ATOM     17  C   UNL     1      48.680   3.804  17.067  0.00  0.00    +0.000 A 
ATOM     18  C   UNL     1      49.530   2.727  17.344  0.00  0.00    +0.000 A 
ATOM     19  C   UNL     1      50.881   2.941  17.609  0.00  0.00    +0.000 A 
ATOM     20  C   UNL     1      51.418   4.234  17.588  0.00  0.00    +0.000 A 
ATOM     21  C   UNL     1      50.543   5.319  17.423  0.00  0.00    +0.000 A 
ATOM     22  C   UNL     1      49.185   5.107  17.170  0.00  0.00    +0.000 A 
BRANCH  20  23
ATOM     23  C   UNL     1      52.915   4.445  17.688  0.00  0.00    +0.000 C 
BRANCH  23  24
ATOM     24  N   UNL     1      53.467   4.803  19.006  0.00  0.00    +0.000 NA
ATOM     25  C   UNL     1      53.091   3.915  20.107  0.00  0.00    +0.000 C 
ATOM     26  C   UNL     1      51.900   4.576  20.776  0.00  0.00    +0.000 C 
ATOM     27  C   UNL     1      52.169   6.061  20.605  0.00  0.00    +0.000 C 
ATOM     28  C   UNL     1      53.177   6.165  19.464  0.00  0.00    +0.000 C 
ENDBRANCH  23  24
ENDBRANCH  20  23
ENDBRANCH  16  17
ENDBRANCH   3  16
TORSDOF 5
ENDMDL
MODEL 7
REMARK VINA RESULT:    -7.138      2.312      2.932
REMARK INTER + INTRA:          -9.534
REMARK INTER:                  -9.517
REMARK INTRA:                  -0.017
REMARK UNBOUND:                -0.309
REMARK  Name = 
REMARK  5 active torsions:
REMARK  status: ('A' for Active; 'I' for Inactive)
REMARK    1  A    between atoms: C_2  and  C_17
REMARK    2  A    between atoms: N_3  and  C_4
REMARK    3  A    between atoms: C_4  and  C_5
REMARK    4  A    between atoms: C_8  and  C_9
REMARK    5  A    between atoms: C_9  and  N_10
REMARK                            x       y       z     vdW  Elec       q    Type
REMARK                         _______ _______ _______ _____ _____    ______ ____
ROOT
ATOM      1  O   UNL     1      46.133   5.092  13.446  0.00  0.00    +0.000 OA
ATOM      2  C   UNL     1      45.731   6.223  13.185  0.00  0.00    +0.000 C 
ATOM      3  N   UNL     1      44.409   6.504  12.960  0.00  0.00    +0.000 N 
ATOM      4  H   UNL     1      44.150   7.409  12.588  0.00  0.00    +0.000 HD
ENDROOT
BRANCH   2   5
ATOM      5  C   UNL     1      46.649   7.367  13.132  0.00  0.00    +0.000 A 
ATOM      6  C   UNL     1      46.359   8.445  12.305  0.00  0.00    +0.000 A 
ATOM      7  S   UNL     1      47.533   9.680  12.360  0.00  0.00    +0.000 S 
ATOM      8  C   UNL     1      48.450   8.837  13.519  0.00  0.00    +0.000 A 
ATOM      9  N   UNL     1      49.593   9.369  14.033  0.00  0.00    +0.000 NA
ATOM     10  C   UNL     1      50.162   8.642  14.935  0.00  0.00    +0.000 A 
ATOM     11  N   UNL     1      49.703   7.424  15.361  0.00  0.00    +0.000 N 
ATOM     12  C   UNL     1      48.599   6.813  14.813  0.00  0.00    +0.000 A 
ATOM     13  O   UNL     1      48.304   5.660  15.121  0.00  0.00    +0.000 OA
ATOM     14  C   UNL     1      47.886   7.612  13.837  0.00  0.00    +0.000 A 
ATOM     15  H   UNL     1      50.214   6.887  16.045  0.00  0.00    +0.000 HD
ENDBRANCH   2   5
BRANCH   3  16
ATOM     16  C   UNL     1      43.405   5.481  12.861  0.00  0.00    +0.000 C 
BRANCH  16  17
ATOM     17  C   UNL     1      43.662   4.567  11.693  0.00  0.00    +0.000 A 
ATOM     18  C   UNL     1      43.858   5.108  10.417  0.00  0.00    +0.000 A 
ATOM     19  C   UNL     1      44.213   4.288   9.348  0.00  0.00    +0.000 A 
ATOM     20  C   UNL     1      44.396   2.912   9.531  0.00  0.00    +0.000 A 
ATOM     21  C   UNL     1      44.088   2.357  10.782  0.00  0.00    +0.000 A 
ATOM     22  C   UNL     1      43.719   3.176  11.854  0.00  0.00    +0.000 A 
BRANCH  20  23
ATOM     23  C   UNL     1      44.964   2.059   8.416  0.00  0.00    +0.000 C 
BRANCH  23  24
ATOM     24  N   UNL     1      46.391   2.225   8.089  0.00  0.00    +0.000 NA
ATOM     25  C   UNL     1      46.722   3.410   7.298  0.00  0.00    +0.000 C 
ATOM     26  C   UNL     1      46.770   2.937   5.856  0.00  0.00    +0.000 C 
ATOM     27  C   UNL     1      47.278   1.510   5.962  0.00  0.00    +0.000 C 
ATOM     28  C   UNL     1      47.019   1.090   7.406  0.00  0.00    +0.000 C 
ENDBRANCH  23  24
ENDBRANCH  20  23
ENDBRANCH  16  17
ENDBRANCH   3  16
TORSDOF 5
ENDMDL
MODEL 8
REMARK VINA RESULT:    -7.125      3.256      4.442
REMARK INTER + INTRA:          -9.517
REMARK INTER:                  -8.507
REMARK INTRA:                  -1.010
REMARK UNBOUND:                -0.309
REMARK  Name = 
REMARK  5 active torsions:
REMARK  status: ('A' for Active; 'I' for Inactive)
REMARK    1  A    between atoms: C_2  and  C_17
REMARK    2  A    between atoms: N_3  and  C_4
REMARK    3  A    between atoms: C_4  and  C_5
REMARK    4  A    between atoms: C_8  and  C_9
REMARK    5  A    between atoms: C_9  and  N_10
REMARK                            x       y       z     vdW  Elec       q    Type
REMARK                         _______ _______ _______ _____ _____    ______ ____
ROOT
ATOM      1  O   UNL     1      49.962   7.144  14.249  0.00  0.00    +0.000 OA
ATOM      2  C   UNL     1      49.058   7.003  15.069  0.00  0.00    +0.000 C 
ATOM      3  N   UNL     1      47.808   7.533  14.890  0.00  0.00    +0.000 N 
ATOM      4  H   UNL     1      47.153   7.533  15.662  0.00  0.00    +0.000 HD
ENDROOT
BRANCH   2   5
ATOM      5  C   UNL     1      49.254   6.216  16.293  0.00  0.00    +0.000 A 
ATOM      6  C   UNL     1      50.220   6.602  17.212  0.00  0.00    +0.000 A 
ATOM      7  S   UNL     1      50.318   5.573  18.569  0.00  0.00    +0.000 S 
ATOM      8  C   UNL     1      49.046   4.600  17.996  0.00  0.00    +0.000 A 
ATOM      9  N   UNL     1      48.595   3.536  18.717  0.00  0.00    +0.000 NA
ATOM     10  C   UNL     1      47.597   2.915  18.184  0.00  0.00    +0.000 A 
ATOM     11  N   UNL     1      47.017   3.247  16.988  0.00  0.00    +0.000 N 
ATOM     12  C   UNL     1      47.490   4.262  16.190  0.00  0.00    +0.000 A 
ATOM     13  O   UNL     1      47.035   4.436  15.062  0.00  0.00    +0.000 OA
ATOM     14  C   UNL     1      48.573   5.033  16.767  0.00  0.00    +0.000 A 
ATOM     15  H   UNL     1      46.261   2.698  16.608  0.00  0.00    +0.000 HD
ENDBRANCH   2   5
BRANCH   3  16
ATOM     16  C   UNL     1      47.491   8.423  13.807  0.00  0.00    +0.000 C 
BRANCH  16  17
ATOM     17  C   UNL     1      46.627   7.749  12.774  0.00  0.00    +0.000 A 
ATOM     18  C   UNL     1      47.022   6.520  12.233  0.00  0.00    +0.000 A 
ATOM     19  C   UNL     1      46.180   5.826  11.366  0.00  0.00    +0.000 A 
ATOM     20  C   UNL     1      44.920   6.336  11.032  0.00  0.00    +0.000 A 
ATOM     21  C   UNL     1      44.575   7.619  11.483  0.00  0.00    +0.000 A 
ATOM     22  C   UNL     1      45.424   8.323  12.343  0.00  0.00    +0.000 A 
BRANCH  20  23
ATOM     23  C   UNL     1      43.936   5.494  10.245  0.00  0.00    +0.000 C 
BRANCH  23  24
ATOM     24  N   UNL     1      43.002   4.646  11.007  0.00  0.00    +0.000 NA
ATOM     25  C   UNL     1      42.620   5.158  12.323  0.00  0.00    +0.000 C 
ATOM     26  C   UNL     1      43.550   4.476  13.311  0.00  0.00    +0.000 C 
ATOM     27  C   UNL     1      43.796   3.112  12.692  0.00  0.00    +0.000 C 
ATOM     28  C   UNL     1      43.433   3.261  11.217  0.00  0.00    +0.000 C 
ENDBRANCH  23  24
ENDBRANCH  20  23
ENDBRANCH  16  17
ENDBRANCH   3  16
TORSDOF 5
ENDMDL
MODEL 9
REMARK VINA RESULT:    -6.859      4.009      9.424
REMARK INTER + INTRA:          -9.173
REMARK INTER:                  -8.415
REMARK INTRA:                  -0.758
REMARK UNBOUND:                -0.309
REMARK  Name = 
REMARK  5 active torsions:
REMARK  status: ('A' for Active; 'I' for Inactive)
REMARK    1  A    between atoms: C_2  and  C_17
REMARK    2  A    between atoms: N_3  and  C_4
REMARK    3  A    between atoms: C_4  and  C_5
REMARK    4  A    between atoms: C_8  and  C_9
REMARK    5  A    between atoms: C_9  and  N_10
REMARK                            x       y       z     vdW  Elec       q    Type
REMARK                         _______ _______ _______ _____ _____    ______ ____
ROOT
ATOM      1  O   UNL     1      47.199   3.266  13.755  0.00  0.00    +0.000 OA
ATOM      2  C   UNL     1      46.807   4.314  14.261  0.00  0.00    +0.000 C 
ATOM      3  N   UNL     1      46.988   4.607  15.587  0.00  0.00    +0.000 N 
ATOM      4  H   UNL     1      46.506   5.400  15.991  0.00  0.00    +0.000 HD
ENDROOT
BRANCH   2   5
ATOM      5  C   UNL     1      46.143   5.349  13.459  0.00  0.00    +0.000 A 
ATOM      6  C   UNL     1      46.778   6.565  13.243  0.00  0.00    +0.000 A 
ATOM      7  S   UNL     1      45.864   7.652  12.299  0.00  0.00    +0.000 S 
ATOM      8  C   UNL     1      44.606   6.522  12.112  0.00  0.00    +0.000 A 
ATOM      9  N   UNL     1      43.505   6.814  11.365  0.00  0.00    +0.000 NA
ATOM     10  C   UNL     1      42.653   5.849  11.272  0.00  0.00    +0.000 A 
ATOM     11  N   UNL     1      42.789   4.624  11.870  0.00  0.00    +0.000 N 
ATOM     12  C   UNL     1      43.844   4.315  12.697  0.00  0.00    +0.000 A 
ATOM     13  O   UNL     1      43.857   3.260  13.327  0.00  0.00    +0.000 OA
ATOM     14  C   UNL     1      44.863   5.341  12.789  0.00  0.00    +0.000 A 
ATOM     15  H   UNL     1      42.068   3.923  11.788  0.00  0.00    +0.000 HD
ENDBRANCH   2   5
BRANCH   3  16
ATOM     16  C   UNL     1      47.513   3.655  16.527  0.00  0.00    +0.000 C 
BRANCH  16  17
ATOM     17  C   UNL     1      47.967   4.325  17.796  0.00  0.00    +0.000 A 
ATOM     18  C   UNL     1      49.256   4.084  18.287  0.00  0.00    +0.000 A 
ATOM     19  C   UNL     1      49.734   4.785  19.392  0.00  0.00    +0.000 A 
ATOM     20  C   UNL     1      48.943   5.752  20.024  0.00  0.00    +0.000 A 
ATOM     21  C   UNL     1      47.614   5.908  19.603  0.00  0.00    +0.000 A 
ATOM     22  C   UNL     1      47.128   5.198  18.501  0.00  0.00    +0.000 A 
BRANCH  20  23
ATOM     23  C   UNL     1      49.532   6.640  21.100  0.00  0.00    +0.000 C 
BRANCH  23  24
ATOM     24  N   UNL     1      50.132   7.918  20.678  0.00  0.00    +0.000 NA
ATOM     25  C   UNL     1      49.314   9.107  20.921  0.00  0.00    +0.000 C 
ATOM     26  C   UNL     1      48.588   9.377  19.615  0.00  0.00    +0.000 C 
ATOM     27  C   UNL     1      49.574   8.919  18.554  0.00  0.00    +0.000 C 
ATOM     28  C   UNL     1      50.546   7.988  19.274  0.00  0.00    +0.000 C 
ENDBRANCH  23  24
ENDBRANCH  20  23
ENDBRANCH  16  17
ENDBRANCH   3  16
TORSDOF 5
ENDMDL
