MODEL 1
REMARK VINA RESULT:    -9.006      0.000      0.000
REMARK INTER + INTRA:         -13.626
REMARK INTER:                 -12.691
REMARK INTRA:                  -0.936
REMARK UNBOUND:                -0.936
REMARK  Name = 
REMARK  9 active torsions:
REMARK  status: ('A' for Active; 'I' for Inactive)
REMARK    1  A    between atoms: C_1  and  C_2
REMARK    2  A    between atoms: C_2  and  C_3
REMARK    3  A    between atoms: C_5  and  N_6
REMARK    4  A    between atoms: N_6  and  C_7
REMARK    5  A    between atoms: C_11  and  C_12
REMARK    6  A    between atoms: C_12  and  C_13
REMARK    7  A    between atoms: C_13  and  N_14
REMARK    8  A    between atoms: N_14  and  C_15
REMARK    9  A    between atoms: C_18  and  C_19
REMARK                            x       y       z     vdW  Elec       q    Type
REMARK                         _______ _______ _______ _____ _____    ______ ____
ROOT
ATOM      1  C   UNL     1      43.406   5.367  12.094  0.00  0.00    +0.000 C 
ENDROOT
BRANCH   1   6
ATOM      2  C   UNL     1      46.655   4.780  14.038  0.00  0.00    +0.000 A 
ATOM      3  C   UNL     1      47.497   5.733  13.461  0.00  0.00    +0.000 A 
ATOM      4  C   UNL     1      47.017   6.616  12.499  0.00  0.00    +0.000 A 
ATOM      5  C   UNL     1      45.694   6.525  12.074  0.00  0.00    +0.000 A 
ATOM      6  C   UNL     1      44.827   5.556  12.600  0.00  0.00    +0.000 A 
ATOM      7  C   UNL     1      45.321   4.703  13.604  0.00  0.00    +0.000 A 
BRANCH   2   8
ATOM      8  N   UNL     1      47.134   3.824  14.957  0.00  0.00    +0.000 N 
ATOM      9  H   UNL     1      46.856   2.878  14.710  0.00  0.00    +0.000 HD
BRANCH   8  14
ATOM     10  C   UNL     1      48.528   4.308  19.130  0.00  0.00    +0.000 C 
ATOM     11  C   UNL     1      48.985   3.825  17.753  0.00  0.00    +0.000 C 
ATOM     12  C   UNL     1      50.434   3.347  17.777  0.00  0.00    +0.000 C 
ATOM     13  C   UNL     1      48.676   4.825  16.605  0.00  0.00    +0.000 C 
ATOM     14  C   UNL     1      47.353   4.055  16.352  0.00  0.00    +0.000 C 
ATOM     15  C   UNL     1      48.002   2.839  17.051  0.00  0.00    +0.000 C 
ENDBRANCH   8  14
ENDBRANCH   2   8
ENDBRANCH   1   6
BRANCH   1  16
ATOM     16  C   UNL     1      43.316   4.871  10.645  0.00  0.00    +0.000 C 
BRANCH  16  17
ATOM     17  N   UNL     1      43.727   3.472  10.494  0.00  0.00    +0.000 N 
ATOM     18  H   UNL     1      42.957   2.811  10.560  0.00  0.00    +0.000 HD
BRANCH  17  19
ATOM     19  C   UNL     1      44.605   3.201   9.429  0.00  0.00    +0.000 A 
ATOM     20  C   UNL     1      45.223   4.220   8.686  0.00  0.00    +0.000 A 
ATOM     21  C   UNL     1      46.167   3.938   7.692  0.00  0.00    +0.000 A 
ATOM     22  C   UNL     1      46.531   2.619   7.424  0.00  0.00    +0.000 A 
ATOM     23  C   UNL     1      45.930   1.600   8.162  0.00  0.00    +0.000 A 
ATOM     24  F   UNL     1      46.241   0.311   7.942  0.00  0.00    +0.000 F 
ATOM     25  C   UNL     1      44.989   1.884   9.158  0.00  0.00    +0.000 A 
BRANCH  22  26
ATOM     26  C   UNL     1      47.557   2.379   6.370  0.00  0.00    +0.000 C 
ATOM     27  N   UNL     1      47.392   2.983   5.162  0.00  0.00    +0.000 N 
ATOM     28  O   UNL     1      48.529   1.668   6.582  0.00  0.00    +0.000 OA
ATOM     29  H   UNL     1      46.599   3.575   4.937  0.00  0.00    +0.000 HD
ATOM     30  H   UNL     1      48.088   2.812   4.449  0.00  0.00    +0.000 HD
ENDBRANCH  22  26
ENDBRANCH  17  19
ENDBRANCH  16  17
ENDBRANCH   1  16
TORSDOF 7
ENDMDL
MODEL 2
REMARK VINA RESULT:    -8.892      1.271      1.565
REMARK INTER + INTRA:         -13.466
REMARK INTER:                 -12.802
REMARK INTRA:                  -0.664
REMARK UNBOUND:                -0.936
REMARK  Name = 
REMARK  9 active torsions:
REMARK  status: ('A' for Active; 'I' for Inactive)
REMARK    1  A    between atoms: C_1  and  C_2
REMARK    2  A    between atoms: C_2  and  C_3
REMARK    3  A    between atoms: C_5  and  N_6
REMARK    4  A    between atoms: N_6  and  C_7
REMARK    5  A    between atoms: C_11  and  C_12
REMARK    6  A    between atoms: C_12  and  C_13
REMARK    7  A    between atoms: C_13  and  N_14
REMARK    8  A    between atoms: N_14  and  C_15
REMARK    9  A    between atoms: C_18  and  C_19
REMARK                            x       y       z     vdW  Elec       q    Type
REMARK                         _______ _______ _______ _____ _____    ______ ____
ROOT
ATOM      1  C   UNL     1      43.214   5.511  12.314  0.00  0.00    +0.000 C 
ENDROOT
BRANCH   1   6
ATOM      2  C   UNL     1      46.588   4.851  14.006  0.00  0.00    +0.000 A 
ATOM      3  C   UNL     1      47.362   5.892  13.490  0.00  0.00    +0.000 A 
ATOM      4  C   UNL     1      46.798   6.853  12.656  0.00  0.00    +0.000 A 
ATOM      5  C   UNL     1      45.457   6.755  12.296  0.00  0.00    +0.000 A 
ATOM      6  C   UNL     1      44.655   5.702  12.760  0.00  0.00    +0.000 A 
ATOM      7  C   UNL     1      45.234   4.767  13.638  0.00  0.00    +0.000 A 
BRANCH   2   8
ATOM      8  N   UNL     1      47.151   3.824  14.790  0.00  0.00    +0.000 N 
ATOM      9  H   UNL     1      46.958   2.900  14.412  0.00  0.00    +0.000 HD
BRANCH   8  14
ATOM     10  C   UNL     1      48.517   3.959  18.997  0.00  0.00    +0.000 C 
ATOM     11  C   UNL     1      49.033   3.817  17.565  0.00  0.00    +0.000 C 
ATOM     12  C   UNL     1      50.552   3.692  17.525  0.00  0.00    +0.000 C 
ATOM     13  C   UNL     1      48.468   4.885  16.588  0.00  0.00    +0.000 C 
ATOM     14  C   UNL     1      47.352   3.878  16.205  0.00  0.00    +0.000 C 
ATOM     15  C   UNL     1      48.284   2.752  16.707  0.00  0.00    +0.000 C 
ENDBRANCH   8  14
ENDBRANCH   2   8
ENDBRANCH   1   6
BRANCH   1  16
ATOM     16  C   UNL     1      43.039   4.493  11.178  0.00  0.00    +0.000 C 
BRANCH  16  17
ATOM     17  N   UNL     1      43.703   4.901   9.938  0.00  0.00    +0.000 N 
ATOM     18  H   UNL     1      44.094   5.840   9.973  0.00  0.00    +0.000 HD
BRANCH  17  19
ATOM     19  C   UNL     1      44.573   3.955   9.367  0.00  0.00    +0.000 A 
ATOM     20  C   UNL     1      44.469   2.580   9.634  0.00  0.00    +0.000 A 
ATOM     21  C   UNL     1      45.278   1.640   8.986  0.00  0.00    +0.000 A 
ATOM     22  C   UNL     1      46.212   2.054   8.036  0.00  0.00    +0.000 A 
ATOM     23  C   UNL     1      46.317   3.416   7.757  0.00  0.00    +0.000 A 
ATOM     24  F   UNL     1      47.203   3.870   6.853  0.00  0.00    +0.000 F 
ATOM     25  C   UNL     1      45.504   4.354   8.402  0.00  0.00    +0.000 A 
BRANCH  22  26
ATOM     26  C   UNL     1      47.032   1.008   7.363  0.00  0.00    +0.000 C 
ATOM     27  N   UNL     1      46.771  -0.297   7.645  0.00  0.00    +0.000 N 
ATOM     28  O   UNL     1      47.911   1.307   6.567  0.00  0.00    +0.000 OA
ATOM     29  H   UNL     1      46.057  -0.593   8.303  0.00  0.00    +0.000 HD
ATOM     30  H   UNL     1      47.334  -1.001   7.190  0.00  0.00    +0.000 HD
ENDBRANCH  22  26
ENDBRANCH  17  19
ENDBRANCH  16  17
ENDBRANCH   1  16
TORSDOF 7
ENDMDL
MODEL 3
REMARK VINA RESULT:    -8.334      2.559      4.208
REMARK INTER + INTRA:         -12.681
REMARK INTER:                 -11.573
REMARK INTRA:                  -1.107
REMARK UNBOUND:                -0.936
REMARK  Name = 
REMARK  9 active torsions:
REMARK  status: ('A' for Active; 'I' for Inactive)
REMARK    1  A    between atoms: C_1  and  C_2
REMARK    2  A    between atoms: C_2  and  C_3
REMARK    3  A    between atoms: C_5  and  N_6
REMARK    4  A    between atoms: N_6  and  C_7
REMARK    5  A    between atoms: C_11  and  C_12
REMARK    6  A    between atoms: C_12  and  C_13
REMARK    7  A    between atoms: C_13  and  N_14
REMARK    8  A    between atoms: N_14  and  C_15
REMARK    9  A    between atoms: C_18  and  C_19
REMARK                            x       y       z     vdW  Elec       q    Type
REMARK                         _______ _______ _______ _____ _____    ______ ____
ROOT
ATOM      1  C   UNL     1      43.283   5.242  12.356  0.00  0.00    +0.000 C 
ENDROOT
BRANCH   1   6
ATOM      2  C   UNL     1      46.819   6.113  13.547  0.00  0.00    +0.000 A 
ATOM      3  C   UNL     1      47.362   4.843  13.748  0.00  0.00    +0.000 A 
ATOM      4  C   UNL     1      46.631   3.699  13.439  0.00  0.00    +0.000 A 
ATOM      5  C   UNL     1      45.329   3.819  12.963  0.00  0.00    +0.000 A 
ATOM      6  C   UNL     1      44.733   5.075  12.785  0.00  0.00    +0.000 A 
ATOM      7  C   UNL     1      45.505   6.219  13.061  0.00  0.00    +0.000 A 
BRANCH   2   8
ATOM      8  N   UNL     1      47.508   7.284  13.923  0.00  0.00    +0.000 N 
ATOM      9  H   UNL     1      46.888   7.987  14.318  0.00  0.00    +0.000 HD
BRANCH   8  14
ATOM     10  C   UNL     1      50.681   9.389  11.667  0.00  0.00    +0.000 C 
ATOM     11  C   UNL     1      49.173   9.393  11.917  0.00  0.00    +0.000 C 
ATOM     12  C   UNL     1      48.479  10.514  11.149  0.00  0.00    +0.000 C 
ATOM     13  C   UNL     1      48.787   9.335  13.420  0.00  0.00    +0.000 C 
ATOM     14  C   UNL     1      48.685   7.793  13.288  0.00  0.00    +0.000 C 
ATOM     15  C   UNL     1      48.486   8.001  11.770  0.00  0.00    +0.000 C 
ENDBRANCH   8  14
ENDBRANCH   2   8
ENDBRANCH   1   6
BRANCH   1  16
ATOM     16  C   UNL     1      42.928   4.516  11.051  0.00  0.00    +0.000 C 
BRANCH  16  17
ATOM     17  N   UNL     1      43.733   4.963   9.911  0.00  0.00    +0.000 N 
ATOM     18  H   UNL     1      44.179   5.866  10.055  0.00  0.00    +0.000 HD
BRANCH  17  19
ATOM     19  C   UNL     1      44.590   3.999   9.350  0.00  0.00    +0.000 A 
ATOM     20  C   UNL     1      44.445   2.626   9.602  0.00  0.00    +0.000 A 
ATOM     21  C   UNL     1      45.243   1.671   8.962  0.00  0.00    +0.000 A 
ATOM     22  C   UNL     1      46.207   2.069   8.036  0.00  0.00    +0.000 A 
ATOM     23  C   UNL     1      46.354   3.430   7.772  0.00  0.00    +0.000 A 
ATOM     24  F   UNL     1      47.270   3.870   6.891  0.00  0.00    +0.000 F 
ATOM     25  C   UNL     1      45.551   4.383   8.409  0.00  0.00    +0.000 A 
BRANCH  22  26
ATOM     26  C   UNL     1      47.015   1.009   7.370  0.00  0.00    +0.000 C 
ATOM     27  N   UNL     1      46.728  -0.291   7.651  0.00  0.00    +0.000 N 
ATOM     28  O   UNL     1      47.906   1.291   6.582  0.00  0.00    +0.000 OA
ATOM     29  H   UNL     1      46.003  -0.575   8.303  0.00  0.00    +0.000 HD
ATOM     30  H   UNL     1      47.282  -1.006   7.200  0.00  0.00    +0.000 HD
ENDBRANCH  22  26
ENDBRANCH  17  19
ENDBRANCH  16  17
ENDBRANCH   1  16
TORSDOF 7
ENDMDL
MODEL 4
REMARK VINA RESULT:    -8.289      3.130      5.863
REMARK INTER + INTRA:         -12.617
REMARK INTER:                 -11.641
REMARK INTRA:                  -0.976
REMARK UNBOUND:                -0.936
REMARK  Name = 
REMARK  9 active torsions:
REMARK  status: ('A' for Active; 'I' for Inactive)
REMARK    1  A    between atoms: C_1  and  C_2
REMARK    2  A    between atoms: C_2  and  C_3
REMARK    3  A    between atoms: C_5  and  N_6
REMARK    4  A    between atoms: N_6  and  C_7
REMARK    5  A    between atoms: C_11  and  C_12
REMARK    6  A    between atoms: C_12  and  C_13
REMARK    7  A    between atoms: C_13  and  N_14
REMARK    8  A    between atoms: N_14  and  C_15
REMARK    9  A    between atoms: C_18  and  C_19
REMARK                            x       y       z     vdW  Elec       q    Type
REMARK                         _______ _______ _______ _____ _____    ______ ____
ROOT
ATOM      1  C   UNL     1      44.108   4.614  12.952  0.00  0.00    +0.000 C 
ENDROOT
BRANCH   1   6
ATOM      2  C   UNL     1      45.361   8.161  12.228  0.00  0.00    +0.000 A 
ATOM      3  C   UNL     1      46.740   7.955  12.145  0.00  0.00    +0.000 A 
ATOM      4  C   UNL     1      47.275   6.674  12.248  0.00  0.00    +0.000 A 
ATOM      5  C   UNL     1      46.433   5.590  12.479  0.00  0.00    +0.000 A 
ATOM      6  C   UNL     1      45.047   5.760  12.608  0.00  0.00    +0.000 A 
ATOM      7  C   UNL     1      44.523   7.057  12.455  0.00  0.00    +0.000 A 
BRANCH   2   8
ATOM      8  N   UNL     1      44.801   9.455  12.202  0.00  0.00    +0.000 N 
ATOM      9  H   UNL     1      44.407   9.722  13.101  0.00  0.00    +0.000 HD
BRANCH   8  14
ATOM     10  C   UNL     1      42.299  11.335   9.073  0.00  0.00    +0.000 C 
ATOM     11  C   UNL     1      42.217  10.682  10.453  0.00  0.00    +0.000 C 
ATOM     12  C   UNL     1      40.787  10.666  10.983  0.00  0.00    +0.000 C 
ATOM     13  C   UNL     1      43.254  11.234  11.469  0.00  0.00    +0.000 C 
ATOM     14  C   UNL     1      44.202  10.076  11.061  0.00  0.00    +0.000 C 
ATOM     15  C   UNL     1      42.953   9.312  10.568  0.00  0.00    +0.000 C 
ENDBRANCH   8  14
ENDBRANCH   2   8
ENDBRANCH   1   6
BRANCH   1  16
ATOM     16  C   UNL     1      44.241   3.396  12.028  0.00  0.00    +0.000 C 
BRANCH  16  17
ATOM     17  N   UNL     1      43.687   3.630  10.691  0.00  0.00    +0.000 N 
ATOM     18  H   UNL     1      43.209   4.523  10.598  0.00  0.00    +0.000 HD
BRANCH  17  19
ATOM     19  C   UNL     1      44.541   3.338   9.613  0.00  0.00    +0.000 A 
ATOM     20  C   UNL     1      45.176   4.341   8.863  0.00  0.00    +0.000 A 
ATOM     21  C   UNL     1      46.097   4.036   7.855  0.00  0.00    +0.000 A 
ATOM     22  C   UNL     1      46.420   2.707   7.578  0.00  0.00    +0.000 A 
ATOM     23  C   UNL     1      45.802   1.704   8.322  0.00  0.00    +0.000 A 
ATOM     24  F   UNL     1      46.073   0.406   8.095  0.00  0.00    +0.000 F 
ATOM     25  C   UNL     1      44.884   2.011   9.334  0.00  0.00    +0.000 A 
BRANCH  22  26
ATOM     26  C   UNL     1      47.422   2.441   6.508  0.00  0.00    +0.000 C 
ATOM     27  N   UNL     1      47.336   3.154   5.352  0.00  0.00    +0.000 N 
ATOM     28  O   UNL     1      48.309   1.614   6.662  0.00  0.00    +0.000 OA
ATOM     29  H   UNL     1      46.614   3.846   5.176  0.00  0.00    +0.000 HD
ATOM     30  H   UNL     1      48.015   2.966   4.628  0.00  0.00    +0.000 HD
ENDBRANCH  22  26
ENDBRANCH  17  19
ENDBRANCH  16  17
ENDBRANCH   1  16
TORSDOF 7
ENDMDL
MODEL 5
REMARK VINA RESULT:    -8.170      2.539      4.076
REMARK INTER + INTRA:         -12.448
REMARK INTER:                 -11.555
REMARK INTRA:                  -0.893
REMARK UNBOUND:                -0.936
REMARK  Name = 
REMARK  9 active torsions:
REMARK  status: ('A' for Active; 'I' for Inactive)
REMARK    1  A    between atoms: C_1  and  C_2
REMARK    2  A    between atoms: C_2  and  C_3
REMARK    3  A    between atoms: C_5  and  N_6
REMARK    4  A    between atoms: N_6  and  C_7
REMARK    5  A    between atoms: C_11  and  C_12
REMARK    6  A    between atoms: C_12  and  C_13
REMARK    7  A    between atoms: C_13  and  N_14
REMARK    8  A    between atoms: N_14  and  C_15
REMARK    9  A    between atoms: C_18  and  C_19
REMARK                            x       y       z     vdW  Elec       q    Type
REMARK                         _______ _______ _______ _____ _____    ______ ____
ROOT
ATOM      1  C   UNL     1      43.409   5.110  12.398  0.00  0.00    +0.000 C 
ENDROOT
BRANCH   1   6
ATOM      2  C   UNL     1      46.422   7.266  13.375  0.00  0.00    +0.000 A 
ATOM      3  C   UNL     1      47.369   6.289  13.691  0.00  0.00    +0.000 A 
ATOM      4  C   UNL     1      47.078   4.938  13.527  0.00  0.00    +0.000 A 
ATOM      5  C   UNL     1      45.817   4.550  13.083  0.00  0.00    +0.000 A 
ATOM      6  C   UNL     1      44.825   5.499  12.794  0.00  0.00    +0.000 A 
ATOM      7  C   UNL     1      45.155   6.861  12.924  0.00  0.00    +0.000 A 
BRANCH   2   8
ATOM      8  N   UNL     1      46.664   8.636  13.604  0.00  0.00    +0.000 N 
ATOM      9  H   UNL     1      45.864   9.104  14.021  0.00  0.00    +0.000 HD
BRANCH   8  14
ATOM     10  C   UNL     1      49.759  10.591  11.118  0.00  0.00    +0.000 C 
ATOM     11  C   UNL     1      49.437   9.279  11.833  0.00  0.00    +0.000 C 
ATOM     12  C   UNL     1      50.539   8.244  11.631  0.00  0.00    +0.000 C 
ATOM     13  C   UNL     1      48.011   8.739  11.538  0.00  0.00    +0.000 C 
ATOM     14  C   UNL     1      47.520   9.468  12.816  0.00  0.00    +0.000 C 
ATOM     15  C   UNL     1      48.982   9.442  13.315  0.00  0.00    +0.000 C 
ENDBRANCH   8  14
ENDBRANCH   2   8
ENDBRANCH   1   6
BRANCH   1  16
ATOM     16  C   UNL     1      43.331   4.192  11.171  0.00  0.00    +0.000 C 
BRANCH  16  17
ATOM     17  N   UNL     1      43.763   4.851   9.936  0.00  0.00    +0.000 N 
ATOM     18  H   UNL     1      44.026   5.825  10.063  0.00  0.00    +0.000 HD
BRANCH  17  19
ATOM     19  C   UNL     1      44.667   4.127   9.137  0.00  0.00    +0.000 A 
ATOM     20  C   UNL     1      45.663   4.754   8.372  0.00  0.00    +0.000 A 
ATOM     21  C   UNL     1      46.616   4.018   7.658  0.00  0.00    +0.000 A 
ATOM     22  C   UNL     1      46.604   2.624   7.703  0.00  0.00    +0.000 A 
ATOM     23  C   UNL     1      45.624   1.992   8.467  0.00  0.00    +0.000 A 
ATOM     24  F   UNL     1      45.564   0.651   8.543  0.00  0.00    +0.000 F 
ATOM     25  C   UNL     1      44.675   2.729   9.185  0.00  0.00    +0.000 A 
BRANCH  22  26
ATOM     26  C   UNL     1      47.654   1.893   6.940  0.00  0.00    +0.000 C 
ATOM     27  N   UNL     1      48.541   2.619   6.207  0.00  0.00    +0.000 N 
ATOM     28  O   UNL     1      47.730   0.673   6.977  0.00  0.00    +0.000 OA
ATOM     29  H   UNL     1      48.514   3.631   6.141  0.00  0.00    +0.000 HD
ATOM     30  H   UNL     1      49.248   2.117   5.688  0.00  0.00    +0.000 HD
ENDBRANCH  22  26
ENDBRANCH  17  19
ENDBRANCH  16  17
ENDBRANCH   1  16
TORSDOF 7
ENDMDL
MODEL 6
REMARK VINA RESULT:    -8.029      2.728      4.017
REMARK INTER + INTRA:         -12.251
REMARK INTER:                 -11.509
REMARK INTRA:                  -0.742
REMARK UNBOUND:                -0.936
REMARK  Name = 
REMARK  9 active torsions:
REMARK  status: ('A' for Active; 'I' for Inactive)
REMARK    1  A    between atoms: C_1  and  C_2
REMARK    2  A    between atoms: C_2  and  C_3
REMARK    3  A    between atoms: C_5  and  N_6
REMARK    4  A    between atoms: N_6  and  C_7
REMARK    5  A    between atoms: C_11  and  C_12
REMARK    6  A    between atoms: C_12  and  C_13
REMARK    7  A    between atoms: C_13  and  N_14
REMARK    8  A    between atoms: N_14  and  C_15
REMARK    9  A    between atoms: C_18  and  C_19
REMARK                            x       y       z     vdW  Elec       q    Type
REMARK                         _______ _______ _______ _____ _____    ______ ____
ROOT
ATOM      1  C   UNL     1      45.420   3.607  12.420  0.00  0.00    +0.000 C 
ENDROOT
BRANCH   1   6
ATOM      2  C   UNL     1      47.165   6.925  13.209  0.00  0.00    +0.000 A 
ATOM      3  C   UNL     1      46.145   7.842  12.945  0.00  0.00    +0.000 A 
ATOM      4  C   UNL     1      44.874   7.407  12.583  0.00  0.00    +0.000 A 
ATOM      5  C   UNL     1      44.623   6.045  12.440  0.00  0.00    +0.000 A 
ATOM      6  C   UNL     1      45.631   5.094  12.657  0.00  0.00    +0.000 A 
ATOM      7  C   UNL     1      46.897   5.553  13.066  0.00  0.00    +0.000 A 
BRANCH   2   8
ATOM      8  N   UNL     1      48.480   7.341  13.503  0.00  0.00    +0.000 N 
ATOM      9  H   UNL     1      48.703   7.245  14.490  0.00  0.00    +0.000 HD
BRANCH   8  14
ATOM     10  C   UNL     1      51.070   9.919  11.007  0.00  0.00    +0.000 C 
ATOM     11  C   UNL     1      50.802   8.455  11.356  0.00  0.00    +0.000 C 
ATOM     12  C   UNL     1      51.719   7.515  10.580  0.00  0.00    +0.000 C 
ATOM     13  C   UNL     1      49.301   8.060  11.289  0.00  0.00    +0.000 C 
ATOM     14  C   UNL     1      49.201   8.362  12.807  0.00  0.00    +0.000 C 
ATOM     15  C   UNL     1      50.730   8.155  12.885  0.00  0.00    +0.000 C 
ENDBRANCH   8  14
ENDBRANCH   2   8
ENDBRANCH   1   6
BRANCH   1  16
ATOM     16  C   UNL     1      44.010   3.243  11.935  0.00  0.00    +0.000 C 
BRANCH  16  17
ATOM     17  N   UNL     1      43.697   3.804  10.618  0.00  0.00    +0.000 N 
ATOM     18  H   UNL     1      43.485   4.798  10.638  0.00  0.00    +0.000 HD
BRANCH  17  19
ATOM     19  C   UNL     1      44.564   3.437   9.572  0.00  0.00    +0.000 A 
ATOM     20  C   UNL     1      45.265   4.385   8.809  0.00  0.00    +0.000 A 
ATOM     21  C   UNL     1      46.195   4.004   7.836  0.00  0.00    +0.000 A 
ATOM     22  C   UNL     1      46.461   2.654   7.609  0.00  0.00    +0.000 A 
ATOM     23  C   UNL     1      45.777   1.705   8.367  0.00  0.00    +0.000 A 
ATOM     24  F   UNL     1      45.991   0.390   8.187  0.00  0.00    +0.000 F 
ATOM     25  C   UNL     1      44.849   2.087   9.343  0.00  0.00    +0.000 A 
BRANCH  22  26
ATOM     26  C   UNL     1      47.476   2.307   6.575  0.00  0.00    +0.000 C 
ATOM     27  N   UNL     1      47.432   2.961   5.383  0.00  0.00    +0.000 N 
ATOM     28  O   UNL     1      48.337   1.465   6.790  0.00  0.00    +0.000 OA
ATOM     29  H   UNL     1      46.733   3.662   5.157  0.00  0.00    +0.000 HD
ATOM     30  H   UNL     1      48.120   2.718   4.684  0.00  0.00    +0.000 HD
ENDBRANCH  22  26
ENDBRANCH  17  19
ENDBRANCH  16  17
ENDBRANCH   1  16
TORSDOF 7
ENDMDL
MODEL 7
REMARK VINA RESULT:    -7.844      1.679      2.111
REMARK INTER + INTRA:         -11.989
REMARK INTER:                 -11.244
REMARK INTRA:                  -0.746
REMARK UNBOUND:                -0.936
REMARK  Name = 
REMARK  9 active torsions:
REMARK  status: ('A' for Active; 'I' for Inactive)
REMARK    1  A    between atoms: C_1  and  C_2
REMARK    2  A    between atoms: C_2  and  C_3
REMARK    3  A    between atoms: C_5  and  N_6
REMARK    4  A    between atoms: N_6  and  C_7
REMARK    5  A    between atoms: C_11  and  C_12
REMARK    6  A    between atoms: C_12  and  C_13
REMARK    7  A    between atoms: C_13  and  N_14
REMARK    8  A    between atoms: N_14  and  C_15
REMARK    9  A    between atoms: C_18  and  C_19
REMARK                            x       y       z     vdW  Elec       q    Type
REMARK                         _______ _______ _______ _____ _____    ______ ____
ROOT
ATOM      1  C   UNL     1      45.568   3.895  12.134  0.00  0.00    +0.000 C 
ENDROOT
BRANCH   1   6
ATOM      2  C   UNL     1      47.541   6.887  13.488  0.00  0.00    +0.000 A 
ATOM      3  C   UNL     1      46.643   7.933  13.263  0.00  0.00    +0.000 A 
ATOM      4  C   UNL     1      45.376   7.683  12.745  0.00  0.00    +0.000 A 
ATOM      5  C   UNL     1      45.010   6.384  12.406  0.00  0.00    +0.000 A 
ATOM      6  C   UNL     1      45.897   5.311  12.579  0.00  0.00    +0.000 A 
ATOM      7  C   UNL     1      47.157   5.579  13.147  0.00  0.00    +0.000 A 
BRANCH   2   8
ATOM      8  N   UNL     1      48.856   7.120  13.940  0.00  0.00    +0.000 N 
ATOM      9  H   UNL     1      49.542   6.570  13.431  0.00  0.00    +0.000 HD
BRANCH   8  14
ATOM     10  C   UNL     1      50.300   7.510  18.105  0.00  0.00    +0.000 C 
ATOM     11  C   UNL     1      50.211   6.516  16.947  0.00  0.00    +0.000 C 
ATOM     12  C   UNL     1      50.847   5.177  17.305  0.00  0.00    +0.000 C 
ATOM     13  C   UNL     1      50.693   7.094  15.588  0.00  0.00    +0.000 C 
ATOM     14  C   UNL     1      49.221   7.472  15.278  0.00  0.00    +0.000 C 
ATOM     15  C   UNL     1      48.796   6.396  16.302  0.00  0.00    +0.000 C 
ENDBRANCH   8  14
ENDBRANCH   2   8
ENDBRANCH   1   6
BRANCH   1  16
ATOM     16  C   UNL     1      44.069   3.631  11.939  0.00  0.00    +0.000 C 
BRANCH  16  17
ATOM     17  N   UNL     1      43.616   3.890  10.569  0.00  0.00    +0.000 N 
ATOM     18  H   UNL     1      43.229   4.820  10.436  0.00  0.00    +0.000 HD
BRANCH  17  19
ATOM     19  C   UNL     1      44.501   3.501   9.547  0.00  0.00    +0.000 A 
ATOM     20  C   UNL     1      45.224   4.431   8.783  0.00  0.00    +0.000 A 
ATOM     21  C   UNL     1      46.171   4.029   7.835  0.00  0.00    +0.000 A 
ATOM     22  C   UNL     1      46.432   2.673   7.635  0.00  0.00    +0.000 A 
ATOM     23  C   UNL     1      45.726   1.741   8.394  0.00  0.00    +0.000 A 
ATOM     24  F   UNL     1      45.935   0.422   8.240  0.00  0.00    +0.000 F 
ATOM     25  C   UNL     1      44.782   2.145   9.346  0.00  0.00    +0.000 A 
BRANCH  22  26
ATOM     26  C   UNL     1      47.465   2.303   6.628  0.00  0.00    +0.000 C 
ATOM     27  N   UNL     1      47.472   2.964   5.439  0.00  0.00    +0.000 N 
ATOM     28  O   UNL     1      48.295   1.436   6.860  0.00  0.00    +0.000 OA
ATOM     29  H   UNL     1      46.799   3.685   5.197  0.00  0.00    +0.000 HD
ATOM     30  H   UNL     1      48.172   2.705   4.757  0.00  0.00    +0.000 HD
ENDBRANCH  22  26
ENDBRANCH  17  19
ENDBRANCH  16  17
ENDBRANCH   1  16
TORSDOF 7
ENDMDL
MODEL 8
REMARK VINA RESULT:    -7.530      2.401      3.025
REMARK INTER + INTRA:         -11.546
REMARK INTER:                 -10.556
REMARK INTRA:                  -0.991
REMARK UNBOUND:                -0.936
REMARK  Name = 
REMARK  9 active torsions:
REMARK  status: ('A' for Active; 'I' for Inactive)
REMARK    1  A    between atoms: C_1  and  C_2
REMARK    2  A    between atoms: C_2  and  C_3
REMARK    3  A    between atoms: C_5  and  N_6
REMARK    4  A    between atoms: N_6  and  C_7
REMARK    5  A    between atoms: C_11  and  C_12
REMARK    6  A    between atoms: C_12  and  C_13
REMARK    7  A    between atoms: C_13  and  N_14
REMARK    8  A    between atoms: N_14  and  C_15
REMARK    9  A    between atoms: C_18  and  C_19
REMARK                            x       y       z     vdW  Elec       q    Type
REMARK                         _______ _______ _______ _____ _____    ______ ____
ROOT
ATOM      1  C   UNL     1      45.301   4.419  12.129  0.00  0.00    +0.000 C 
ENDROOT
BRANCH   1   6
ATOM      2  C   UNL     1      47.862   7.214  12.683  0.00  0.00    +0.000 A 
ATOM      3  C   UNL     1      47.088   8.350  12.435  0.00  0.00    +0.000 A 
ATOM      4  C   UNL     1      45.729   8.237  12.159  0.00  0.00    +0.000 A 
ATOM      5  C   UNL     1      45.139   6.979  12.088  0.00  0.00    +0.000 A 
ATOM      6  C   UNL     1      45.890   5.812  12.291  0.00  0.00    +0.000 A 
ATOM      7  C   UNL     1      47.253   5.950  12.613  0.00  0.00    +0.000 A 
BRANCH   2   8
ATOM      8  N   UNL     1      49.255   7.294  12.890  0.00  0.00    +0.000 N 
ATOM      9  H   UNL     1      49.774   6.693  12.255  0.00  0.00    +0.000 HD
BRANCH   8  14
ATOM     10  C   UNL     1      50.556   8.428  16.965  0.00  0.00    +0.000 C 
ATOM     11  C   UNL     1      49.374   8.537  16.002  0.00  0.00    +0.000 C 
ATOM     12  C   UNL     1      48.200   9.278  16.634  0.00  0.00    +0.000 C 
ATOM     13  C   UNL     1      48.979   7.188  15.340  0.00  0.00    +0.000 C 
ATOM     14  C   UNL     1      49.892   7.560  14.143  0.00  0.00    +0.000 C 
ATOM     15  C   UNL     1      49.745   9.037  14.572  0.00  0.00    +0.000 C 
ENDBRANCH   8  14
ENDBRANCH   2   8
ENDBRANCH   1   6
BRANCH   1  16
ATOM     16  C   UNL     1      43.988   4.382  11.336  0.00  0.00    +0.000 C 
BRANCH  16  17
ATOM     17  N   UNL     1      43.823   3.148  10.562  0.00  0.00    +0.000 N 
ATOM     18  H   UNL     1      42.852   2.904  10.384  0.00  0.00    +0.000 HD
BRANCH  17  19
ATOM     19  C   UNL     1      44.649   3.020   9.430  0.00  0.00    +0.000 A 
ATOM     20  C   UNL     1      45.043   4.124   8.657  0.00  0.00    +0.000 A 
ATOM     21  C   UNL     1      45.940   3.994   7.591  0.00  0.00    +0.000 A 
ATOM     22  C   UNL     1      46.482   2.748   7.278  0.00  0.00    +0.000 A 
ATOM     23  C   UNL     1      46.104   1.646   8.045  0.00  0.00    +0.000 A 
ATOM     24  F   UNL     1      46.593   0.421   7.784  0.00  0.00    +0.000 F 
ATOM     25  C   UNL     1      45.210   1.778   9.113  0.00  0.00    +0.000 A 
BRANCH  22  26
ATOM     26  C   UNL     1      47.449   2.672   6.147  0.00  0.00    +0.000 C 
ATOM     27  N   UNL     1      48.754   2.414   6.431  0.00  0.00    +0.000 N 
ATOM     28  O   UNL     1      47.084   2.825   4.990  0.00  0.00    +0.000 OA
ATOM     29  H   UNL     1      49.106   2.287   7.375  0.00  0.00    +0.000 HD
ATOM     30  H   UNL     1      49.406   2.369   5.660  0.00  0.00    +0.000 HD
ENDBRANCH  22  26
ENDBRANCH  17  19
ENDBRANCH  16  17
ENDBRANCH   1  16
TORSDOF 7
ENDMDL
MODEL 9
REMARK VINA RESULT:    -7.170      3.653      8.819
REMARK INTER + INTRA:         -11.040
REMARK INTER:                 -10.096
REMARK INTRA:                  -0.944
REMARK UNBOUND:                -0.936
REMARK  Name = 
REMARK  9 active torsions:
REMARK  status: ('A' for Active; 'I' for Inactive)
REMARK    1  A    between atoms: C_1  and  C_2
REMARK    2  A    between atoms: C_2  and  C_3
REMARK    3  A    between atoms: C_5  and  N_6
REMARK    4  A    between atoms: N_6  and  C_7
REMARK    5  A    between atoms: C_11  and  C_12
REMARK    6  A    between atoms: C_12  and  C_13
REMARK    7  A    between atoms: C_13  and  N_14
REMARK    8  A    between atoms: N_14  and  C_15
REMARK    9  A    between atoms: C_18  and  C_19
REMARK                            x       y       z     vdW  Elec       q    Type
REMARK                         _______ _______ _______ _____ _____    ______ ____
ROOT
ATOM      1  C   UNL     1      46.034   7.229  12.795  0.00  0.00    +0.000 C 
ENDROOT
BRANCH   1   6
ATOM      2  C   UNL     1      44.401   4.925  10.205  0.00  0.00    +0.000 A 
ATOM      3  C   UNL     1      43.384   4.340  10.961  0.00  0.00    +0.000 A 
ATOM      4  C   UNL     1      43.165   4.725  12.280  0.00  0.00    +0.000 A 
ATOM      5  C   UNL     1      43.994   5.676  12.869  0.00  0.00    +0.000 A 
ATOM      6  C   UNL     1      45.052   6.259  12.157  0.00  0.00    +0.000 A 
ATOM      7  C   UNL     1      45.227   5.888  10.811  0.00  0.00    +0.000 A 
BRANCH   2   8
ATOM      8  N   UNL     1      44.693   4.499   8.893  0.00  0.00    +0.000 N 
ATOM      9  H   UNL     1      43.893   4.590   8.272  0.00  0.00    +0.000 HD
BRANCH   8  14
ATOM     10  C   UNL     1      47.550   1.628   7.110  0.00  0.00    +0.000 C 
ATOM     11  C   UNL     1      46.624   2.790   6.750  0.00  0.00    +0.000 C 
ATOM     12  C   UNL     1      46.690   3.122   5.263  0.00  0.00    +0.000 C 
ATOM     13  C   UNL     1      46.787   4.029   7.674  0.00  0.00    +0.000 C 
ATOM     14  C   UNL     1      45.629   3.475   8.544  0.00  0.00    +0.000 C 
ATOM     15  C   UNL     1      45.175   2.664   7.310  0.00  0.00    +0.000 C 
ENDBRANCH   8  14
ENDBRANCH   2   8
ENDBRANCH   1   6
BRANCH   1  16
ATOM     16  C   UNL     1      47.430   6.640  13.038  0.00  0.00    +0.000 C 
BRANCH  16  17
ATOM     17  N   UNL     1      47.389   5.276  13.572  0.00  0.00    +0.000 N 
ATOM     18  H   UNL     1      47.870   4.595  12.989  0.00  0.00    +0.000 HD
BRANCH  17  19
ATOM     19  C   UNL     1      47.679   5.143  14.942  0.00  0.00    +0.000 A 
ATOM     20  C   UNL     1      48.370   6.129  15.663  0.00  0.00    +0.000 A 
ATOM     21  C   UNL     1      48.568   6.029  17.045  0.00  0.00    +0.000 A 
ATOM     22  C   UNL     1      48.062   4.936  17.749  0.00  0.00    +0.000 A 
ATOM     23  C   UNL     1      47.367   3.955  17.043  0.00  0.00    +0.000 A 
ATOM     24  F   UNL     1      46.861   2.879  17.671  0.00  0.00    +0.000 F 
ATOM     25  C   UNL     1      47.165   4.060  15.662  0.00  0.00    +0.000 A 
BRANCH  22  26
ATOM     26  C   UNL     1      48.285   4.891  19.221  0.00  0.00    +0.000 C 
ATOM     27  N   UNL     1      47.374   5.499  20.029  0.00  0.00    +0.000 N 
ATOM     28  O   UNL     1      49.251   4.315  19.699  0.00  0.00    +0.000 OA
ATOM     29  H   UNL     1      46.561   5.995  19.679  0.00  0.00    +0.000 HD
ATOM     30  H   UNL     1      47.533   5.470  21.027  0.00  0.00    +0.000 HD
ENDBRANCH  22  26
ENDBRANCH  17  19
ENDBRANCH  16  17
ENDBRANCH   1  16
TORSDOF 7
ENDMDL
