MODEL 1
REMARK VINA RESULT:    -8.091      0.000      0.000
REMARK INTER + INTRA:         -10.174
REMARK INTER:                  -9.746
REMARK INTRA:                  -0.427
REMARK UNBOUND:                -0.427
REMARK  Name = 
REMARK  4 active torsions:
REMARK  status: ('A' for Active; 'I' for Inactive)
REMARK    1  A    between atoms: N_1  and  C_2
REMARK    2  A    between atoms: C_2  and  C_3
REMARK    3  A    between atoms: C_6  and  C_7
REMARK    4  A    between atoms: C_7  and  N_8
REMARK                            x       y       z     vdW  Elec       q    Type
REMARK                         _______ _______ _______ _____ _____    ______ ____
ROOT
ATOM      1  C   UNL     1      43.984   4.318   9.711  0.00  0.00    +0.000 C 
ENDROOT
BRANCH   1   2
ATOM      2  N   UNL     1      44.382   4.312  11.107  0.00  0.00    +0.000 N 
ATOM      3  C   UNL     1      43.776   3.575  12.088  0.00  0.00    +0.000 A 
ATOM      4  N   UNL     1      44.332   3.777  13.261  0.00  0.00    +0.000 NA
ATOM      5  C   UNL     1      45.324   4.699  13.037  0.00  0.00    +0.000 A 
ATOM      6  C   UNL     1      46.229   5.263  13.945  0.00  0.00    +0.000 A 
ATOM      7  C   UNL     1      47.139   6.201  13.463  0.00  0.00    +0.000 A 
ATOM      8  F   UNL     1      48.021   6.748  14.311  0.00  0.00    +0.000 F 
ATOM      9  C   UNL     1      47.157   6.589  12.127  0.00  0.00    +0.000 A 
ATOM     10  C   UNL     1      46.264   6.033  11.204  0.00  0.00    +0.000 A 
ATOM     11  C   UNL     1      45.365   5.077  11.693  0.00  0.00    +0.000 A 
ENDBRANCH   1   2
BRANCH   1  15
ATOM     12  C   UNL     1      46.871   2.287   7.305  0.00  0.00    +0.000 A 
ATOM     13  C   UNL     1      46.102   1.550   8.210  0.00  0.00    +0.000 A 
ATOM     14  C   UNL     1      45.134   2.190   8.983  0.00  0.00    +0.000 A 
ATOM     15  C   UNL     1      44.961   3.566   8.844  0.00  0.00    +0.000 A 
ATOM     16  N   UNL     1      45.677   4.298   7.951  0.00  0.00    +0.000 NA
ATOM     17  C   UNL     1      46.601   3.645   7.208  0.00  0.00    +0.000 A 
BRANCH  12  18
ATOM     18  C   UNL     1      47.984   1.661   6.515  0.00  0.00    +0.000 C 
BRANCH  18  19
ATOM     19  N   UNL     1      48.338   2.447   5.339  0.00  0.00    +0.000 NA
ATOM     20  H   UNL     1      47.505   2.583   4.768  0.00  0.00    +0.000 HD
ATOM     21  H   UNL     1      48.990   1.914   4.765  0.00  0.00    +0.000 HD
ENDBRANCH  18  19
ENDBRANCH  12  18
ENDBRANCH   1  15
TORSDOF 4
ENDMDL
MODEL 2
REMARK VINA RESULT:    -7.638      1.252      1.812
REMARK INTER + INTRA:          -9.629
REMARK INTER:                  -9.194
REMARK INTRA:                  -0.435
REMARK UNBOUND:                -0.427
REMARK  Name = 
REMARK  4 active torsions:
REMARK  status: ('A' for Active; 'I' for Inactive)
REMARK    1  A    between atoms: N_1  and  C_2
REMARK    2  A    between atoms: C_2  and  C_3
REMARK    3  A    between atoms: C_6  and  C_7
REMARK    4  A    between atoms: C_7  and  N_8
REMARK                            x       y       z     vdW  Elec       q    Type
REMARK                         _______ _______ _______ _____ _____    ______ ____
ROOT
ATOM      1  C   UNL     1      43.866   4.595  10.124  0.00  0.00    +0.000 C 
ENDROOT
BRANCH   1   2
ATOM      2  N   UNL     1      44.640   5.422  11.032  0.00  0.00    +0.000 N 
ATOM      3  C   UNL     1      44.756   6.783  10.941  0.00  0.00    +0.000 A 
ATOM      4  N   UNL     1      45.531   7.269  11.883  0.00  0.00    +0.000 NA
ATOM      5  C   UNL     1      45.954   6.179  12.601  0.00  0.00    +0.000 A 
ATOM      6  C   UNL     1      46.796   6.129  13.719  0.00  0.00    +0.000 A 
ATOM      7  C   UNL     1      47.089   4.879  14.260  0.00  0.00    +0.000 A 
ATOM      8  F   UNL     1      47.884   4.806  15.336  0.00  0.00    +0.000 F 
ATOM      9  C   UNL     1      46.582   3.704  13.715  0.00  0.00    +0.000 A 
ATOM     10  C   UNL     1      45.736   3.735  12.601  0.00  0.00    +0.000 A 
ATOM     11  C   UNL     1      45.431   4.996  12.074  0.00  0.00    +0.000 A 
ENDBRANCH   1   2
BRANCH   1  15
ATOM     12  C   UNL     1      46.497   2.359   7.608  0.00  0.00    +0.000 A 
ATOM     13  C   UNL     1      45.720   1.681   8.551  0.00  0.00    +0.000 A 
ATOM     14  C   UNL     1      44.834   2.389   9.362  0.00  0.00    +0.000 A 
ATOM     15  C   UNL     1      44.749   3.773   9.220  0.00  0.00    +0.000 A 
ATOM     16  N   UNL     1      45.473   4.450   8.292  0.00  0.00    +0.000 NA
ATOM     17  C   UNL     1      46.317   3.732   7.513  0.00  0.00    +0.000 A 
BRANCH  12  18
ATOM     18  C   UNL     1      47.528   1.654   6.774  0.00  0.00    +0.000 C 
BRANCH  18  19
ATOM     19  N   UNL     1      48.596   2.549   6.343  0.00  0.00    +0.000 NA
ATOM     20  H   UNL     1      48.199   3.280   5.755  0.00  0.00    +0.000 HD
ATOM     21  H   UNL     1      49.246   2.033   5.752  0.00  0.00    +0.000 HD
ENDBRANCH  18  19
ENDBRANCH  12  18
ENDBRANCH   1  15
TORSDOF 4
ENDMDL
MODEL 3
REMARK VINA RESULT:    -6.874      2.880      6.055
REMARK INTER + INTRA:          -8.708
REMARK INTER:                  -8.235
REMARK INTRA:                  -0.474
REMARK UNBOUND:                -0.427
REMARK  Name = 
REMARK  4 active torsions:
REMARK  status: ('A' for Active; 'I' for Inactive)
REMARK    1  A    between atoms: N_1  and  C_2
REMARK    2  A    between atoms: C_2  and  C_3
REMARK    3  A    between atoms: C_6  and  C_7
REMARK    4  A    between atoms: C_7  and  N_8
REMARK                            x       y       z     vdW  Elec       q    Type
REMARK                         _______ _______ _______ _____ _____    ______ ____
ROOT
ATOM      1  C   UNL     1      44.252   4.644   9.973  0.00  0.00    +0.000 C 
ENDROOT
BRANCH   1   2
ATOM      2  N   UNL     1      44.766   3.424   9.376  0.00  0.00    +0.000 N 
ATOM      3  C   UNL     1      44.435   2.158   9.779  0.00  0.00    +0.000 A 
ATOM      4  N   UNL     1      45.063   1.245   9.073  0.00  0.00    +0.000 NA
ATOM      5  C   UNL     1      45.849   1.945   8.193  0.00  0.00    +0.000 A 
ATOM      6  C   UNL     1      46.719   1.462   7.208  0.00  0.00    +0.000 A 
ATOM      7  C   UNL     1      47.424   2.391   6.446  0.00  0.00    +0.000 A 
ATOM      8  F   UNL     1      48.255   1.953   5.491  0.00  0.00    +0.000 F 
ATOM      9  C   UNL     1      47.292   3.761   6.650  0.00  0.00    +0.000 A 
ATOM     10  C   UNL     1      46.424   4.262   7.627  0.00  0.00    +0.000 A 
ATOM     11  C   UNL     1      45.705   3.322   8.375  0.00  0.00    +0.000 A 
ENDBRANCH   1   2
BRANCH   1  15
ATOM     12  C   UNL     1      46.918   6.010  13.018  0.00  0.00    +0.000 A 
ATOM     13  C   UNL     1      46.945   6.627  11.764  0.00  0.00    +0.000 A 
ATOM     14  C   UNL     1      46.063   6.216  10.766  0.00  0.00    +0.000 A 
ATOM     15  C   UNL     1      45.172   5.179  11.040  0.00  0.00    +0.000 A 
ATOM     16  N   UNL     1      45.108   4.584  12.259  0.00  0.00    +0.000 NA
ATOM     17  C   UNL     1      45.970   5.014  13.209  0.00  0.00    +0.000 A 
BRANCH  12  18
ATOM     18  C   UNL     1      47.905   6.357  14.096  0.00  0.00    +0.000 C 
BRANCH  18  19
ATOM     19  N   UNL     1      49.239   6.607  13.563  0.00  0.00    +0.000 NA
ATOM     20  H   UNL     1      49.921   6.496  14.311  0.00  0.00    +0.000 HD
ATOM     21  H   UNL     1      49.303   7.580  13.265  0.00  0.00    +0.000 HD
ENDBRANCH  18  19
ENDBRANCH  12  18
ENDBRANCH   1  15
TORSDOF 4
ENDMDL
MODEL 4
REMARK VINA RESULT:    -6.857      1.547      1.735
REMARK INTER + INTRA:          -8.688
REMARK INTER:                  -8.280
REMARK INTRA:                  -0.408
REMARK UNBOUND:                -0.427
REMARK  Name = 
REMARK  4 active torsions:
REMARK  status: ('A' for Active; 'I' for Inactive)
REMARK    1  A    between atoms: N_1  and  C_2
REMARK    2  A    between atoms: C_2  and  C_3
REMARK    3  A    between atoms: C_6  and  C_7
REMARK    4  A    between atoms: C_7  and  N_8
REMARK                            x       y       z     vdW  Elec       q    Type
REMARK                         _______ _______ _______ _____ _____    ______ ____
ROOT
ATOM      1  C   UNL     1      44.172   4.220  10.926  0.00  0.00    +0.000 C 
ENDROOT
BRANCH   1   2
ATOM      2  N   UNL     1      45.113   4.789  11.873  0.00  0.00    +0.000 N 
ATOM      3  C   UNL     1      45.808   4.071  12.809  0.00  0.00    +0.000 A 
ATOM      4  N   UNL     1      46.574   4.845  13.544  0.00  0.00    +0.000 NA
ATOM      5  C   UNL     1      46.350   6.118  13.083  0.00  0.00    +0.000 A 
ATOM      6  C   UNL     1      46.915   7.326  13.512  0.00  0.00    +0.000 A 
ATOM      7  C   UNL     1      46.503   8.499  12.884  0.00  0.00    +0.000 A 
ATOM      8  F   UNL     1      47.036   9.666  13.270  0.00  0.00    +0.000 F 
ATOM      9  C   UNL     1      45.552   8.494  11.868  0.00  0.00    +0.000 A 
ATOM     10  C   UNL     1      44.981   7.297  11.423  0.00  0.00    +0.000 A 
ATOM     11  C   UNL     1      45.413   6.120  12.047  0.00  0.00    +0.000 A 
ENDBRANCH   1   2
BRANCH   1  15
ATOM     12  C   UNL     1      46.266   2.755   7.502  0.00  0.00    +0.000 A 
ATOM     13  C   UNL     1      45.763   1.842   8.434  0.00  0.00    +0.000 A 
ATOM     14  C   UNL     1      45.051   2.298   9.542  0.00  0.00    +0.000 A 
ATOM     15  C   UNL     1      44.865   3.670   9.705  0.00  0.00    +0.000 A 
ATOM     16  N   UNL     1      45.320   4.574   8.800  0.00  0.00    +0.000 NA
ATOM     17  C   UNL     1      45.998   4.098   7.729  0.00  0.00    +0.000 A 
BRANCH  12  18
ATOM     18  C   UNL     1      47.113   2.320   6.341  0.00  0.00    +0.000 C 
BRANCH  18  19
ATOM     19  N   UNL     1      48.262   1.527   6.761  0.00  0.00    +0.000 NA
ATOM     20  H   UNL     1      48.061   1.105   7.666  0.00  0.00    +0.000 HD
ATOM     21  H   UNL     1      49.059   2.146   6.909  0.00  0.00    +0.000 HD
ENDBRANCH  18  19
ENDBRANCH  12  18
ENDBRANCH   1  15
TORSDOF 4
ENDMDL
MODEL 5
REMARK VINA RESULT:    -6.799      3.087      5.886
REMARK INTER + INTRA:          -8.618
REMARK INTER:                  -8.202
REMARK INTRA:                  -0.416
REMARK UNBOUND:                -0.427
REMARK  Name = 
REMARK  4 active torsions:
REMARK  status: ('A' for Active; 'I' for Inactive)
REMARK    1  A    between atoms: N_1  and  C_2
REMARK    2  A    between atoms: C_2  and  C_3
REMARK    3  A    between atoms: C_6  and  C_7
REMARK    4  A    between atoms: C_7  and  N_8
REMARK                            x       y       z     vdW  Elec       q    Type
REMARK                         _______ _______ _______ _____ _____    ______ ____
ROOT
ATOM      1  C   UNL     1      43.909   6.024  11.728  0.00  0.00    +0.000 C 
ENDROOT
BRANCH   1   2
ATOM      2  N   UNL     1      43.933   4.689  11.159  0.00  0.00    +0.000 N 
ATOM      3  C   UNL     1      43.285   3.604  11.685  0.00  0.00    +0.000 A 
ATOM      4  N   UNL     1      43.495   2.520  10.974  0.00  0.00    +0.000 NA
ATOM      5  C   UNL     1      44.331   2.911   9.958  0.00  0.00    +0.000 A 
ATOM      6  C   UNL     1      44.865   2.151   8.910  0.00  0.00    +0.000 A 
ATOM      7  C   UNL     1      45.711   2.788   8.006  0.00  0.00    +0.000 A 
ATOM      8  F   UNL     1      46.227   2.084   6.989  0.00  0.00    +0.000 F 
ATOM      9  C   UNL     1      46.040   4.135   8.130  0.00  0.00    +0.000 A 
ATOM     10  C   UNL     1      45.513   4.911   9.167  0.00  0.00    +0.000 A 
ATOM     11  C   UNL     1      44.648   4.268  10.061  0.00  0.00    +0.000 A 
ENDBRANCH   1   2
BRANCH   1  15
ATOM     12  C   UNL     1      47.809   7.065  13.128  0.00  0.00    +0.000 A 
ATOM     13  C   UNL     1      47.164   7.912  12.223  0.00  0.00    +0.000 A 
ATOM     14  C   UNL     1      45.879   7.605  11.777  0.00  0.00    +0.000 A 
ATOM     15  C   UNL     1      45.264   6.443  12.239  0.00  0.00    +0.000 A 
ATOM     16  N   UNL     1      45.860   5.620  13.140  0.00  0.00    +0.000 NA
ATOM     17  C   UNL     1      47.103   5.951  13.561  0.00  0.00    +0.000 A 
BRANCH  12  18
ATOM     18  C   UNL     1      49.224   7.304  13.570  0.00  0.00    +0.000 C 
BRANCH  18  19
ATOM     19  N   UNL     1      49.576   6.521  14.747  0.00  0.00    +0.000 NA
ATOM     20  H   UNL     1      50.318   6.999  15.255  0.00  0.00    +0.000 HD
ATOM     21  H   UNL     1      49.967   5.628  14.450  0.00  0.00    +0.000 HD
ENDBRANCH  18  19
ENDBRANCH  12  18
ENDBRANCH   1  15
TORSDOF 4
ENDMDL
MODEL 6
REMARK VINA RESULT:    -5.934      3.358      6.142
REMARK INTER + INTRA:          -7.576
REMARK INTER:                  -7.207
REMARK INTRA:                  -0.369
REMARK UNBOUND:                -0.427
REMARK  Name = 
REMARK  4 active torsions:
REMARK  status: ('A' for Active; 'I' for Inactive)
REMARK    1  A    between atoms: N_1  and  C_2
REMARK    2  A    between atoms: C_2  and  C_3
REMARK    3  A    between atoms: C_6  and  C_7
REMARK    4  A    between atoms: C_7  and  N_8
REMARK                            x       y       z     vdW  Elec       q    Type
REMARK                         _______ _______ _______ _____ _____    ______ ____
ROOT
ATOM      1  C   UNL     1      44.916   7.282  11.562  0.00  0.00    +0.000 C 
ENDROOT
BRANCH   1   2
ATOM      2  N   UNL     1      44.412   5.925  11.662  0.00  0.00    +0.000 N 
ATOM      3  C   UNL     1      43.703   5.431  12.723  0.00  0.00    +0.000 A 
ATOM      4  N   UNL     1      43.390   4.167  12.553  0.00  0.00    +0.000 NA
ATOM      5  C   UNL     1      43.936   3.819  11.343  0.00  0.00    +0.000 A 
ATOM      6  C   UNL     1      43.897   2.588  10.676  0.00  0.00    +0.000 A 
ATOM      7  C   UNL     1      44.554   2.488   9.452  0.00  0.00    +0.000 A 
ATOM      8  F   UNL     1      44.523   1.323   8.790  0.00  0.00    +0.000 F 
ATOM      9  C   UNL     1      45.243   3.561   8.896  0.00  0.00    +0.000 A 
ATOM     10  C   UNL     1      45.289   4.800   9.546  0.00  0.00    +0.000 A 
ATOM     11  C   UNL     1      44.611   4.898  10.767  0.00  0.00    +0.000 A 
ENDBRANCH   1   2
BRANCH   1  15
ATOM     12  C   UNL     1      48.512   7.760  13.820  0.00  0.00    +0.000 A 
ATOM     13  C   UNL     1      48.462   6.786  12.819  0.00  0.00    +0.000 A 
ATOM     14  C   UNL     1      47.309   6.634  12.051  0.00  0.00    +0.000 A 
ATOM     15  C   UNL     1      46.214   7.457  12.309  0.00  0.00    +0.000 A 
ATOM     16  N   UNL     1      46.248   8.429  13.257  0.00  0.00    +0.000 NA
ATOM     17  C   UNL     1      47.387   8.558  13.978  0.00  0.00    +0.000 A 
BRANCH  12  18
ATOM     18  C   UNL     1      49.697   7.903  14.731  0.00  0.00    +0.000 C 
BRANCH  18  19
ATOM     19  N   UNL     1      50.961   7.754  14.021  0.00  0.00    +0.000 NA
ATOM     20  H   UNL     1      51.075   6.780  13.746  0.00  0.00    +0.000 HD
ATOM     21  H   UNL     1      51.729   7.959  14.659  0.00  0.00    +0.000 HD
ENDBRANCH  18  19
ENDBRANCH  12  18
ENDBRANCH   1  15
TORSDOF 4
ENDMDL
MODEL 7
REMARK VINA RESULT:    -5.860      1.953      3.255
REMARK INTER + INTRA:          -7.487
REMARK INTER:                  -7.076
REMARK INTRA:                  -0.411
REMARK UNBOUND:                -0.427
REMARK  Name = 
REMARK  4 active torsions:
REMARK  status: ('A' for Active; 'I' for Inactive)
REMARK    1  A    between atoms: N_1  and  C_2
REMARK    2  A    between atoms: C_2  and  C_3
REMARK    3  A    between atoms: C_6  and  C_7
REMARK    4  A    between atoms: C_7  and  N_8
REMARK                            x       y       z     vdW  Elec       q    Type
REMARK                         _______ _______ _______ _____ _____    ______ ____
ROOT
ATOM      1  C   UNL     1      44.910   5.291  12.814  0.00  0.00    +0.000 C 
ENDROOT
BRANCH   1   2
ATOM      2  N   UNL     1      46.154   5.473  13.539  0.00  0.00    +0.000 N 
ATOM      3  C   UNL     1      46.764   4.510  14.297  0.00  0.00    +0.000 A 
ATOM      4  N   UNL     1      47.867   4.956  14.854  0.00  0.00    +0.000 NA
ATOM      5  C   UNL     1      47.966   6.267  14.460  0.00  0.00    +0.000 A 
ATOM      6  C   UNL     1      48.957   7.209  14.763  0.00  0.00    +0.000 A 
ATOM      7  C   UNL     1      48.816   8.495  14.247  0.00  0.00    +0.000 A 
ATOM      8  F   UNL     1      49.756   9.411  14.515  0.00  0.00    +0.000 F 
ATOM      9  C   UNL     1      47.726   8.856  13.461  0.00  0.00    +0.000 A 
ATOM     10  C   UNL     1      46.729   7.927  13.143  0.00  0.00    +0.000 A 
ATOM     11  C   UNL     1      46.887   6.632  13.651  0.00  0.00    +0.000 A 
ENDBRANCH   1   2
BRANCH   1  15
ATOM     12  C   UNL     1      45.416   3.921   8.800  0.00  0.00    +0.000 A 
ATOM     13  C   UNL     1      45.804   5.223   9.127  0.00  0.00    +0.000 A 
ATOM     14  C   UNL     1      45.674   5.679  10.438  0.00  0.00    +0.000 A 
ATOM     15  C   UNL     1      45.144   4.822  11.401  0.00  0.00    +0.000 A 
ATOM     16  N   UNL     1      44.787   3.544  11.113  0.00  0.00    +0.000 NA
ATOM     17  C   UNL     1      44.935   3.128   9.834  0.00  0.00    +0.000 A 
BRANCH  12  18
ATOM     18  C   UNL     1      45.454   3.412   7.387  0.00  0.00    +0.000 C 
BRANCH  18  19
ATOM     19  N   UNL     1      46.581   3.949   6.636  0.00  0.00    +0.000 NA
ATOM     20  H   UNL     1      46.306   4.068   5.663  0.00  0.00    +0.000 HD
ATOM     21  H   UNL     1      47.338   3.267   6.635  0.00  0.00    +0.000 HD
ENDBRANCH  18  19
ENDBRANCH  12  18
ENDBRANCH   1  15
TORSDOF 4
ENDMDL
MODEL 8
REMARK VINA RESULT:    -5.564      3.500      5.838
REMARK INTER + INTRA:          -7.130
REMARK INTER:                  -6.847
REMARK INTRA:                  -0.283
REMARK UNBOUND:                -0.427
REMARK  Name = 
REMARK  4 active torsions:
REMARK  status: ('A' for Active; 'I' for Inactive)
REMARK    1  A    between atoms: N_1  and  C_2
REMARK    2  A    between atoms: C_2  and  C_3
REMARK    3  A    between atoms: C_6  and  C_7
REMARK    4  A    between atoms: C_7  and  N_8
REMARK                            x       y       z     vdW  Elec       q    Type
REMARK                         _______ _______ _______ _____ _____    ______ ____
ROOT
ATOM      1  C   UNL     1      45.653   7.175  12.816  0.00  0.00    +0.000 C 
ENDROOT
BRANCH   1   2
ATOM      2  N   UNL     1      45.365   5.776  12.561  0.00  0.00    +0.000 N 
ATOM      3  C   UNL     1      45.166   4.830  13.530  0.00  0.00    +0.000 A 
ATOM      4  N   UNL     1      44.941   3.643  13.013  0.00  0.00    +0.000 NA
ATOM      5  C   UNL     1      45.019   3.821  11.654  0.00  0.00    +0.000 A 
ATOM      6  C   UNL     1      44.854   2.882  10.629  0.00  0.00    +0.000 A 
ATOM      7  C   UNL     1      45.001   3.317   9.314  0.00  0.00    +0.000 A 
ATOM      8  F   UNL     1      44.839   2.439   8.315  0.00  0.00    +0.000 F 
ATOM      9  C   UNL     1      45.315   4.638   9.008  0.00  0.00    +0.000 A 
ATOM     10  C   UNL     1      45.479   5.591  10.019  0.00  0.00    +0.000 A 
ATOM     11  C   UNL     1      45.311   5.150  11.337  0.00  0.00    +0.000 A 
ENDBRANCH   1   2
BRANCH   1  15
ATOM     12  C   UNL     1      49.695   8.294  12.002  0.00  0.00    +0.000 A 
ATOM     13  C   UNL     1      49.433   7.025  12.525  0.00  0.00    +0.000 A 
ATOM     14  C   UNL     1      48.119   6.629  12.769  0.00  0.00    +0.000 A 
ATOM     15  C   UNL     1      47.085   7.523  12.497  0.00  0.00    +0.000 A 
ATOM     16  N   UNL     1      47.312   8.750  11.963  0.00  0.00    +0.000 NA
ATOM     17  C   UNL     1      48.598   9.100  11.727  0.00  0.00    +0.000 A 
BRANCH  12  18
ATOM     18  C   UNL     1      51.095   8.799  11.804  0.00  0.00    +0.000 C 
BRANCH  18  19
ATOM     19  N   UNL     1      52.077   8.004  12.531  0.00  0.00    +0.000 NA
ATOM     20  H   UNL     1      52.577   8.606  13.182  0.00  0.00    +0.000 HD
ATOM     21  H   UNL     1      52.777   7.656  11.875  0.00  0.00    +0.000 HD
ENDBRANCH  18  19
ENDBRANCH  12  18
ENDBRANCH   1  15
TORSDOF 4
ENDMDL
MODEL 9
REMARK VINA RESULT:    -5.261      4.624      7.407
REMARK INTER + INTRA:          -6.765
REMARK INTER:                  -6.403
REMARK INTRA:                  -0.363
REMARK UNBOUND:                -0.427
REMARK  Name = 
REMARK  4 active torsions:
REMARK  status: ('A' for Active; 'I' for Inactive)
REMARK    1  A    between atoms: N_1  and  C_2
REMARK    2  A    between atoms: C_2  and  C_3
REMARK    3  A    between atoms: C_6  and  C_7
REMARK    4  A    between atoms: C_7  and  N_8
REMARK                            x       y       z     vdW  Elec       q    Type
REMARK                         _______ _______ _______ _____ _____    ______ ____
ROOT
ATOM      1  C   UNL     1      47.117   4.182  13.997  0.00  0.00    +0.000 C 
ENDROOT
BRANCH   1   2
ATOM      2  N   UNL     1      46.118   5.096  13.474  0.00  0.00    +0.000 N 
ATOM      3  C   UNL     1      44.787   4.805  13.339  0.00  0.00    +0.000 A 
ATOM      4  N   UNL     1      44.119   5.811  12.822  0.00  0.00    +0.000 NA
ATOM      5  C   UNL     1      45.057   6.787  12.592  0.00  0.00    +0.000 A 
ATOM      6  C   UNL     1      44.885   8.069  12.055  0.00  0.00    +0.000 A 
ATOM      7  C   UNL     1      46.014   8.871  11.906  0.00  0.00    +0.000 A 
ATOM      8  F   UNL     1      45.875  10.105  11.404  0.00  0.00    +0.000 F 
ATOM      9  C   UNL     1      47.284   8.427  12.261  0.00  0.00    +0.000 A 
ATOM     10  C   UNL     1      47.474   7.151  12.803  0.00  0.00    +0.000 A 
ATOM     11  C   UNL     1      46.332   6.357  12.967  0.00  0.00    +0.000 A 
ENDBRANCH   1   2
BRANCH   1  15
ATOM     12  C   UNL     1      48.022   4.781  18.128  0.00  0.00    +0.000 A 
ATOM     13  C   UNL     1      48.579   5.642  17.179  0.00  0.00    +0.000 A 
ATOM     14  C   UNL     1      48.272   5.482  15.828  0.00  0.00    +0.000 A 
ATOM     15  C   UNL     1      47.418   4.448  15.449  0.00  0.00    +0.000 A 
ATOM     16  N   UNL     1      46.843   3.617  16.356  0.00  0.00    +0.000 NA
ATOM     17  C   UNL     1      47.153   3.805  17.660  0.00  0.00    +0.000 A 
BRANCH  12  18
ATOM     18  C   UNL     1      48.390   4.857  19.583  0.00  0.00    +0.000 C 
BRANCH  18  19
ATOM     19  N   UNL     1      48.566   3.539  20.178  0.00  0.00    +0.000 NA
ATOM     20  H   UNL     1      49.506   3.204  19.973  0.00  0.00    +0.000 HD
ATOM     21  H   UNL     1      47.928   2.882  19.730  0.00  0.00    +0.000 HD
ENDBRANCH  18  19
ENDBRANCH  12  18
ENDBRANCH   1  15
TORSDOF 4
ENDMDL
