MODEL 1
REMARK VINA RESULT:    -8.773      0.000      0.000
REMARK INTER + INTRA:         -11.970
REMARK INTER:                 -10.824
REMARK INTRA:                  -1.145
REMARK UNBOUND:                -1.145
REMARK  Name = 
REMARK  4 active torsions:
REMARK  status: ('A' for Active; 'I' for Inactive)
REMARK    1  A    between atoms: C_2  and  C_4
REMARK    2  A    between atoms: N_8  and  C_9
REMARK    3  A    between atoms: C_9  and  C_10
REMARK    4  A    between atoms: C_15  and  C_16
REMARK                            x       y       z     vdW  Elec       q    Type
REMARK                         _______ _______ _______ _____ _____    ______ ____
ROOT
ATOM      1  C   UNL     1      43.775   4.969  11.342  0.00  0.00    +0.000 C 
ATOM      2  C   UNL     1      42.461   5.182  12.090  0.00  0.00    +0.000 C 
ATOM      3  C   UNL     1      42.860   6.130  11.010  0.00  0.00    +0.000 C 
ENDROOT
BRANCH   1   8
ATOM      4  C   UNL     1      46.519   2.712   7.546  0.00  0.00    +0.000 A 
ATOM      5  C   UNL     1      46.112   4.041   7.639  0.00  0.00    +0.000 A 
ATOM      6  C   UNL     1      45.238   4.419   8.661  0.00  0.00    +0.000 A 
ATOM      7  C   UNL     1      44.779   3.465   9.561  0.00  0.00    +0.000 A 
ATOM      8  N   UNL     1      43.822   3.733  10.542  0.00  0.00    +0.000 N 
ATOM      9  N   UNL     1      45.164   2.173   9.479  0.00  0.00    +0.000 NA
ATOM     10  C   UNL     1      46.015   1.822   8.480  0.00  0.00    +0.000 A 
ATOM     11  H   UNL     1      43.732   2.865  11.069  0.00  0.00    +0.000 HD
BRANCH   4  13
ATOM     12  N   UNL     1      47.581   2.995   5.379  0.00  0.00    +0.000 N 
ATOM     13  C   UNL     1      47.413   2.208   6.484  0.00  0.00    +0.000 C 
ATOM     14  O   UNL     1      48.000   1.141   6.596  0.00  0.00    +0.000 OA
ATOM     15  H   UNL     1      48.270   2.680   4.706  0.00  0.00    +0.000 HD
ATOM     16  H   UNL     1      47.318   3.969   5.355  0.00  0.00    +0.000 HD
ENDBRANCH   4  13
ENDBRANCH   1   8
BRANCH   1  17
ATOM     17  C   UNL     1      45.079   5.247  12.093  0.00  0.00    +0.000 A 
ATOM     18  C   UNL     1      45.595   4.316  13.011  0.00  0.00    +0.000 A 
ATOM     19  C   UNL     1      46.819   4.525  13.640  0.00  0.00    +0.000 A 
ATOM     20  C   UNL     1      47.557   5.668  13.356  0.00  0.00    +0.000 A 
ATOM     21  F   UNL     1      48.735   5.815  13.980  0.00  0.00    +0.000 F 
ATOM     22  C   UNL     1      47.105   6.637  12.443  0.00  0.00    +0.000 A 
ATOM     23  C   UNL     1      45.851   6.402  11.837  0.00  0.00    +0.000 A 
BRANCH  22  24
ATOM     24  C   UNL     1      47.919   7.832  12.110  0.00  0.00    +0.000 A 
ATOM     25  C   UNL     1      47.397   9.128  12.233  0.00  0.00    +0.000 A 
ATOM     26  C   UNL     1      48.180  10.222  11.897  0.00  0.00    +0.000 A 
ATOM     27  N   UNL     1      49.453  10.127  11.466  0.00  0.00    +0.000 NA
ATOM     28  C   UNL     1      49.954   8.882  11.356  0.00  0.00    +0.000 A 
ATOM     29  C   UNL     1      49.241   7.728  11.658  0.00  0.00    +0.000 A 
ENDBRANCH  22  24
ENDBRANCH   1  17
TORSDOF 4
ENDMDL
MODEL 2
REMARK VINA RESULT:    -8.751      2.124      3.506
REMARK INTER + INTRA:         -11.943
REMARK INTER:                 -11.313
REMARK INTRA:                  -0.630
REMARK UNBOUND:                -1.145
REMARK  Name = 
REMARK  4 active torsions:
REMARK  status: ('A' for Active; 'I' for Inactive)
REMARK    1  A    between atoms: C_2  and  C_4
REMARK    2  A    between atoms: N_8  and  C_9
REMARK    3  A    between atoms: C_9  and  C_10
REMARK    4  A    between atoms: C_15  and  C_16
REMARK                            x       y       z     vdW  Elec       q    Type
REMARK                         _______ _______ _______ _____ _____    ______ ____
ROOT
ATOM      1  C   UNL     1      43.909   4.880  11.470  0.00  0.00    +0.000 C 
ATOM      2  C   UNL     1      42.726   4.974  12.432  0.00  0.00    +0.000 C 
ATOM      3  C   UNL     1      42.838   5.939  11.299  0.00  0.00    +0.000 C 
ENDROOT
BRANCH   1   8
ATOM      4  C   UNL     1      46.435   2.710   7.478  0.00  0.00    +0.000 A 
ATOM      5  C   UNL     1      45.983   4.021   7.597  0.00  0.00    +0.000 A 
ATOM      6  C   UNL     1      45.177   4.371   8.684  0.00  0.00    +0.000 A 
ATOM      7  C   UNL     1      44.830   3.405   9.621  0.00  0.00    +0.000 A 
ATOM      8  N   UNL     1      43.943   3.641  10.674  0.00  0.00    +0.000 N 
ATOM      9  N   UNL     1      45.260   2.129   9.514  0.00  0.00    +0.000 NA
ATOM     10  C   UNL     1      46.044   1.807   8.452  0.00  0.00    +0.000 A 
ATOM     11  H   UNL     1      43.931   2.774  11.210  0.00  0.00    +0.000 HD
BRANCH   4  13
ATOM     12  N   UNL     1      47.281   3.001   5.218  0.00  0.00    +0.000 N 
ATOM     13  C   UNL     1      47.262   2.234   6.350  0.00  0.00    +0.000 C 
ATOM     14  O   UNL     1      47.926   1.210   6.431  0.00  0.00    +0.000 OA
ATOM     15  H   UNL     1      47.926   2.713   4.493  0.00  0.00    +0.000 HD
ATOM     16  H   UNL     1      46.954   3.956   5.198  0.00  0.00    +0.000 HD
ENDBRANCH   4  13
ENDBRANCH   1   8
BRANCH   1  17
ATOM     17  C   UNL     1      45.286   5.299  11.987  0.00  0.00    +0.000 A 
ATOM     18  C   UNL     1      46.038   6.282  11.323  0.00  0.00    +0.000 A 
ATOM     19  C   UNL     1      47.256   6.725  11.830  0.00  0.00    +0.000 A 
ATOM     20  C   UNL     1      47.743   6.198  13.021  0.00  0.00    +0.000 A 
ATOM     21  F   UNL     1      48.916   6.669  13.472  0.00  0.00    +0.000 F 
ATOM     22  C   UNL     1      47.040   5.218  13.742  0.00  0.00    +0.000 A 
ATOM     23  C   UNL     1      45.817   4.778  13.190  0.00  0.00    +0.000 A 
BRANCH  22  24
ATOM     24  C   UNL     1      47.543   4.693  15.036  0.00  0.00    +0.000 A 
ATOM     25  C   UNL     1      47.558   3.317  15.309  0.00  0.00    +0.000 A 
ATOM     26  C   UNL     1      48.020   2.862  16.535  0.00  0.00    +0.000 A 
ATOM     27  N   UNL     1      48.488   3.671  17.505  0.00  0.00    +0.000 NA
ATOM     28  C   UNL     1      48.480   4.991  17.238  0.00  0.00    +0.000 A 
ATOM     29  C   UNL     1      48.025   5.539  16.044  0.00  0.00    +0.000 A 
ENDBRANCH  22  24
ENDBRANCH   1  17
TORSDOF 4
ENDMDL
MODEL 3
REMARK VINA RESULT:    -6.944      4.521      8.216
REMARK INTER + INTRA:          -9.714
REMARK INTER:                  -8.563
REMARK INTRA:                  -1.151
REMARK UNBOUND:                -1.145
REMARK  Name = 
REMARK  4 active torsions:
REMARK  status: ('A' for Active; 'I' for Inactive)
REMARK    1  A    between atoms: C_2  and  C_4
REMARK    2  A    between atoms: N_8  and  C_9
REMARK    3  A    between atoms: C_9  and  C_10
REMARK    4  A    between atoms: C_15  and  C_16
REMARK                            x       y       z     vdW  Elec       q    Type
REMARK                         _______ _______ _______ _____ _____    ______ ____
ROOT
ATOM      1  C   UNL     1      49.115   7.964  12.770  0.00  0.00    +0.000 C 
ATOM      2  C   UNL     1      50.095   8.163  11.615  0.00  0.00    +0.000 C 
ATOM      3  C   UNL     1      49.760   9.310  12.508  0.00  0.00    +0.000 C 
ENDROOT
BRANCH   1   8
ATOM      4  C   UNL     1      48.390   6.814  17.788  0.00  0.00    +0.000 A 
ATOM      5  C   UNL     1      48.481   8.073  17.200  0.00  0.00    +0.000 A 
ATOM      6  C   UNL     1      48.843   8.175  15.854  0.00  0.00    +0.000 A 
ATOM      7  C   UNL     1      49.118   7.022  15.127  0.00  0.00    +0.000 A 
ATOM      8  N   UNL     1      49.590   7.038  13.813  0.00  0.00    +0.000 N 
ATOM      9  N   UNL     1      49.035   5.796  15.688  0.00  0.00    +0.000 NA
ATOM     10  C   UNL     1      48.681   5.715  16.997  0.00  0.00    +0.000 A 
ATOM     11  H   UNL     1      49.644   6.058  13.539  0.00  0.00    +0.000 HD
BRANCH   4  13
ATOM     12  N   UNL     1      47.143   5.621  19.499  0.00  0.00    +0.000 N 
ATOM     13  C   UNL     1      48.048   6.604  19.210  0.00  0.00    +0.000 C 
ATOM     14  O   UNL     1      48.571   7.264  20.098  0.00  0.00    +0.000 OA
ATOM     15  H   UNL     1      46.993   5.426  20.482  0.00  0.00    +0.000 HD
ATOM     16  H   UNL     1      46.881   4.905  18.837  0.00  0.00    +0.000 HD
ENDBRANCH   4  13
ENDBRANCH   1   8
BRANCH   1  17
ATOM     17  C   UNL     1      47.636   7.774  12.428  0.00  0.00    +0.000 A 
ATOM     18  C   UNL     1      46.694   8.775  12.718  0.00  0.00    +0.000 A 
ATOM     19  C   UNL     1      45.361   8.645  12.340  0.00  0.00    +0.000 A 
ATOM     20  C   UNL     1      44.945   7.510  11.653  0.00  0.00    +0.000 A 
ATOM     21  F   UNL     1      43.652   7.440  11.301  0.00  0.00    +0.000 F 
ATOM     22  C   UNL     1      45.834   6.474  11.322  0.00  0.00    +0.000 A 
ATOM     23  C   UNL     1      47.175   6.630  11.738  0.00  0.00    +0.000 A 
BRANCH  22  24
ATOM     24  C   UNL     1      45.393   5.286  10.549  0.00  0.00    +0.000 A 
ATOM     25  C   UNL     1      44.655   4.256  11.151  0.00  0.00    +0.000 A 
ATOM     26  C   UNL     1      44.273   3.153  10.402  0.00  0.00    +0.000 A 
ATOM     27  N   UNL     1      44.553   3.004   9.093  0.00  0.00    +0.000 NA
ATOM     28  C   UNL     1      45.255   3.997   8.516  0.00  0.00    +0.000 A 
ATOM     29  C   UNL     1      45.690   5.134   9.188  0.00  0.00    +0.000 A 
ENDBRANCH  22  24
ENDBRANCH   1  17
TORSDOF 4
ENDMDL
MODEL 4
REMARK VINA RESULT:    -6.615      3.727      7.466
REMARK INTER + INTRA:          -9.308
REMARK INTER:                  -9.134
REMARK INTRA:                  -0.173
REMARK UNBOUND:                -1.145
REMARK  Name = 
REMARK  4 active torsions:
REMARK  status: ('A' for Active; 'I' for Inactive)
REMARK    1  A    between atoms: C_2  and  C_4
REMARK    2  A    between atoms: N_8  and  C_9
REMARK    3  A    between atoms: C_9  and  C_10
REMARK    4  A    between atoms: C_15  and  C_16
REMARK                            x       y       z     vdW  Elec       q    Type
REMARK                         _______ _______ _______ _____ _____    ______ ____
ROOT
ATOM      1  C   UNL     1      48.647   7.974  12.806  0.00  0.00    +0.000 C 
ATOM      2  C   UNL     1      49.768   7.398  11.943  0.00  0.00    +0.000 C 
ATOM      3  C   UNL     1      49.511   8.868  11.940  0.00  0.00    +0.000 C 
ENDROOT
BRANCH   1   8
ATOM      4  C   UNL     1      48.284   4.418  16.581  0.00  0.00    +0.000 A 
ATOM      5  C   UNL     1      47.390   4.660  15.541  0.00  0.00    +0.000 A 
ATOM      6  C   UNL     1      47.584   5.774  14.718  0.00  0.00    +0.000 A 
ATOM      7  C   UNL     1      48.655   6.626  14.957  0.00  0.00    +0.000 A 
ATOM      8  N   UNL     1      48.859   7.817  14.255  0.00  0.00    +0.000 N 
ATOM      9  N   UNL     1      49.526   6.402  15.965  0.00  0.00    +0.000 NA
ATOM     10  C   UNL     1      49.324   5.315  16.754  0.00  0.00    +0.000 A 
ATOM     11  H   UNL     1      49.738   8.188  14.613  0.00  0.00    +0.000 HD
BRANCH   4  13
ATOM     12  N   UNL     1      46.895   2.769  17.703  0.00  0.00    +0.000 N 
ATOM     13  C   UNL     1      48.147   3.289  17.524  0.00  0.00    +0.000 C 
ATOM     14  O   UNL     1      49.116   2.819  18.104  0.00  0.00    +0.000 OA
ATOM     15  H   UNL     1      46.834   1.937  18.277  0.00  0.00    +0.000 HD
ATOM     16  H   UNL     1      46.128   2.959  17.075  0.00  0.00    +0.000 HD
ENDBRANCH   4  13
ENDBRANCH   1   8
BRANCH   1  17
ATOM     17  C   UNL     1      47.203   7.702  12.378  0.00  0.00    +0.000 A 
ATOM     18  C   UNL     1      46.195   8.655  12.595  0.00  0.00    +0.000 A 
ATOM     19  C   UNL     1      44.896   8.449  12.139  0.00  0.00    +0.000 A 
ATOM     20  C   UNL     1      44.582   7.286  11.446  0.00  0.00    +0.000 A 
ATOM     21  F   UNL     1      43.319   7.143  11.017  0.00  0.00    +0.000 F 
ATOM     22  C   UNL     1      45.543   6.294  11.186  0.00  0.00    +0.000 A 
ATOM     23  C   UNL     1      46.846   6.526  11.679  0.00  0.00    +0.000 A 
BRANCH  22  24
ATOM     24  C   UNL     1      45.212   5.075  10.406  0.00  0.00    +0.000 A 
ATOM     25  C   UNL     1      45.602   4.937   9.066  0.00  0.00    +0.000 A 
ATOM     26  C   UNL     1      45.262   3.792   8.362  0.00  0.00    +0.000 A 
ATOM     27  N   UNL     1      44.578   2.761   8.897  0.00  0.00    +0.000 NA
ATOM     28  C   UNL     1      44.212   2.892  10.186  0.00  0.00    +0.000 A 
ATOM     29  C   UNL     1      44.497   4.007  10.966  0.00  0.00    +0.000 A 
ENDBRANCH  22  24
ENDBRANCH   1  17
TORSDOF 4
ENDMDL
MODEL 5
REMARK VINA RESULT:    -6.248      3.989      6.009
REMARK INTER + INTRA:          -8.854
REMARK INTER:                  -8.164
REMARK INTRA:                  -0.690
REMARK UNBOUND:                -1.145
REMARK  Name = 
REMARK  4 active torsions:
REMARK  status: ('A' for Active; 'I' for Inactive)
REMARK    1  A    between atoms: C_2  and  C_4
REMARK    2  A    between atoms: N_8  and  C_9
REMARK    3  A    between atoms: C_9  and  C_10
REMARK    4  A    between atoms: C_15  and  C_16
REMARK                            x       y       z     vdW  Elec       q    Type
REMARK                         _______ _______ _______ _____ _____    ______ ____
ROOT
ATOM      1  C   UNL     1      47.708   8.133  13.149  0.00  0.00    +0.000 C 
ATOM      2  C   UNL     1      47.601   9.631  12.866  0.00  0.00    +0.000 C 
ATOM      3  C   UNL     1      48.092   8.709  11.801  0.00  0.00    +0.000 C 
ENDROOT
BRANCH   1   8
ATOM      4  C   UNL     1      44.802   4.176  11.441  0.00  0.00    +0.000 A 
ATOM      5  C   UNL     1      45.529   5.094  10.689  0.00  0.00    +0.000 A 
ATOM      6  C   UNL     1      46.117   6.189  11.328  0.00  0.00    +0.000 A 
ATOM      7  C   UNL     1      45.957   6.352  12.698  0.00  0.00    +0.000 A 
ATOM      8  N   UNL     1      46.416   7.471  13.397  0.00  0.00    +0.000 N 
ATOM      9  N   UNL     1      45.251   5.469  13.438  0.00  0.00    +0.000 NA
ATOM     10  C   UNL     1      44.688   4.410  12.801  0.00  0.00    +0.000 A 
ATOM     11  H   UNL     1      46.201   7.280  14.375  0.00  0.00    +0.000 HD
BRANCH   4  13
ATOM     12  N   UNL     1      44.753   2.349   9.839  0.00  0.00    +0.000 N 
ATOM     13  C   UNL     1      44.117   3.005  10.855  0.00  0.00    +0.000 C 
ATOM     14  O   UNL     1      43.035   2.620  11.276  0.00  0.00    +0.000 OA
ATOM     15  H   UNL     1      44.317   1.495   9.514  0.00  0.00    +0.000 HD
ATOM     16  H   UNL     1      45.733   2.478   9.632  0.00  0.00    +0.000 HD
ENDBRANCH   4  13
ENDBRANCH   1   8
BRANCH   1  17
ATOM     17  C   UNL     1      48.815   7.662  14.093  0.00  0.00    +0.000 A 
ATOM     18  C   UNL     1      50.145   8.078  13.911  0.00  0.00    +0.000 A 
ATOM     19  C   UNL     1      51.144   7.718  14.810  0.00  0.00    +0.000 A 
ATOM     20  C   UNL     1      50.831   6.940  15.918  0.00  0.00    +0.000 A 
ATOM     21  F   UNL     1      51.829   6.632  16.760  0.00  0.00    +0.000 F 
ATOM     22  C   UNL     1      49.521   6.496  16.167  0.00  0.00    +0.000 A 
ATOM     23  C   UNL     1      48.535   6.863  15.225  0.00  0.00    +0.000 A 
BRANCH  22  24
ATOM     24  C   UNL     1      49.185   5.703  17.376  0.00  0.00    +0.000 A 
ATOM     25  C   UNL     1      49.232   4.302  17.367  0.00  0.00    +0.000 A 
ATOM     26  C   UNL     1      48.895   3.593  18.510  0.00  0.00    +0.000 A 
ATOM     27  N   UNL     1      48.532   4.172  19.671  0.00  0.00    +0.000 NA
ATOM     28  C   UNL     1      48.495   5.519  19.679  0.00  0.00    +0.000 A 
ATOM     29  C   UNL     1      48.804   6.312  18.580  0.00  0.00    +0.000 A 
ENDBRANCH  22  24
ENDBRANCH   1  17
TORSDOF 4
ENDMDL
MODEL 6
REMARK VINA RESULT:    -6.206      3.649      6.484
REMARK INTER + INTRA:          -8.802
REMARK INTER:                  -7.604
REMARK INTRA:                  -1.199
REMARK UNBOUND:                -1.145
REMARK  Name = 
REMARK  4 active torsions:
REMARK  status: ('A' for Active; 'I' for Inactive)
REMARK    1  A    between atoms: C_2  and  C_4
REMARK    2  A    between atoms: N_8  and  C_9
REMARK    3  A    between atoms: C_9  and  C_10
REMARK    4  A    between atoms: C_15  and  C_16
REMARK                            x       y       z     vdW  Elec       q    Type
REMARK                         _______ _______ _______ _____ _____    ______ ____
ROOT
ATOM      1  C   UNL     1      48.988   8.353  12.453  0.00  0.00    +0.000 C 
ATOM      2  C   UNL     1      50.145   9.172  11.882  0.00  0.00    +0.000 C 
ATOM      3  C   UNL     1      50.138   7.688  11.724  0.00  0.00    +0.000 C 
ENDROOT
BRANCH   1   8
ATOM      4  C   UNL     1      44.370   6.123  11.602  0.00  0.00    +0.000 A 
ATOM      5  C   UNL     1      45.634   5.547  11.500  0.00  0.00    +0.000 A 
ATOM      6  C   UNL     1      46.767   6.358  11.610  0.00  0.00    +0.000 A 
ATOM      7  C   UNL     1      46.616   7.726  11.807  0.00  0.00    +0.000 A 
ATOM      8  N   UNL     1      47.687   8.622  11.818  0.00  0.00    +0.000 N 
ATOM      9  N   UNL     1      45.395   8.296  11.904  0.00  0.00    +0.000 NA
ATOM     10  C   UNL     1      44.305   7.493  11.796  0.00  0.00    +0.000 A 
ATOM     11  H   UNL     1      47.272   9.528  12.033  0.00  0.00    +0.000 HD
BRANCH   4  13
ATOM     12  N   UNL     1      41.948   6.008  11.756  0.00  0.00    +0.000 N 
ATOM     13  C   UNL     1      43.114   5.357  11.467  0.00  0.00    +0.000 C 
ATOM     14  O   UNL     1      43.112   4.194  11.088  0.00  0.00    +0.000 OA
ATOM     15  H   UNL     1      41.092   5.500  11.566  0.00  0.00    +0.000 HD
ATOM     16  H   UNL     1      41.885   7.014  11.831  0.00  0.00    +0.000 HD
ENDBRANCH   4  13
ENDBRANCH   1   8
BRANCH   1  17
ATOM     17  C   UNL     1      48.897   8.210  13.973  0.00  0.00    +0.000 A 
ATOM     18  C   UNL     1      48.709   9.334  14.794  0.00  0.00    +0.000 A 
ATOM     19  C   UNL     1      48.546   9.205  16.170  0.00  0.00    +0.000 A 
ATOM     20  C   UNL     1      48.558   7.944  16.753  0.00  0.00    +0.000 A 
ATOM     21  F   UNL     1      48.384   7.875  18.082  0.00  0.00    +0.000 F 
ATOM     22  C   UNL     1      48.733   6.775  15.992  0.00  0.00    +0.000 A 
ATOM     23  C   UNL     1      48.915   6.944  14.602  0.00  0.00    +0.000 A 
BRANCH  22  24
ATOM     24  C   UNL     1      48.700   5.428  16.615  0.00  0.00    +0.000 A 
ATOM     25  C   UNL     1      47.585   4.589  16.481  0.00  0.00    +0.000 A 
ATOM     26  C   UNL     1      47.582   3.343  17.090  0.00  0.00    +0.000 A 
ATOM     27  N   UNL     1      48.614   2.859  17.809  0.00  0.00    +0.000 NA
ATOM     28  C   UNL     1      49.686   3.664  17.930  0.00  0.00    +0.000 A 
ATOM     29  C   UNL     1      49.775   4.931  17.366  0.00  0.00    +0.000 A 
ENDBRANCH  22  24
ENDBRANCH   1  17
TORSDOF 4
ENDMDL
