MODEL 1
REMARK VINA RESULT:    -8.169      0.000      0.000
REMARK INTER + INTRA:         -10.725
REMARK INTER:                 -10.079
REMARK INTRA:                  -0.646
REMARK UNBOUND:                -0.646
REMARK  Name = 
REMARK  4 active torsions:
REMARK  status: ('A' for Active; 'I' for Inactive)
REMARK    1  A    between atoms: C_2  and  C_4
REMARK    2  A    between atoms: C_7  and  N_8
REMARK    3  A    between atoms: N_8  and  C_9
REMARK    4  A    between atoms: C_9  and  C_10
REMARK                            x       y       z     vdW  Elec       q    Type
REMARK                         _______ _______ _______ _____ _____    ______ ____
ROOT
ATOM      1  C   UNL     1      46.519   2.583   7.704  0.00  0.00    +0.000 A 
ATOM      2  C   UNL     1      45.695   1.904   8.588  0.00  0.00    +0.000 A 
ATOM      3  C   UNL     1      44.789   2.641   9.354  0.00  0.00    +0.000 A 
ATOM      4  C   UNL     1      44.707   4.028   9.209  0.00  0.00    +0.000 A 
ATOM      5  C   UNL     1      45.615   4.609   8.316  0.00  0.00    +0.000 A 
ATOM      6  N   UNL     1      46.508   3.936   7.551  0.00  0.00    +0.000 NA
ENDROOT
BRANCH   1   8
ATOM      7  N   UNL     1      48.588   2.527   6.439  0.00  0.00    +0.000 N 
ATOM      8  C   UNL     1      47.492   1.821   6.858  0.00  0.00    +0.000 C 
ATOM      9  O   UNL     1      47.330   0.644   6.556  0.00  0.00    +0.000 OA
ATOM     10  H   UNL     1      49.289   2.073   5.875  0.00  0.00    +0.000 HD
ATOM     11  H   UNL     1      48.694   3.495   6.724  0.00  0.00    +0.000 HD
ENDBRANCH   1   8
BRANCH   4  12
ATOM     12  N   UNL     1      43.837   4.832   9.976  0.00  0.00    +0.000 N 
ATOM     13  H   UNL     1      42.889   4.848   9.607  0.00  0.00    +0.000 HD
BRANCH  12  14
ATOM     14  C   UNL     1      43.935   4.908  11.455  0.00  0.00    +0.000 C 
ATOM     15  C   UNL     1      43.079   3.958  12.277  0.00  0.00    +0.000 C 
ATOM     16  C   UNL     1      42.706   5.401  12.216  0.00  0.00    +0.000 C 
BRANCH  14  17
ATOM     17  C   UNL     1      45.254   5.484  11.984  0.00  0.00    +0.000 A 
ATOM     18  C   UNL     1      45.949   4.838  13.026  0.00  0.00    +0.000 A 
ATOM     19  C   UNL     1      47.196   5.285  13.472  0.00  0.00    +0.000 A 
ATOM     20  C   UNL     1      47.788   6.396  12.879  0.00  0.00    +0.000 A 
ATOM     21  C   UNL     1      47.119   7.070  11.864  0.00  0.00    +0.000 A 
ATOM     22  C   UNL     1      45.865   6.625  11.433  0.00  0.00    +0.000 A 
ENDBRANCH  14  17
ENDBRANCH  12  14
ENDBRANCH   4  12
TORSDOF 4
ENDMDL
MODEL 2
REMARK VINA RESULT:    -7.684      0.748      0.911
REMARK INTER + INTRA:         -10.126
REMARK INTER:                  -9.613
REMARK INTRA:                  -0.513
REMARK UNBOUND:                -0.646
REMARK  Name = 
REMARK  4 active torsions:
REMARK  status: ('A' for Active; 'I' for Inactive)
REMARK    1  A    between atoms: C_2  and  C_4
REMARK    2  A    between atoms: C_7  and  N_8
REMARK    3  A    between atoms: N_8  and  C_9
REMARK    4  A    between atoms: C_9  and  C_10
REMARK                            x       y       z     vdW  Elec       q    Type
REMARK                         _______ _______ _______ _____ _____    ______ ____
ROOT
ATOM      1  C   UNL     1      46.599   2.813   7.625  0.00  0.00    +0.000 A 
ATOM      2  C   UNL     1      45.727   2.047   8.383  0.00  0.00    +0.000 A 
ATOM      3  C   UNL     1      44.764   2.702   9.154  0.00  0.00    +0.000 A 
ATOM      4  C   UNL     1      44.673   4.095   9.137  0.00  0.00    +0.000 A 
ATOM      5  C   UNL     1      45.629   4.766   8.366  0.00  0.00    +0.000 A 
ATOM      6  N   UNL     1      46.580   4.175   7.601  0.00  0.00    +0.000 NA
ENDROOT
BRANCH   1   8
ATOM      7  N   UNL     1      48.086   2.872   5.710  0.00  0.00    +0.000 N 
ATOM      8  C   UNL     1      47.635   2.142   6.777  0.00  0.00    +0.000 C 
ATOM      9  O   UNL     1      48.059   1.017   7.013  0.00  0.00    +0.000 OA
ATOM     10  H   UNL     1      48.792   2.487   5.103  0.00  0.00    +0.000 HD
ATOM     11  H   UNL     1      47.722   3.808   5.558  0.00  0.00    +0.000 HD
ENDBRANCH   1   8
BRANCH   4  12
ATOM     12  N   UNL     1      43.744   4.816   9.917  0.00  0.00    +0.000 N 
ATOM     13  H   UNL     1      42.782   4.662   9.625  0.00  0.00    +0.000 HD
BRANCH  12  14
ATOM     14  C   UNL     1      43.931   5.020  11.375  0.00  0.00    +0.000 C 
ATOM     15  C   UNL     1      43.550   3.882  12.309  0.00  0.00    +0.000 C 
ATOM     16  C   UNL     1      42.675   5.088  12.242  0.00  0.00    +0.000 C 
BRANCH  14  17
ATOM     17  C   UNL     1      44.991   6.063  11.750  0.00  0.00    +0.000 A 
ATOM     18  C   UNL     1      46.265   5.659  12.196  0.00  0.00    +0.000 A 
ATOM     19  C   UNL     1      47.282   6.580  12.461  0.00  0.00    +0.000 A 
ATOM     20  C   UNL     1      47.052   7.940  12.279  0.00  0.00    +0.000 A 
ATOM     21  C   UNL     1      45.799   8.374  11.862  0.00  0.00    +0.000 A 
ATOM     22  C   UNL     1      44.781   7.447  11.613  0.00  0.00    +0.000 A 
ENDBRANCH  14  17
ENDBRANCH  12  14
ENDBRANCH   4  12
TORSDOF 4
ENDMDL
MODEL 3
REMARK VINA RESULT:    -6.387      3.838      6.303
REMARK INTER + INTRA:          -8.527
REMARK INTER:                  -8.187
REMARK INTRA:                  -0.340
REMARK UNBOUND:                -0.646
REMARK  Name = 
REMARK  4 active torsions:
REMARK  status: ('A' for Active; 'I' for Inactive)
REMARK    1  A    between atoms: C_2  and  C_4
REMARK    2  A    between atoms: C_7  and  N_8
REMARK    3  A    between atoms: N_8  and  C_9
REMARK    4  A    between atoms: C_9  and  C_10
REMARK                            x       y       z     vdW  Elec       q    Type
REMARK                         _______ _______ _______ _____ _____    ______ ____
ROOT
ATOM      1  C   UNL     1      48.198   6.265  14.402  0.00  0.00    +0.000 A 
ATOM      2  C   UNL     1      47.740   6.687  13.164  0.00  0.00    +0.000 A 
ATOM      3  C   UNL     1      46.725   5.954  12.545  0.00  0.00    +0.000 A 
ATOM      4  C   UNL     1      46.175   4.837  13.176  0.00  0.00    +0.000 A 
ATOM      5  C   UNL     1      46.742   4.481  14.405  0.00  0.00    +0.000 A 
ATOM      6  N   UNL     1      47.724   5.162  15.046  0.00  0.00    +0.000 NA
ENDROOT
BRANCH   1   8
ATOM      7  N   UNL     1      50.379   7.326  14.342  0.00  0.00    +0.000 N 
ATOM      8  C   UNL     1      49.276   7.036  15.100  0.00  0.00    +0.000 C 
ATOM      9  O   UNL     1      49.188   7.390  16.270  0.00  0.00    +0.000 OA
ATOM     10  H   UNL     1      51.138   7.852  14.744  0.00  0.00    +0.000 HD
ATOM     11  H   UNL     1      50.406   7.029  13.371  0.00  0.00    +0.000 HD
ENDBRANCH   1   8
BRANCH   4  12
ATOM     12  N   UNL     1      45.171   4.037  12.589  0.00  0.00    +0.000 N 
ATOM     13  H   UNL     1      44.614   3.537  13.277  0.00  0.00    +0.000 HD
BRANCH  12  14
ATOM     14  C   UNL     1      44.430   4.469  11.377  0.00  0.00    +0.000 C 
ATOM     15  C   UNL     1      43.694   5.798  11.427  0.00  0.00    +0.000 C 
ATOM     16  C   UNL     1      42.907   4.532  11.470  0.00  0.00    +0.000 C 
BRANCH  14  17
ATOM     17  C   UNL     1      44.939   3.865  10.062  0.00  0.00    +0.000 A 
ATOM     18  C   UNL     1      45.499   4.691   9.067  0.00  0.00    +0.000 A 
ATOM     19  C   UNL     1      46.051   4.166   7.895  0.00  0.00    +0.000 A 
ATOM     20  C   UNL     1      46.064   2.790   7.690  0.00  0.00    +0.000 A 
ATOM     21  C   UNL     1      45.500   1.949   8.642  0.00  0.00    +0.000 A 
ATOM     22  C   UNL     1      44.935   2.483   9.805  0.00  0.00    +0.000 A 
ENDBRANCH  14  17
ENDBRANCH  12  14
ENDBRANCH   4  12
TORSDOF 4
ENDMDL
MODEL 4
REMARK VINA RESULT:    -5.974      3.405      6.212
REMARK INTER + INTRA:          -8.017
REMARK INTER:                  -8.674
REMARK INTRA:                   0.657
REMARK UNBOUND:                -0.646
REMARK  Name = 
REMARK  4 active torsions:
REMARK  status: ('A' for Active; 'I' for Inactive)
REMARK    1  A    between atoms: C_2  and  C_4
REMARK    2  A    between atoms: C_7  and  N_8
REMARK    3  A    between atoms: N_8  and  C_9
REMARK    4  A    between atoms: C_9  and  C_10
REMARK                            x       y       z     vdW  Elec       q    Type
REMARK                         _______ _______ _______ _____ _____    ______ ____
ROOT
ATOM      1  C   UNL     1      46.889   7.781  13.001  0.00  0.00    +0.000 A 
ATOM      2  C   UNL     1      45.626   8.300  12.765  0.00  0.00    +0.000 A 
ATOM      3  C   UNL     1      44.743   7.565  11.970  0.00  0.00    +0.000 A 
ATOM      4  C   UNL     1      45.124   6.327  11.449  0.00  0.00    +0.000 A 
ATOM      5  C   UNL     1      46.436   5.921  11.722  0.00  0.00    +0.000 A 
ATOM      6  N   UNL     1      47.327   6.597  12.488  0.00  0.00    +0.000 NA
ENDROOT
BRANCH   1   8
ATOM      7  N   UNL     1      47.325   9.099  14.991  0.00  0.00    +0.000 N 
ATOM      8  C   UNL     1      47.856   8.536  13.860  0.00  0.00    +0.000 C 
ATOM      9  O   UNL     1      49.044   8.650  13.582  0.00  0.00    +0.000 OA
ATOM     10  H   UNL     1      47.920   9.613  15.620  0.00  0.00    +0.000 HD
ATOM     11  H   UNL     1      46.339   8.969  15.194  0.00  0.00    +0.000 HD
ENDBRANCH   1   8
BRANCH   4  12
ATOM     12  N   UNL     1      44.291   5.553  10.615  0.00  0.00    +0.000 N 
ATOM     13  H   UNL     1      44.115   5.994   9.715  0.00  0.00    +0.000 HD
BRANCH  12  14
ATOM     14  C   UNL     1      44.371   4.071  10.581  0.00  0.00    +0.000 C 
ATOM     15  C   UNL     1      43.306   3.281  11.324  0.00  0.00    +0.000 C 
ATOM     16  C   UNL     1      44.683   3.354  11.893  0.00  0.00    +0.000 C 
BRANCH  14  17
ATOM     17  C   UNL     1      45.121   3.493   9.374  0.00  0.00    +0.000 A 
ATOM     18  C   UNL     1      45.713   4.350   8.424  0.00  0.00    +0.000 A 
ATOM     19  C   UNL     1      46.479   3.860   7.363  0.00  0.00    +0.000 A 
ATOM     20  C   UNL     1      46.679   2.490   7.225  0.00  0.00    +0.000 A 
ATOM     21  C   UNL     1      46.090   1.616   8.132  0.00  0.00    +0.000 A 
ATOM     22  C   UNL     1      45.313   2.113   9.183  0.00  0.00    +0.000 A 
ENDBRANCH  14  17
ENDBRANCH  12  14
ENDBRANCH   4  12
TORSDOF 4
ENDMDL
MODEL 5
REMARK VINA RESULT:    -5.658      3.161      5.337
REMARK INTER + INTRA:          -7.627
REMARK INTER:                  -7.108
REMARK INTRA:                  -0.519
REMARK UNBOUND:                -0.646
REMARK  Name = 
REMARK  4 active torsions:
REMARK  status: ('A' for Active; 'I' for Inactive)
REMARK    1  A    between atoms: C_2  and  C_4
REMARK    2  A    between atoms: C_7  and  N_8
REMARK    3  A    between atoms: N_8  and  C_9
REMARK    4  A    between atoms: C_9  and  C_10
REMARK                            x       y       z     vdW  Elec       q    Type
REMARK                         _______ _______ _______ _____ _____    ______ ____
ROOT
ATOM      1  C   UNL     1      44.778   4.200  11.619  0.00  0.00    +0.000 A 
ATOM      2  C   UNL     1      44.864   5.387  10.908  0.00  0.00    +0.000 A 
ATOM      3  C   UNL     1      45.414   6.504  11.542  0.00  0.00    +0.000 A 
ATOM      4  C   UNL     1      45.885   6.411  12.853  0.00  0.00    +0.000 A 
ATOM      5  C   UNL     1      45.712   5.174  13.485  0.00  0.00    +0.000 A 
ATOM      6  N   UNL     1      45.187   4.063  12.911  0.00  0.00    +0.000 NA
ENDROOT
BRANCH   1   8
ATOM      7  N   UNL     1      44.982   2.418   9.986  0.00  0.00    +0.000 N 
ATOM      8  C   UNL     1      44.206   2.980  10.964  0.00  0.00    +0.000 C 
ATOM      9  O   UNL     1      43.119   2.507  11.276  0.00  0.00    +0.000 OA
ATOM     10  H   UNL     1      44.664   1.589   9.510  0.00  0.00    +0.000 HD
ATOM     11  H   UNL     1      45.883   2.830   9.768  0.00  0.00    +0.000 HD
ENDBRANCH   1   8
BRANCH   4  12
ATOM     12  N   UNL     1      46.422   7.509  13.559  0.00  0.00    +0.000 N 
ATOM     13  H   UNL     1      46.121   7.538  14.530  0.00  0.00    +0.000 HD
BRANCH  12  14
ATOM     14  C   UNL     1      47.800   8.003  13.314  0.00  0.00    +0.000 C 
ATOM     15  C   UNL     1      48.952   7.033  13.520  0.00  0.00    +0.000 C 
ATOM     16  C   UNL     1      48.730   8.117  14.521  0.00  0.00    +0.000 C 
BRANCH  14  17
ATOM     17  C   UNL     1      47.897   9.193  12.352  0.00  0.00    +0.000 A 
ATOM     18  C   UNL     1      46.791  10.045  12.155  0.00  0.00    +0.000 A 
ATOM     19  C   UNL     1      46.872  11.188  11.355  0.00  0.00    +0.000 A 
ATOM     20  C   UNL     1      48.071  11.515  10.730  0.00  0.00    +0.000 A 
ATOM     21  C   UNL     1      49.174  10.684  10.885  0.00  0.00    +0.000 A 
ATOM     22  C   UNL     1      49.082   9.533  11.675  0.00  0.00    +0.000 A 
ENDBRANCH  14  17
ENDBRANCH  12  14
ENDBRANCH   4  12
TORSDOF 4
ENDMDL
