MODEL 1
REMARK VINA RESULT:    -8.592      0.000      0.000
REMARK INTER + INTRA:         -13.079
REMARK INTER:                 -12.108
REMARK INTRA:                  -0.971
REMARK UNBOUND:                -0.971
REMARK  Name = 
REMARK  8 active torsions:
REMARK  status: ('A' for Active; 'I' for Inactive)
REMARK    1  A    between atoms: C_1  and  N_2
REMARK    2  A    between atoms: N_2  and  C_3
REMARK    3  A    between atoms: C_3  and  C_4
REMARK    4  A    between atoms: C_4  and  N_5
REMARK    5  A    between atoms: C_4  and  C_18
REMARK    6  A    between atoms: C_6  and  C_8
REMARK    7  A    between atoms: C_21  and  C_22
REMARK    8  A    between atoms: C_22  and  C_23
REMARK                            x       y       z     vdW  Elec       q    Type
REMARK                         _______ _______ _______ _____ _____    ______ ____
ROOT
ATOM      1  C   UNL     1      46.516   7.533  12.742  0.00  0.00    +0.000 C 
ENDROOT
BRANCH   1   2
ATOM      2  C   UNL     1      46.035   6.357  11.903  0.00  0.00    +0.000 A 
ATOM      3  C   UNL     1      46.185   6.410  10.509  0.00  0.00    +0.000 A 
ATOM      4  C   UNL     1      45.724   5.372   9.700  0.00  0.00    +0.000 A 
ATOM      5  C   UNL     1      45.117   4.241  10.263  0.00  0.00    +0.000 A 
ATOM      6  C   UNL     1      44.966   4.182  11.652  0.00  0.00    +0.000 A 
ATOM      7  C   UNL     1      45.403   5.237  12.461  0.00  0.00    +0.000 A 
BRANCH   5   8
ATOM      8  C   UNL     1      44.621   3.113   9.388  0.00  0.00    +0.000 C 
BRANCH   8   9
ATOM      9  C   UNL     1      45.601   2.594   8.359  0.00  0.00    +0.000 A 
ATOM     10  C   UNL     1      45.905   3.332   7.214  0.00  0.00    +0.000 A 
ATOM     11  C   UNL     1      46.710   2.762   6.231  0.00  0.00    +0.000 A 
ATOM     12  C   UNL     1      47.192   1.475   6.409  0.00  0.00    +0.000 A 
ATOM     13  C   UNL     1      46.862   0.812   7.578  0.00  0.00    +0.000 A 
ATOM     14  N   UNL     1      46.080   1.337   8.549  0.00  0.00    +0.000 NA
ENDBRANCH   8   9
ENDBRANCH   5   8
ENDBRANCH   1   2
BRANCH   1  15
ATOM     15  N   UNL     1      47.024   7.108  14.044  0.00  0.00    +0.000 N 
ATOM     16  C   UNL     1      48.332   6.741  14.222  0.00  0.00    +0.000 C 
ATOM     17  O   UNL     1      49.169   6.821  13.327  0.00  0.00    +0.000 OA
ATOM     18  H   UNL     1      46.338   6.867  14.749  0.00  0.00    +0.000 HD
BRANCH  16  19
ATOM     19  C   UNL     1      48.713   6.287  15.567  0.00  0.00    +0.000 A 
ATOM     20  C   UNL     1      49.678   6.993  16.273  0.00  0.00    +0.000 A 
ATOM     21  S   UNL     1      50.042   6.324  17.797  0.00  0.00    +0.000 S 
ATOM     22  C   UNL     1      48.950   5.043  17.554  0.00  0.00    +0.000 A 
ATOM     23  N   UNL     1      48.819   4.054  18.479  0.00  0.00    +0.000 NA
ATOM     24  C   UNL     1      47.989   3.124  18.150  0.00  0.00    +0.000 A 
ATOM     25  N   UNL     1      47.256   3.104  16.990  0.00  0.00    +0.000 N 
ATOM     26  C   UNL     1      47.290   4.128  16.073  0.00  0.00    +0.000 A 
ATOM     27  O   UNL     1      46.505   4.164  15.130  0.00  0.00    +0.000 OA
ATOM     28  C   UNL     1      48.274   5.157  16.353  0.00  0.00    +0.000 A 
ATOM     29  H   UNL     1      46.587   2.368  16.818  0.00  0.00    +0.000 HD
ENDBRANCH  16  19
ENDBRANCH   1  15
BRANCH   1  30
ATOM     30  C   UNL     1      45.385   8.588  12.893  0.00  0.00    +0.000 C 
BRANCH  30  32
ATOM     31  C   UNL     1      47.210   9.947  12.071  0.00  0.00    +0.000 C 
ATOM     32  N   UNL     1      45.791   9.912  12.386  0.00  0.00    +0.000 NA
ATOM     33  H   UNL     1      45.235  10.134  11.559  0.00  0.00    +0.000 HD
ENDBRANCH  30  32
ENDBRANCH   1  30
TORSDOF 7
ENDMDL
MODEL 2
REMARK VINA RESULT:    -7.938      2.596      4.306
REMARK INTER + INTRA:         -12.157
REMARK INTER:                 -10.684
REMARK INTRA:                  -1.474
REMARK UNBOUND:                -0.971
REMARK  Name = 
REMARK  8 active torsions:
REMARK  status: ('A' for Active; 'I' for Inactive)
REMARK    1  A    between atoms: C_1  and  N_2
REMARK    2  A    between atoms: N_2  and  C_3
REMARK    3  A    between atoms: C_3  and  C_4
REMARK    4  A    between atoms: C_4  and  N_5
REMARK    5  A    between atoms: C_4  and  C_18
REMARK    6  A    between atoms: C_6  and  C_8
REMARK    7  A    between atoms: C_21  and  C_22
REMARK    8  A    between atoms: C_22  and  C_23
REMARK                            x       y       z     vdW  Elec       q    Type
REMARK                         _______ _______ _______ _____ _____    ______ ____
ROOT
ATOM      1  C   UNL     1      46.453   5.735  13.703  0.00  0.00    +0.000 C 
ENDROOT
BRANCH   1   2
ATOM      2  C   UNL     1      45.941   5.177  12.382  0.00  0.00    +0.000 A 
ATOM      3  C   UNL     1      45.398   3.884  12.357  0.00  0.00    +0.000 A 
ATOM      4  C   UNL     1      44.952   3.319  11.161  0.00  0.00    +0.000 A 
ATOM      5  C   UNL     1      45.020   4.038   9.961  0.00  0.00    +0.000 A 
ATOM      6  C   UNL     1      45.560   5.328   9.981  0.00  0.00    +0.000 A 
ATOM      7  C   UNL     1      46.032   5.883  11.175  0.00  0.00    +0.000 A 
BRANCH   5   8
ATOM      8  C   UNL     1      44.533   3.429   8.666  0.00  0.00    +0.000 C 
BRANCH   8   9
ATOM      9  C   UNL     1      45.599   2.836   7.771  0.00  0.00    +0.000 A 
ATOM     10  C   UNL     1      46.203   1.616   8.078  0.00  0.00    +0.000 A 
ATOM     11  C   UNL     1      47.269   1.171   7.301  0.00  0.00    +0.000 A 
ATOM     12  C   UNL     1      47.706   1.947   6.238  0.00  0.00    +0.000 A 
ATOM     13  C   UNL     1      47.045   3.135   5.985  0.00  0.00    +0.000 A 
ATOM     14  N   UNL     1      46.011   3.596   6.724  0.00  0.00    +0.000 NA
ENDBRANCH   8   9
ENDBRANCH   5   8
ENDBRANCH   1   2
BRANCH   1  15
ATOM     15  N   UNL     1      47.641   6.567  13.523  0.00  0.00    +0.000 N 
ATOM     16  C   UNL     1      47.563   7.934  13.481  0.00  0.00    +0.000 C 
ATOM     17  O   UNL     1      46.514   8.544  13.669  0.00  0.00    +0.000 OA
ATOM     18  H   UNL     1      48.481   6.105  13.198  0.00  0.00    +0.000 HD
BRANCH  16  19
ATOM     19  C   UNL     1      48.820   8.660  13.249  0.00  0.00    +0.000 A 
ATOM     20  C   UNL     1      48.833   9.727  12.360  0.00  0.00    +0.000 A 
ATOM     21  S   UNL     1      50.367  10.442  12.165  0.00  0.00    +0.000 S 
ATOM     22  C   UNL     1      51.080   9.326  13.233  0.00  0.00    +0.000 A 
ATOM     23  N   UNL     1      52.420   9.345  13.468  0.00  0.00    +0.000 NA
ATOM     24  C   UNL     1      52.835   8.420  14.264  0.00  0.00    +0.000 A 
ATOM     25  N   UNL     1      52.027   7.490  14.870  0.00  0.00    +0.000 N 
ATOM     26  C   UNL     1      50.659   7.493  14.732  0.00  0.00    +0.000 A 
ATOM     27  O   UNL     1      49.949   6.757  15.411  0.00  0.00    +0.000 OA
ATOM     28  C   UNL     1      50.150   8.459  13.777  0.00  0.00    +0.000 A 
ATOM     29  H   UNL     1      52.412   6.822  15.521  0.00  0.00    +0.000 HD
ENDBRANCH  16  19
ENDBRANCH   1  15
BRANCH   1  30
ATOM     30  C   UNL     1      46.716   4.584  14.712  0.00  0.00    +0.000 C 
BRANCH  30  32
ATOM     31  C   UNL     1      47.596   4.094  16.912  0.00  0.00    +0.000 C 
ATOM     32  N   UNL     1      47.685   4.969  15.754  0.00  0.00    +0.000 NA
ATOM     33  H   UNL     1      48.625   4.942  15.357  0.00  0.00    +0.000 HD
ENDBRANCH  30  32
ENDBRANCH   1  30
TORSDOF 7
ENDMDL
MODEL 3
REMARK VINA RESULT:    -7.497      2.608      4.659
REMARK INTER + INTRA:         -11.536
REMARK INTER:                  -9.994
REMARK INTRA:                  -1.542
REMARK UNBOUND:                -0.971
REMARK  Name = 
REMARK  8 active torsions:
REMARK  status: ('A' for Active; 'I' for Inactive)
REMARK    1  A    between atoms: C_1  and  N_2
REMARK    2  A    between atoms: N_2  and  C_3
REMARK    3  A    between atoms: C_3  and  C_4
REMARK    4  A    between atoms: C_4  and  N_5
REMARK    5  A    between atoms: C_4  and  C_18
REMARK    6  A    between atoms: C_6  and  C_8
REMARK    7  A    between atoms: C_21  and  C_22
REMARK    8  A    between atoms: C_22  and  C_23
REMARK                            x       y       z     vdW  Elec       q    Type
REMARK                         _______ _______ _______ _____ _____    ______ ____
ROOT
ATOM      1  C   UNL     1      47.230   5.655  14.478  0.00  0.00    +0.000 C 
ENDROOT
BRANCH   1   2
ATOM      2  C   UNL     1      46.515   5.168  13.225  0.00  0.00    +0.000 A 
ATOM      3  C   UNL     1      46.382   6.043  12.137  0.00  0.00    +0.000 A 
ATOM      4  C   UNL     1      45.700   5.651  10.984  0.00  0.00    +0.000 A 
ATOM      5  C   UNL     1      45.149   4.366  10.880  0.00  0.00    +0.000 A 
ATOM      6  C   UNL     1      45.281   3.490  11.961  0.00  0.00    +0.000 A 
ATOM      7  C   UNL     1      45.940   3.893  13.128  0.00  0.00    +0.000 A 
BRANCH   5   8
ATOM      8  C   UNL     1      44.415   3.939   9.629  0.00  0.00    +0.000 C 
BRANCH   8   9
ATOM      9  C   UNL     1      45.247   3.232   8.582  0.00  0.00    +0.000 A 
ATOM     10  C   UNL     1      45.584   1.885   8.717  0.00  0.00    +0.000 A 
ATOM     11  C   UNL     1      46.458   1.308   7.799  0.00  0.00    +0.000 A 
ATOM     12  C   UNL     1      46.974   2.083   6.771  0.00  0.00    +0.000 A 
ATOM     13  C   UNL     1      46.579   3.406   6.693  0.00  0.00    +0.000 A 
ATOM     14  N   UNL     1      45.736   3.996   7.571  0.00  0.00    +0.000 NA
ENDBRANCH   8   9
ENDBRANCH   5   8
ENDBRANCH   1   2
BRANCH   1  15
ATOM     15  N   UNL     1      48.550   6.205  14.178  0.00  0.00    +0.000 N 
ATOM     16  C   UNL     1      49.084   7.235  14.908  0.00  0.00    +0.000 C 
ATOM     17  O   UNL     1      48.528   7.702  15.898  0.00  0.00    +0.000 OA
ATOM     18  H   UNL     1      48.955   5.967  13.281  0.00  0.00    +0.000 HD
BRANCH  16  19
ATOM     19  C   UNL     1      50.399   7.734  14.481  0.00  0.00    +0.000 A 
ATOM     20  C   UNL     1      51.478   7.631  15.350  0.00  0.00    +0.000 A 
ATOM     21  S   UNL     1      52.924   8.286  14.732  0.00  0.00    +0.000 S 
ATOM     22  C   UNL     1      52.152   8.768  13.294  0.00  0.00    +0.000 A 
ATOM     23  N   UNL     1      52.830   9.458  12.337  0.00  0.00    +0.000 NA
ATOM     24  C   UNL     1      52.116   9.797  11.319  0.00  0.00    +0.000 A 
ATOM     25  N   UNL     1      50.789   9.486  11.156  0.00  0.00    +0.000 N 
ATOM     26  C   UNL     1      50.092   8.713  12.055  0.00  0.00    +0.000 A 
ATOM     27  O   UNL     1      48.958   8.313  11.805  0.00  0.00    +0.000 OA
ATOM     28  C   UNL     1      50.825   8.380  13.261  0.00  0.00    +0.000 A 
ATOM     29  H   UNL     1      50.302   9.742  10.310  0.00  0.00    +0.000 HD
ENDBRANCH  16  19
ENDBRANCH   1  15
BRANCH   1  30
ATOM     30  C   UNL     1      47.318   4.513  15.529  0.00  0.00    +0.000 C 
BRANCH  30  32
ATOM     31  C   UNL     1      48.421   4.628  17.679  0.00  0.00    +0.000 C 
ATOM     32  N   UNL     1      47.252   5.024  16.910  0.00  0.00    +0.000 NA
ATOM     33  H   UNL     1      47.171   6.041  16.883  0.00  0.00    +0.000 HD
ENDBRANCH  30  32
ENDBRANCH   1  30
TORSDOF 7
ENDMDL
MODEL 4
REMARK VINA RESULT:    -7.318      1.391      1.696
REMARK INTER + INTRA:         -11.284
REMARK INTER:                 -10.187
REMARK INTRA:                  -1.097
REMARK UNBOUND:                -0.971
REMARK  Name = 
REMARK  8 active torsions:
REMARK  status: ('A' for Active; 'I' for Inactive)
REMARK    1  A    between atoms: C_1  and  N_2
REMARK    2  A    between atoms: N_2  and  C_3
REMARK    3  A    between atoms: C_3  and  C_4
REMARK    4  A    between atoms: C_4  and  N_5
REMARK    5  A    between atoms: C_4  and  C_18
REMARK    6  A    between atoms: C_6  and  C_8
REMARK    7  A    between atoms: C_21  and  C_22
REMARK    8  A    between atoms: C_22  and  C_23
REMARK                            x       y       z     vdW  Elec       q    Type
REMARK                         _______ _______ _______ _____ _____    ______ ____
ROOT
ATOM      1  C   UNL     1      47.740   7.740  13.490  0.00  0.00    +0.000 C 
ENDROOT
BRANCH   1   2
ATOM      2  C   UNL     1      46.902   6.776  12.660  0.00  0.00    +0.000 A 
ATOM      3  C   UNL     1      46.490   7.167  11.378  0.00  0.00    +0.000 A 
ATOM      4  C   UNL     1      45.689   6.331  10.598  0.00  0.00    +0.000 A 
ATOM      5  C   UNL     1      45.294   5.073  11.073  0.00  0.00    +0.000 A 
ATOM      6  C   UNL     1      45.704   4.678  12.350  0.00  0.00    +0.000 A 
ATOM      7  C   UNL     1      46.483   5.528  13.142  0.00  0.00    +0.000 A 
BRANCH   5   8
ATOM      8  C   UNL     1      44.431   4.164  10.228  0.00  0.00    +0.000 C 
BRANCH   8   9
ATOM      9  C   UNL     1      45.138   3.430   9.110  0.00  0.00    +0.000 A 
ATOM     10  C   UNL     1      45.365   2.055   9.181  0.00  0.00    +0.000 A 
ATOM     11  C   UNL     1      46.133   1.441   8.195  0.00  0.00    +0.000 A 
ATOM     12  C   UNL     1      46.655   2.207   7.164  0.00  0.00    +0.000 A 
ATOM     13  C   UNL     1      46.372   3.561   7.152  0.00  0.00    +0.000 A 
ATOM     14  N   UNL     1      45.633   4.187   8.097  0.00  0.00    +0.000 NA
ENDBRANCH   8   9
ENDBRANCH   5   8
ENDBRANCH   1   2
BRANCH   1  15
ATOM     15  N   UNL     1      47.834   7.323  14.887  0.00  0.00    +0.000 N 
ATOM     16  C   UNL     1      49.019   6.912  15.439  0.00  0.00    +0.000 C 
ATOM     17  O   UNL     1      50.081   6.944  14.823  0.00  0.00    +0.000 OA
ATOM     18  H   UNL     1      46.964   7.121  15.366  0.00  0.00    +0.000 HD
BRANCH  16  19
ATOM     19  C   UNL     1      48.977   6.472  16.841  0.00  0.00    +0.000 A 
ATOM     20  C   UNL     1      49.331   7.366  17.842  0.00  0.00    +0.000 A 
ATOM     21  S   UNL     1      49.272   6.701  19.410  0.00  0.00    +0.000 S 
ATOM     22  C   UNL     1      48.809   5.181  18.804  0.00  0.00    +0.000 A 
ATOM     23  N   UNL     1      48.646   4.118  19.638  0.00  0.00    +0.000 NA
ATOM     24  C   UNL     1      48.335   3.017  19.043  0.00  0.00    +0.000 A 
ATOM     25  N   UNL     1      48.145   2.886  17.691  0.00  0.00    +0.000 N 
ATOM     26  C   UNL     1      48.209   3.952  16.825  0.00  0.00    +0.000 A 
ATOM     27  O   UNL     1      47.874   3.839  15.649  0.00  0.00    +0.000 OA
ATOM     28  C   UNL     1      48.642   5.197  17.431  0.00  0.00    +0.000 A 
ATOM     29  H   UNL     1      47.855   2.003  17.297  0.00  0.00    +0.000 HD
ENDBRANCH  16  19
ENDBRANCH   1  15
BRANCH   1  30
ATOM     30  C   UNL     1      47.184   9.185  13.367  0.00  0.00    +0.000 C 
BRANCH  30  32
ATOM     31  C   UNL     1      49.400  10.142  13.208  0.00  0.00    +0.000 C 
ATOM     32  N   UNL     1      48.123  10.188  13.902  0.00  0.00    +0.000 NA
ATOM     33  H   UNL     1      47.703  11.114  13.815  0.00  0.00    +0.000 HD
ENDBRANCH  30  32
ENDBRANCH   1  30
TORSDOF 7
ENDMDL
MODEL 5
REMARK VINA RESULT:    -7.113      3.172      7.792
REMARK INTER + INTRA:         -10.995
REMARK INTER:                  -9.458
REMARK INTRA:                  -1.537
REMARK UNBOUND:                -0.971
REMARK  Name = 
REMARK  8 active torsions:
REMARK  status: ('A' for Active; 'I' for Inactive)
REMARK    1  A    between atoms: C_1  and  N_2
REMARK    2  A    between atoms: N_2  and  C_3
REMARK    3  A    between atoms: C_3  and  C_4
REMARK    4  A    between atoms: C_4  and  N_5
REMARK    5  A    between atoms: C_4  and  C_18
REMARK    6  A    between atoms: C_6  and  C_8
REMARK    7  A    between atoms: C_21  and  C_22
REMARK    8  A    between atoms: C_22  and  C_23
REMARK                            x       y       z     vdW  Elec       q    Type
REMARK                         _______ _______ _______ _____ _____    ______ ____
ROOT
ATOM      1  C   UNL     1      47.951   7.272  13.294  0.00  0.00    +0.000 C 
ENDROOT
BRANCH   1   2
ATOM      2  C   UNL     1      48.543   6.657  14.555  0.00  0.00    +0.000 A 
ATOM      3  C   UNL     1      47.847   5.622  15.196  0.00  0.00    +0.000 A 
ATOM      4  C   UNL     1      48.333   5.056  16.376  0.00  0.00    +0.000 A 
ATOM      5  C   UNL     1      49.540   5.497  16.935  0.00  0.00    +0.000 A 
ATOM      6  C   UNL     1      50.239   6.527  16.299  0.00  0.00    +0.000 A 
ATOM      7  C   UNL     1      49.736   7.114  15.133  0.00  0.00    +0.000 A 
BRANCH   5   8
ATOM      8  C   UNL     1      50.071   4.881  18.210  0.00  0.00    +0.000 C 
BRANCH   8   9
ATOM      9  C   UNL     1      51.045   3.736  18.037  0.00  0.00    +0.000 A 
ATOM     10  C   UNL     1      50.655   2.542  17.430  0.00  0.00    +0.000 A 
ATOM     11  C   UNL     1      51.543   1.469  17.408  0.00  0.00    +0.000 A 
ATOM     12  C   UNL     1      52.794   1.611  17.988  0.00  0.00    +0.000 A 
ATOM     13  C   UNL     1      53.115   2.831  18.554  0.00  0.00    +0.000 A 
ATOM     14  N   UNL     1      52.274   3.889  18.595  0.00  0.00    +0.000 NA
ENDBRANCH   8   9
ENDBRANCH   5   8
ENDBRANCH   1   2
BRANCH   1  15
ATOM     15  N   UNL     1      47.317   6.271  12.440  0.00  0.00    +0.000 N 
ATOM     16  C   UNL     1      46.216   6.566  11.679  0.00  0.00    +0.000 C 
ATOM     17  O   UNL     1      45.746   7.698  11.607  0.00  0.00    +0.000 OA
ATOM     18  H   UNL     1      47.566   5.303  12.603  0.00  0.00    +0.000 HD
BRANCH  16  19
ATOM     19  C   UNL     1      45.639   5.463  10.897  0.00  0.00    +0.000 A 
ATOM     20  C   UNL     1      45.708   5.507   9.511  0.00  0.00    +0.000 A 
ATOM     21  S   UNL     1      44.963   4.182   8.743  0.00  0.00    +0.000 S 
ATOM     22  C   UNL     1      44.486   3.519  10.235  0.00  0.00    +0.000 A 
ATOM     23  N   UNL     1      43.738   2.383  10.285  0.00  0.00    +0.000 NA
ATOM     24  C   UNL     1      43.411   2.013  11.477  0.00  0.00    +0.000 A 
ATOM     25  N   UNL     1      43.786   2.662  12.627  0.00  0.00    +0.000 N 
ATOM     26  C   UNL     1      44.617   3.758  12.624  0.00  0.00    +0.000 A 
ATOM     27  O   UNL     1      45.068   4.216  13.670  0.00  0.00    +0.000 OA
ATOM     28  C   UNL     1      44.941   4.266  11.305  0.00  0.00    +0.000 A 
ATOM     29  H   UNL     1      43.534   2.290  13.531  0.00  0.00    +0.000 HD
ENDBRANCH  16  19
ENDBRANCH   1  15
BRANCH   1  30
ATOM     30  C   UNL     1      49.037   8.070  12.520  0.00  0.00    +0.000 C 
BRANCH  30  32
ATOM     31  C   UNL     1      47.931  10.196  12.851  0.00  0.00    +0.000 C 
ATOM     32  N   UNL     1      48.485   9.273  11.872  0.00  0.00    +0.000 NA
ATOM     33  H   UNL     1      49.223   9.727  11.332  0.00  0.00    +0.000 HD
ENDBRANCH  30  32
ENDBRANCH   1  30
TORSDOF 7
ENDMDL
MODEL 6
REMARK VINA RESULT:    -7.111      2.918      3.905
REMARK INTER + INTRA:         -10.992
REMARK INTER:                  -9.733
REMARK INTRA:                  -1.259
REMARK UNBOUND:                -0.971
REMARK  Name = 
REMARK  8 active torsions:
REMARK  status: ('A' for Active; 'I' for Inactive)
REMARK    1  A    between atoms: C_1  and  N_2
REMARK    2  A    between atoms: N_2  and  C_3
REMARK    3  A    between atoms: C_3  and  C_4
REMARK    4  A    between atoms: C_4  and  N_5
REMARK    5  A    between atoms: C_4  and  C_18
REMARK    6  A    between atoms: C_6  and  C_8
REMARK    7  A    between atoms: C_21  and  C_22
REMARK    8  A    between atoms: C_22  and  C_23
REMARK                            x       y       z     vdW  Elec       q    Type
REMARK                         _______ _______ _______ _____ _____    ______ ____
ROOT
ATOM      1  C   UNL     1      48.987   6.840  14.274  0.00  0.00    +0.000 C 
ENDROOT
BRANCH   1   2
ATOM      2  C   UNL     1      47.858   6.348  13.378  0.00  0.00    +0.000 A 
ATOM      3  C   UNL     1      47.620   7.006  12.163  0.00  0.00    +0.000 A 
ATOM      4  C   UNL     1      46.572   6.614  11.330  0.00  0.00    +0.000 A 
ATOM      5  C   UNL     1      45.744   5.538  11.681  0.00  0.00    +0.000 A 
ATOM      6  C   UNL     1      45.978   4.878  12.890  0.00  0.00    +0.000 A 
ATOM      7  C   UNL     1      47.011   5.291  13.739  0.00  0.00    +0.000 A 
BRANCH   5   8
ATOM      8  C   UNL     1      44.612   5.109  10.776  0.00  0.00    +0.000 C 
BRANCH   8   9
ATOM      9  C   UNL     1      44.972   4.123   9.686  0.00  0.00    +0.000 A 
ATOM     10  C   UNL     1      44.746   2.755   9.847  0.00  0.00    +0.000 A 
ATOM     11  C   UNL     1      45.211   1.871   8.877  0.00  0.00    +0.000 A 
ATOM     12  C   UNL     1      45.886   2.368   7.772  0.00  0.00    +0.000 A 
ATOM     13  C   UNL     1      46.055   3.737   7.674  0.00  0.00    +0.000 A 
ATOM     14  N   UNL     1      45.620   4.620   8.601  0.00  0.00    +0.000 NA
ENDBRANCH   8   9
ENDBRANCH   5   8
ENDBRANCH   1   2
BRANCH   1  15
ATOM     15  N   UNL     1      48.537   7.079  15.644  0.00  0.00    +0.000 N 
ATOM     16  C   UNL     1      49.089   6.417  16.709  0.00  0.00    +0.000 C 
ATOM     17  O   UNL     1      50.040   5.649  16.590  0.00  0.00    +0.000 OA
ATOM     18  H   UNL     1      47.656   7.565  15.760  0.00  0.00    +0.000 HD
BRANCH  16  19
ATOM     19  C   UNL     1      48.520   6.708  18.033  0.00  0.00    +0.000 A 
ATOM     20  C   UNL     1      48.207   5.654  18.882  0.00  0.00    +0.000 A 
ATOM     21  S   UNL     1      47.521   6.144  20.362  0.00  0.00    +0.000 S 
ATOM     22  C   UNL     1      47.580   7.782  19.907  0.00  0.00    +0.000 A 
ATOM     23  N   UNL     1      47.078   8.750  20.720  0.00  0.00    +0.000 NA
ATOM     24  C   UNL     1      47.150   9.943  20.236  0.00  0.00    +0.000 A 
ATOM     25  N   UNL     1      47.703  10.262  19.021  0.00  0.00    +0.000 N 
ATOM     26  C   UNL     1      48.304   9.327  18.211  0.00  0.00    +0.000 A 
ATOM     27  O   UNL     1      48.933   9.661  17.212  0.00  0.00    +0.000 OA
ATOM     28  C   UNL     1      48.172   7.957  18.669  0.00  0.00    +0.000 A 
ATOM     29  H   UNL     1      47.770  11.224  18.724  0.00  0.00    +0.000 HD
ENDBRANCH  16  19
ENDBRANCH   1  15
BRANCH   1  30
ATOM     30  C   UNL     1      49.648   8.108  13.666  0.00  0.00    +0.000 C 
BRANCH  30  32
ATOM     31  C   UNL     1      51.710   8.561  12.486  0.00  0.00    +0.000 C 
ATOM     32  N   UNL     1      51.120   8.042  13.710  0.00  0.00    +0.000 NA
ATOM     33  H   UNL     1      51.451   8.570  14.518  0.00  0.00    +0.000 HD
ENDBRANCH  30  32
ENDBRANCH   1  30
TORSDOF 7
ENDMDL
MODEL 7
REMARK VINA RESULT:    -6.802      3.625      5.442
REMARK INTER + INTRA:         -10.556
REMARK INTER:                  -9.139
REMARK INTRA:                  -1.418
REMARK UNBOUND:                -0.971
REMARK  Name = 
REMARK  8 active torsions:
REMARK  status: ('A' for Active; 'I' for Inactive)
REMARK    1  A    between atoms: C_1  and  N_2
REMARK    2  A    between atoms: N_2  and  C_3
REMARK    3  A    between atoms: C_3  and  C_4
REMARK    4  A    between atoms: C_4  and  N_5
REMARK    5  A    between atoms: C_4  and  C_18
REMARK    6  A    between atoms: C_6  and  C_8
REMARK    7  A    between atoms: C_21  and  C_22
REMARK    8  A    between atoms: C_22  and  C_23
REMARK                            x       y       z     vdW  Elec       q    Type
REMARK                         _______ _______ _______ _____ _____    ______ ____
ROOT
ATOM      1  C   UNL     1      48.903   6.167  17.451  0.00  0.00    +0.000 C 
ENDROOT
BRANCH   1   2
ATOM      2  C   UNL     1      48.212   5.545  16.245  0.00  0.00    +0.000 A 
ATOM      3  C   UNL     1      47.668   4.258  16.362  0.00  0.00    +0.000 A 
ATOM      4  C   UNL     1      47.060   3.636  15.271  0.00  0.00    +0.000 A 
ATOM      5  C   UNL     1      46.962   4.292  14.037  0.00  0.00    +0.000 A 
ATOM      6  C   UNL     1      47.501   5.577  13.914  0.00  0.00    +0.000 A 
ATOM      7  C   UNL     1      48.136   6.189  15.001  0.00  0.00    +0.000 A 
BRANCH   5   8
ATOM      8  C   UNL     1      46.299   3.621  12.855  0.00  0.00    +0.000 C 
BRANCH   8   9
ATOM      9  C   UNL     1      44.987   4.224  12.402  0.00  0.00    +0.000 A 
ATOM     10  C   UNL     1      44.915   5.015  11.255  0.00  0.00    +0.000 A 
ATOM     11  C   UNL     1      43.718   5.656  10.946  0.00  0.00    +0.000 A 
ATOM     12  C   UNL     1      42.624   5.494  11.782  0.00  0.00    +0.000 A 
ATOM     13  C   UNL     1      42.768   4.680  12.891  0.00  0.00    +0.000 A 
ATOM     14  N   UNL     1      43.918   4.048  13.220  0.00  0.00    +0.000 NA
ENDBRANCH   8   9
ENDBRANCH   5   8
ENDBRANCH   1   2
BRANCH   1  15
ATOM     15  N   UNL     1      49.955   5.304  17.985  0.00  0.00    +0.000 N 
ATOM     16  C   UNL     1      51.224   5.310  17.468  0.00  0.00    +0.000 C 
ATOM     17  O   UNL     1      51.574   6.088  16.585  0.00  0.00    +0.000 OA
ATOM     18  H   UNL     1      49.664   4.542  18.585  0.00  0.00    +0.000 HD
BRANCH  16  19
ATOM     19  C   UNL     1      52.182   4.365  18.059  0.00  0.00    +0.000 A 
ATOM     20  C   UNL     1      53.242   4.855  18.810  0.00  0.00    +0.000 A 
ATOM     21  S   UNL     1      54.288   3.644  19.395  0.00  0.00    +0.000 S 
ATOM     22  C   UNL     1      53.384   2.421  18.631  0.00  0.00    +0.000 A 
ATOM     23  N   UNL     1      53.784   1.122  18.687  0.00  0.00    +0.000 NA
ATOM     24  C   UNL     1      53.031   0.305  18.031  0.00  0.00    +0.000 A 
ATOM     25  N   UNL     1      51.898   0.665  17.346  0.00  0.00    +0.000 N 
ATOM     26  C   UNL     1      51.409   1.950  17.342  0.00  0.00    +0.000 A 
ATOM     27  O   UNL     1      50.310   2.212  16.861  0.00  0.00    +0.000 OA
ATOM     28  C   UNL     1      52.266   2.924  17.991  0.00  0.00    +0.000 A 
ATOM     29  H   UNL     1      51.328  -0.034  16.893  0.00  0.00    +0.000 HD
ENDBRANCH  16  19
ENDBRANCH   1  15
BRANCH   1  30
ATOM     30  C   UNL     1      47.861   6.532  18.544  0.00  0.00    +0.000 C 
BRANCH  30  32
ATOM     31  C   UNL     1      48.531   8.854  18.449  0.00  0.00    +0.000 C 
ATOM     32  N   UNL     1      47.408   7.930  18.432  0.00  0.00    +0.000 NA
ATOM     33  H   UNL     1      46.871   8.037  17.571  0.00  0.00    +0.000 HD
ENDBRANCH  30  32
ENDBRANCH   1  30
TORSDOF 7
ENDMDL
MODEL 8
REMARK VINA RESULT:    -6.381      3.651      5.501
REMARK INTER + INTRA:          -9.963
REMARK INTER:                  -8.515
REMARK INTRA:                  -1.448
REMARK UNBOUND:                -0.971
REMARK  Name = 
REMARK  8 active torsions:
REMARK  status: ('A' for Active; 'I' for Inactive)
REMARK    1  A    between atoms: C_1  and  N_2
REMARK    2  A    between atoms: N_2  and  C_3
REMARK    3  A    between atoms: C_3  and  C_4
REMARK    4  A    between atoms: C_4  and  N_5
REMARK    5  A    between atoms: C_4  and  C_18
REMARK    6  A    between atoms: C_6  and  C_8
REMARK    7  A    between atoms: C_21  and  C_22
REMARK    8  A    between atoms: C_22  and  C_23
REMARK                            x       y       z     vdW  Elec       q    Type
REMARK                         _______ _______ _______ _____ _____    ______ ____
ROOT
ATOM      1  C   UNL     1      48.727   7.244  14.688  0.00  0.00    +0.000 C 
ENDROOT
BRANCH   1   2
ATOM      2  C   UNL     1      47.664   6.761  13.710  0.00  0.00    +0.000 A 
ATOM      3  C   UNL     1      47.144   5.467  13.857  0.00  0.00    +0.000 A 
ATOM      4  C   UNL     1      46.196   4.971  12.961  0.00  0.00    +0.000 A 
ATOM      5  C   UNL     1      45.729   5.763  11.903  0.00  0.00    +0.000 A 
ATOM      6  C   UNL     1      46.243   7.054  11.753  0.00  0.00    +0.000 A 
ATOM      7  C   UNL     1      47.214   7.541  12.635  0.00  0.00    +0.000 A 
BRANCH   5   8
ATOM      8  C   UNL     1      44.699   5.228  10.934  0.00  0.00    +0.000 C 
BRANCH   8   9
ATOM      9  C   UNL     1      45.217   4.285   9.871  0.00  0.00    +0.000 A 
ATOM     10  C   UNL     1      45.840   4.768   8.720  0.00  0.00    +0.000 A 
ATOM     11  C   UNL     1      46.184   3.876   7.707  0.00  0.00    +0.000 A 
ATOM     12  C   UNL     1      45.901   2.528   7.864  0.00  0.00    +0.000 A 
ATOM     13  C   UNL     1      45.297   2.122   9.041  0.00  0.00    +0.000 A 
ATOM     14  N   UNL     1      44.948   2.964  10.040  0.00  0.00    +0.000 NA
ENDBRANCH   8   9
ENDBRANCH   5   8
ENDBRANCH   1   2
BRANCH   1  15
ATOM     15  N   UNL     1      50.049   7.315  14.070  0.00  0.00    +0.000 N 
ATOM     16  C   UNL     1      50.823   8.443  14.152  0.00  0.00    +0.000 C 
ATOM     17  O   UNL     1      50.491   9.426  14.809  0.00  0.00    +0.000 OA
ATOM     18  H   UNL     1      50.277   6.602  13.388  0.00  0.00    +0.000 HD
BRANCH  16  19
ATOM     19  C   UNL     1      52.114   8.410  13.450  0.00  0.00    +0.000 A 
ATOM     20  C   UNL     1      53.281   8.631  14.169  0.00  0.00    +0.000 A 
ATOM     21  S   UNL     1      54.692   8.602  13.215  0.00  0.00    +0.000 S 
ATOM     22  C   UNL     1      53.791   8.332  11.797  0.00  0.00    +0.000 A 
ATOM     23  N   UNL     1      54.403   8.267  10.584  0.00  0.00    +0.000 NA
ATOM     24  C   UNL     1      53.599   8.101   9.590  0.00  0.00    +0.000 A 
ATOM     25  N   UNL     1      52.237   7.967   9.700  0.00  0.00    +0.000 N 
ATOM     26  C   UNL     1      51.590   7.935  10.913  0.00  0.00    +0.000 A 
ATOM     27  O   UNL     1      50.399   7.650  10.990  0.00  0.00    +0.000 OA
ATOM     28  C   UNL     1      52.439   8.206  12.057  0.00  0.00    +0.000 A 
ATOM     29  H   UNL     1      51.672   7.791   8.883  0.00  0.00    +0.000 HD
ENDBRANCH  16  19
ENDBRANCH   1  15
BRANCH   1  30
ATOM     30  C   UNL     1      48.743   6.347  15.957  0.00  0.00    +0.000 C 
BRANCH  30  32
ATOM     31  C   UNL     1      50.600   6.183  17.498  0.00  0.00    +0.000 C 
ATOM     32  N   UNL     1      50.074   5.766  16.208  0.00  0.00    +0.000 NA
ATOM     33  H   UNL     1      50.005   4.748  16.163  0.00  0.00    +0.000 HD
ENDBRANCH  30  32
ENDBRANCH   1  30
TORSDOF 7
ENDMDL
MODEL 9
REMARK VINA RESULT:    -6.295      4.668      6.517
REMARK INTER + INTRA:          -9.842
REMARK INTER:                  -9.318
REMARK INTRA:                  -0.524
REMARK UNBOUND:                -0.971
REMARK  Name = 
REMARK  8 active torsions:
REMARK  status: ('A' for Active; 'I' for Inactive)
REMARK    1  A    between atoms: C_1  and  N_2
REMARK    2  A    between atoms: N_2  and  C_3
REMARK    3  A    between atoms: C_3  and  C_4
REMARK    4  A    between atoms: C_4  and  N_5
REMARK    5  A    between atoms: C_4  and  C_18
REMARK    6  A    between atoms: C_6  and  C_8
REMARK    7  A    between atoms: C_21  and  C_22
REMARK    8  A    between atoms: C_22  and  C_23
REMARK                            x       y       z     vdW  Elec       q    Type
REMARK                         _______ _______ _______ _____ _____    ______ ____
ROOT
ATOM      1  C   UNL     1      48.950   7.902  14.132  0.00  0.00    +0.000 C 
ENDROOT
BRANCH   1   2
ATOM      2  C   UNL     1      50.106   8.086  13.159  0.00  0.00    +0.000 A 
ATOM      3  C   UNL     1      49.902   7.804  11.800  0.00  0.00    +0.000 A 
ATOM      4  C   UNL     1      50.944   7.922  10.880  0.00  0.00    +0.000 A 
ATOM      5  C   UNL     1      52.216   8.343  11.291  0.00  0.00    +0.000 A 
ATOM      6  C   UNL     1      52.425   8.627  12.644  0.00  0.00    +0.000 A 
ATOM      7  C   UNL     1      51.387   8.481  13.570  0.00  0.00    +0.000 A 
BRANCH   5   8
ATOM      8  C   UNL     1      53.345   8.476  10.294  0.00  0.00    +0.000 C 
BRANCH   8   9
ATOM      9  C   UNL     1      53.483   7.348   9.295  0.00  0.00    +0.000 A 
ATOM     10  C   UNL     1      52.808   7.378   8.075  0.00  0.00    +0.000 A 
ATOM     11  C   UNL     1      52.857   6.264   7.242  0.00  0.00    +0.000 A 
ATOM     12  C   UNL     1      53.577   5.148   7.642  0.00  0.00    +0.000 A 
ATOM     13  C   UNL     1      54.235   5.199   8.858  0.00  0.00    +0.000 A 
ATOM     14  N   UNL     1      54.201   6.265   9.690  0.00  0.00    +0.000 NA
ENDBRANCH   8   9
ENDBRANCH   5   8
ENDBRANCH   1   2
BRANCH   1  15
ATOM     15  N   UNL     1      47.709   7.540  13.449  0.00  0.00    +0.000 N 
ATOM     16  C   UNL     1      47.146   6.299  13.589  0.00  0.00    +0.000 C 
ATOM     17  O   UNL     1      47.599   5.448  14.349  0.00  0.00    +0.000 OA
ATOM     18  H   UNL     1      47.408   8.144  12.694  0.00  0.00    +0.000 HD
BRANCH  16  19
ATOM     19  C   UNL     1      45.924   6.039  12.815  0.00  0.00    +0.000 A 
ATOM     20  C   UNL     1      45.220   7.109  12.278  0.00  0.00    +0.000 A 
ATOM     21  S   UNL     1      43.807   6.654  11.443  0.00  0.00    +0.000 S 
ATOM     22  C   UNL     1      44.061   5.011  11.802  0.00  0.00    +0.000 A 
ATOM     23  N   UNL     1      43.159   4.066  11.420  0.00  0.00    +0.000 NA
ATOM     24  C   UNL     1      43.454   2.867  11.793  0.00  0.00    +0.000 A 
ATOM     25  N   UNL     1      44.583   2.521  12.491  0.00  0.00    +0.000 N 
ATOM     26  C   UNL     1      45.563   3.429  12.815  0.00  0.00    +0.000 A 
ATOM     27  O   UNL     1      46.635   3.066  13.292  0.00  0.00    +0.000 OA
ATOM     28  C   UNL     1      45.240   4.807  12.497  0.00  0.00    +0.000 A 
ATOM     29  H   UNL     1      44.775   1.554  12.709  0.00  0.00    +0.000 HD
ENDBRANCH  16  19
ENDBRANCH   1  15
BRANCH   1  30
ATOM     30  C   UNL     1      48.766   9.177  15.002  0.00  0.00    +0.000 C 
BRANCH  30  32
ATOM     31  C   UNL     1      48.009   9.286  17.296  0.00  0.00    +0.000 C 
ATOM     32  N   UNL     1      47.614   9.064  15.914  0.00  0.00    +0.000 NA
ATOM     33  H   UNL     1      46.903   9.740  15.634  0.00  0.00    +0.000 HD
ENDBRANCH  30  32
ENDBRANCH   1  30
TORSDOF 7
ENDMDL
