MODEL 1
REMARK VINA RESULT:    -8.272      0.000      0.000
REMARK INTER + INTRA:         -13.745
REMARK INTER:                 -12.624
REMARK INTRA:                  -1.121
REMARK UNBOUND:                -1.121
REMARK  Name = 
REMARK  10 active torsions:
REMARK  status: ('A' for Active; 'I' for Inactive)
REMARK    1  A    between atoms: C_1  and  C_2
REMARK    2  A    between atoms: C_2  and  C_3
REMARK    3  A    between atoms: C_3  and  N_4
REMARK    4  A    between atoms: C_3  and  C_22
REMARK    5  A    between atoms: N_4  and  C_5
REMARK    6  A    between atoms: C_5  and  C_6
REMARK    7  A    between atoms: C_9  and  C_10
REMARK    8  A    between atoms: C_10  and  O_11
REMARK    9  A    between atoms: O_11  and  C_12
REMARK   10  A    between atoms: C_12  and  C_13
REMARK                            x       y       z     vdW  Elec       q    Type
REMARK                         _______ _______ _______ _____ _____    ______ ____
ROOT
ATOM      1  C   UNL     1      48.560   6.658  14.911  0.00  0.00    +0.000 C 
ENDROOT
BRANCH   1   2
ATOM      2  C   UNL     1      47.534   6.300  13.863  0.00  0.00    +0.000 A 
ATOM      3  C   UNL     1      47.394   7.036  12.681  0.00  0.00    +0.000 A 
ATOM      4  C   UNL     1      46.442   6.661  11.727  0.00  0.00    +0.000 A 
ATOM      5  C   UNL     1      45.621   5.543  11.934  0.00  0.00    +0.000 A 
ATOM      6  C   UNL     1      45.773   4.798  13.106  0.00  0.00    +0.000 A 
ATOM      7  C   UNL     1      46.717   5.174  14.060  0.00  0.00    +0.000 A 
BRANCH   5   8
ATOM      8  C   UNL     1      44.570   5.164  10.928  0.00  0.00    +0.000 C 
BRANCH   8   9
ATOM      9  O   UNL     1      44.956   3.953  10.288  0.00  0.00    +0.000 OA
BRANCH   9  10
ATOM     10  C   UNL     1      44.654   3.978   8.898  0.00  0.00    +0.000 C 
BRANCH  10  11
ATOM     11  C   UNL     1      45.668   3.129   8.191  0.00  0.00    +0.000 A 
ATOM     12  C   UNL     1      46.581   3.697   7.297  0.00  0.00    +0.000 A 
ATOM     13  C   UNL     1      47.518   2.902   6.644  0.00  0.00    +0.000 A 
ATOM     14  C   UNL     1      47.541   1.535   6.891  0.00  0.00    +0.000 A 
ATOM     15  N   UNL     1      46.648   0.944   7.772  0.00  0.00    +0.000 N 
ATOM     16  O   UNL     1      46.682  -0.304   7.991  0.00  0.00    +0.000 OA
ATOM     17  C   UNL     1      45.722   1.748   8.414  0.00  0.00    +0.000 A 
ENDBRANCH  10  11
ENDBRANCH   9  10
ENDBRANCH   8   9
ENDBRANCH   5   8
ENDBRANCH   1   2
BRANCH   1  18
ATOM     18  N   UNL     1      49.012   5.500  15.677  0.00  0.00    +0.000 NA
ATOM     19  H   UNL     1      48.447   4.703  15.380  0.00  0.00    +0.000 HD
BRANCH  18  20
ATOM     20  C   UNL     1      48.853   5.641  17.135  0.00  0.00    +0.000 C 
BRANCH  20  21
ATOM     21  C   UNL     1      50.129   5.024  17.723  0.00  0.00    +0.000 A 
ATOM     22  C   UNL     1      51.072   5.748  18.441  0.00  0.00    +0.000 A 
ATOM     23  S   UNL     1      52.445   4.837  18.880  0.00  0.00    +0.000 S 
ATOM     24  C   UNL     1      51.829   3.440  18.129  0.00  0.00    +0.000 A 
ATOM     25  N   UNL     1      52.556   2.295  18.086  0.00  0.00    +0.000 NA
ATOM     26  C   UNL     1      51.964   1.316  17.471  0.00  0.00    +0.000 A 
ATOM     27  N   UNL     1      50.706   1.379  16.934  0.00  0.00    +0.000 N 
ATOM     28  C   UNL     1      49.910   2.502  17.003  0.00  0.00    +0.000 A 
ATOM     29  O   UNL     1      48.751   2.494  16.600  0.00  0.00    +0.000 OA
ATOM     30  C   UNL     1      50.565   3.656  17.605  0.00  0.00    +0.000 A 
ATOM     31  H   UNL     1      50.286   0.561  16.515  0.00  0.00    +0.000 HD
ENDBRANCH  20  21
BRANCH  20  33
ATOM     32  C   UNL     1      47.768   7.298  18.874  0.00  0.00    +0.000 C 
ATOM     33  C   UNL     1      48.685   7.090  17.677  0.00  0.00    +0.000 C 
ENDBRANCH  20  33
ENDBRANCH  18  20
ENDBRANCH   1  18
TORSDOF 9
ENDMDL
MODEL 2
REMARK VINA RESULT:    -8.132      1.550      2.271
REMARK INTER + INTRA:         -13.531
REMARK INTER:                 -12.299
REMARK INTRA:                  -1.232
REMARK UNBOUND:                -1.121
REMARK  Name = 
REMARK  10 active torsions:
REMARK  status: ('A' for Active; 'I' for Inactive)
REMARK    1  A    between atoms: C_1  and  C_2
REMARK    2  A    between atoms: C_2  and  C_3
REMARK    3  A    between atoms: C_3  and  N_4
REMARK    4  A    between atoms: C_3  and  C_22
REMARK    5  A    between atoms: N_4  and  C_5
REMARK    6  A    between atoms: C_5  and  C_6
REMARK    7  A    between atoms: C_9  and  C_10
REMARK    8  A    between atoms: C_10  and  O_11
REMARK    9  A    between atoms: O_11  and  C_12
REMARK   10  A    between atoms: C_12  and  C_13
REMARK                            x       y       z     vdW  Elec       q    Type
REMARK                         _______ _______ _______ _____ _____    ______ ____
ROOT
ATOM      1  C   UNL     1      48.016   5.999  14.125  0.00  0.00    +0.000 C 
ENDROOT
BRANCH   1   2
ATOM      2  C   UNL     1      46.846   5.270  13.509  0.00  0.00    +0.000 A 
ATOM      3  C   UNL     1      46.836   3.879  13.359  0.00  0.00    +0.000 A 
ATOM      4  C   UNL     1      45.725   3.239  12.799  0.00  0.00    +0.000 A 
ATOM      5  C   UNL     1      44.605   3.976  12.386  0.00  0.00    +0.000 A 
ATOM      6  C   UNL     1      44.609   5.364  12.553  0.00  0.00    +0.000 A 
ATOM      7  C   UNL     1      45.718   6.002  13.105  0.00  0.00    +0.000 A 
BRANCH   5   8
ATOM      8  C   UNL     1      43.428   3.294  11.746  0.00  0.00    +0.000 C 
BRANCH   8   9
ATOM      9  O   UNL     1      43.842   2.713  10.516  0.00  0.00    +0.000 OA
BRANCH   9  10
ATOM     10  C   UNL     1      44.225   3.706   9.571  0.00  0.00    +0.000 C 
BRANCH  10  11
ATOM     11  C   UNL     1      45.274   3.113   8.679  0.00  0.00    +0.000 A 
ATOM     12  C   UNL     1      45.998   3.916   7.793  0.00  0.00    +0.000 A 
ATOM     13  C   UNL     1      46.970   3.358   6.967  0.00  0.00    +0.000 A 
ATOM     14  C   UNL     1      47.215   1.992   7.031  0.00  0.00    +0.000 A 
ATOM     15  N   UNL     1      46.511   1.171   7.900  0.00  0.00    +0.000 N 
ATOM     16  O   UNL     1      46.748  -0.073   7.952  0.00  0.00    +0.000 OA
ATOM     17  C   UNL     1      45.550   1.741   8.716  0.00  0.00    +0.000 A 
ENDBRANCH  10  11
ENDBRANCH   9  10
ENDBRANCH   8   9
ENDBRANCH   5   8
ENDBRANCH   1   2
BRANCH   1  18
ATOM     18  N   UNL     1      47.846   6.230  15.557  0.00  0.00    +0.000 NA
ATOM     19  H   UNL     1      48.433   7.027  15.805  0.00  0.00    +0.000 HD
BRANCH  18  20
ATOM     20  C   UNL     1      48.252   5.095  16.405  0.00  0.00    +0.000 C 
BRANCH  20  21
ATOM     21  C   UNL     1      49.182   5.713  17.456  0.00  0.00    +0.000 A 
ATOM     22  C   UNL     1      48.919   6.913  18.104  0.00  0.00    +0.000 A 
ATOM     23  S   UNL     1      50.175   7.421  19.141  0.00  0.00    +0.000 S 
ATOM     24  C   UNL     1      51.117   6.054  18.763  0.00  0.00    +0.000 A 
ATOM     25  N   UNL     1      52.363   5.904  19.278  0.00  0.00    +0.000 NA
ATOM     26  C   UNL     1      52.967   4.820  18.893  0.00  0.00    +0.000 A 
ATOM     27  N   UNL     1      52.418   3.870  18.074  0.00  0.00    +0.000 N 
ATOM     28  C   UNL     1      51.137   3.953  17.573  0.00  0.00    +0.000 A 
ATOM     29  O   UNL     1      50.639   3.038  16.925  0.00  0.00    +0.000 OA
ATOM     30  C   UNL     1      50.450   5.195  17.905  0.00  0.00    +0.000 A 
ATOM     31  H   UNL     1      52.925   3.024  17.858  0.00  0.00    +0.000 HD
ENDBRANCH  20  21
BRANCH  20  33
ATOM     32  C   UNL     1      47.343   2.855  17.455  0.00  0.00    +0.000 C 
ATOM     33  C   UNL     1      47.107   4.322  17.121  0.00  0.00    +0.000 C 
ENDBRANCH  20  33
ENDBRANCH  18  20
ENDBRANCH   1  18
TORSDOF 9
ENDMDL
MODEL 3
REMARK VINA RESULT:    -7.920      1.996      2.851
REMARK INTER + INTRA:         -13.208
REMARK INTER:                 -11.910
REMARK INTRA:                  -1.299
REMARK UNBOUND:                -1.121
REMARK  Name = 
REMARK  10 active torsions:
REMARK  status: ('A' for Active; 'I' for Inactive)
REMARK    1  A    between atoms: C_1  and  C_2
REMARK    2  A    between atoms: C_2  and  C_3
REMARK    3  A    between atoms: C_3  and  N_4
REMARK    4  A    between atoms: C_3  and  C_22
REMARK    5  A    between atoms: N_4  and  C_5
REMARK    6  A    between atoms: C_5  and  C_6
REMARK    7  A    between atoms: C_9  and  C_10
REMARK    8  A    between atoms: C_10  and  O_11
REMARK    9  A    between atoms: O_11  and  C_12
REMARK   10  A    between atoms: C_12  and  C_13
REMARK                            x       y       z     vdW  Elec       q    Type
REMARK                         _______ _______ _______ _____ _____    ______ ____
ROOT
ATOM      1  C   UNL     1      48.549   6.530  13.455  0.00  0.00    +0.000 C 
ENDROOT
BRANCH   1   2
ATOM      2  C   UNL     1      47.237   6.073  12.864  0.00  0.00    +0.000 A 
ATOM      3  C   UNL     1      46.415   5.145  13.513  0.00  0.00    +0.000 A 
ATOM      4  C   UNL     1      45.199   4.760  12.940  0.00  0.00    +0.000 A 
ATOM      5  C   UNL     1      44.780   5.300  11.715  0.00  0.00    +0.000 A 
ATOM      6  C   UNL     1      45.593   6.240  11.076  0.00  0.00    +0.000 A 
ATOM      7  C   UNL     1      46.808   6.620  11.643  0.00  0.00    +0.000 A 
BRANCH   5   8
ATOM      8  C   UNL     1      43.492   4.855  11.078  0.00  0.00    +0.000 C 
BRANCH   8   9
ATOM      9  O   UNL     1      43.768   4.356   9.775  0.00  0.00    +0.000 OA
BRANCH   9  10
ATOM     10  C   UNL     1      44.216   3.006   9.817  0.00  0.00    +0.000 C 
BRANCH  10  11
ATOM     11  C   UNL     1      45.297   2.847   8.789  0.00  0.00    +0.000 A 
ATOM     12  C   UNL     1      45.791   3.953   8.092  0.00  0.00    +0.000 A 
ATOM     13  C   UNL     1      46.793   3.798   7.139  0.00  0.00    +0.000 A 
ATOM     14  C   UNL     1      47.301   2.529   6.886  0.00  0.00    +0.000 A 
ATOM     15  N   UNL     1      46.830   1.414   7.562  0.00  0.00    +0.000 N 
ATOM     16  O   UNL     1      47.305   0.263   7.326  0.00  0.00    +0.000 OA
ATOM     17  C   UNL     1      45.834   1.585   8.508  0.00  0.00    +0.000 A 
ENDBRANCH  10  11
ENDBRANCH   9  10
ENDBRANCH   8   9
ENDBRANCH   5   8
ENDBRANCH   1   2
BRANCH   1  18
ATOM     18  N   UNL     1      48.638   6.279  14.891  0.00  0.00    +0.000 NA
ATOM     19  H   UNL     1      47.687   6.300  15.260  0.00  0.00    +0.000 HD
BRANCH  18  20
ATOM     20  C   UNL     1      49.427   7.280  15.632  0.00  0.00    +0.000 C 
BRANCH  20  21
ATOM     21  C   UNL     1      48.852   7.247  17.054  0.00  0.00    +0.000 A 
ATOM     22  C   UNL     1      48.317   8.359  17.692  0.00  0.00    +0.000 A 
ATOM     23  S   UNL     1      47.855   8.065  19.307  0.00  0.00    +0.000 S 
ATOM     24  C   UNL     1      48.351   6.439  19.213  0.00  0.00    +0.000 A 
ATOM     25  N   UNL     1      48.283   5.628  20.298  0.00  0.00    +0.000 NA
ATOM     26  C   UNL     1      48.706   4.419  20.081  0.00  0.00    +0.000 A 
ATOM     27  N   UNL     1      49.153   3.954  18.873  0.00  0.00    +0.000 N 
ATOM     28  C   UNL     1      49.187   4.726  17.732  0.00  0.00    +0.000 A 
ATOM     29  O   UNL     1      49.497   4.251  16.644  0.00  0.00    +0.000 OA
ATOM     30  C   UNL     1      48.805   6.116  17.945  0.00  0.00    +0.000 A 
ATOM     31  H   UNL     1      49.418   2.986  18.762  0.00  0.00    +0.000 HD
ENDBRANCH  20  21
BRANCH  20  33
ATOM     32  C   UNL     1      51.856   8.247  15.961  0.00  0.00    +0.000 C 
ATOM     33  C   UNL     1      50.963   7.043  15.692  0.00  0.00    +0.000 C 
ENDBRANCH  20  33
ENDBRANCH  18  20
ENDBRANCH   1  18
TORSDOF 9
ENDMDL
MODEL 4
REMARK VINA RESULT:    -7.595      1.516      1.794
REMARK INTER + INTRA:         -12.712
REMARK INTER:                 -11.204
REMARK INTRA:                  -1.508
REMARK UNBOUND:                -1.121
REMARK  Name = 
REMARK  10 active torsions:
REMARK  status: ('A' for Active; 'I' for Inactive)
REMARK    1  A    between atoms: C_1  and  C_2
REMARK    2  A    between atoms: C_2  and  C_3
REMARK    3  A    between atoms: C_3  and  N_4
REMARK    4  A    between atoms: C_3  and  C_22
REMARK    5  A    between atoms: N_4  and  C_5
REMARK    6  A    between atoms: C_5  and  C_6
REMARK    7  A    between atoms: C_9  and  C_10
REMARK    8  A    between atoms: C_10  and  O_11
REMARK    9  A    between atoms: O_11  and  C_12
REMARK   10  A    between atoms: C_12  and  C_13
REMARK                            x       y       z     vdW  Elec       q    Type
REMARK                         _______ _______ _______ _____ _____    ______ ____
ROOT
ATOM      1  C   UNL     1      49.013   6.625  13.611  0.00  0.00    +0.000 C 
ENDROOT
BRANCH   1   2
ATOM      2  C   UNL     1      47.652   6.320  13.034  0.00  0.00    +0.000 A 
ATOM      3  C   UNL     1      47.158   6.987  11.907  0.00  0.00    +0.000 A 
ATOM      4  C   UNL     1      45.899   6.662  11.393  0.00  0.00    +0.000 A 
ATOM      5  C   UNL     1      45.115   5.664  11.990  0.00  0.00    +0.000 A 
ATOM      6  C   UNL     1      45.616   4.987  13.105  0.00  0.00    +0.000 A 
ATOM      7  C   UNL     1      46.868   5.313  13.622  0.00  0.00    +0.000 A 
BRANCH   5   8
ATOM      8  C   UNL     1      43.744   5.344  11.463  0.00  0.00    +0.000 C 
BRANCH   8   9
ATOM      9  O   UNL     1      43.864   4.827  10.143  0.00  0.00    +0.000 OA
BRANCH   9  10
ATOM     10  C   UNL     1      44.034   3.415  10.148  0.00  0.00    +0.000 C 
BRANCH  10  11
ATOM     11  C   UNL     1      45.049   3.069   9.100  0.00  0.00    +0.000 A 
ATOM     12  C   UNL     1      45.592   4.058   8.275  0.00  0.00    +0.000 A 
ATOM     13  C   UNL     1      46.534   3.728   7.303  0.00  0.00    +0.000 A 
ATOM     14  C   UNL     1      46.931   2.405   7.162  0.00  0.00    +0.000 A 
ATOM     15  N   UNL     1      46.408   1.403   7.966  0.00  0.00    +0.000 N 
ATOM     16  O   UNL     1      46.783   0.200   7.829  0.00  0.00    +0.000 OA
ATOM     17  C   UNL     1      45.474   1.746   8.928  0.00  0.00    +0.000 A 
ENDBRANCH  10  11
ENDBRANCH   9  10
ENDBRANCH   8   9
ENDBRANCH   5   8
ENDBRANCH   1   2
BRANCH   1  18
ATOM     18  N   UNL     1      49.009   7.804  14.473  0.00  0.00    +0.000 NA
ATOM     19  H   UNL     1      49.959   8.179  14.475  0.00  0.00    +0.000 HD
BRANCH  18  20
ATOM     20  C   UNL     1      48.633   7.531  15.871  0.00  0.00    +0.000 C 
BRANCH  20  21
ATOM     21  C   UNL     1      49.778   6.667  16.416  0.00  0.00    +0.000 A 
ATOM     22  C   UNL     1      51.097   7.096  16.486  0.00  0.00    +0.000 A 
ATOM     23  S   UNL     1      52.180   5.895  17.028  0.00  0.00    +0.000 S 
ATOM     24  C   UNL     1      50.924   4.757  17.192  0.00  0.00    +0.000 A 
ATOM     25  N   UNL     1      51.188   3.480  17.567  0.00  0.00    +0.000 NA
ATOM     26  C   UNL     1      50.135   2.722  17.639  0.00  0.00    +0.000 A 
ATOM     27  N   UNL     1      48.854   3.143  17.402  0.00  0.00    +0.000 N 
ATOM     28  C   UNL     1      48.533   4.443  17.074  0.00  0.00    +0.000 A 
ATOM     29  O   UNL     1      47.368   4.811  16.967  0.00  0.00    +0.000 OA
ATOM     30  C   UNL     1      49.690   5.310  16.894  0.00  0.00    +0.000 A 
ATOM     31  H   UNL     1      48.075   2.512  17.528  0.00  0.00    +0.000 HD
ENDBRANCH  20  21
BRANCH  20  33
ATOM     32  C   UNL     1      48.613  10.149  16.169  0.00  0.00    +0.000 C 
ATOM     33  C   UNL     1      48.440   8.770  16.791  0.00  0.00    +0.000 C 
ENDBRANCH  20  33
ENDBRANCH  18  20
ENDBRANCH   1  18
TORSDOF 9
ENDMDL
MODEL 5
REMARK VINA RESULT:    -7.529      2.220      3.206
REMARK INTER + INTRA:         -12.612
REMARK INTER:                 -11.110
REMARK INTRA:                  -1.502
REMARK UNBOUND:                -1.121
REMARK  Name = 
REMARK  10 active torsions:
REMARK  status: ('A' for Active; 'I' for Inactive)
REMARK    1  A    between atoms: C_1  and  C_2
REMARK    2  A    between atoms: C_2  and  C_3
REMARK    3  A    between atoms: C_3  and  N_4
REMARK    4  A    between atoms: C_3  and  C_22
REMARK    5  A    between atoms: N_4  and  C_5
REMARK    6  A    between atoms: C_5  and  C_6
REMARK    7  A    between atoms: C_9  and  C_10
REMARK    8  A    between atoms: C_10  and  O_11
REMARK    9  A    between atoms: O_11  and  C_12
REMARK   10  A    between atoms: C_12  and  C_13
REMARK                            x       y       z     vdW  Elec       q    Type
REMARK                         _______ _______ _______ _____ _____    ______ ____
ROOT
ATOM      1  C   UNL     1      49.138   7.747  14.225  0.00  0.00    +0.000 C 
ENDROOT
BRANCH   1   2
ATOM      2  C   UNL     1      48.083   6.868  13.597  0.00  0.00    +0.000 A 
ATOM      3  C   UNL     1      47.608   7.092  12.300  0.00  0.00    +0.000 A 
ATOM      4  C   UNL     1      46.643   6.244  11.748  0.00  0.00    +0.000 A 
ATOM      5  C   UNL     1      46.139   5.158  12.478  0.00  0.00    +0.000 A 
ATOM      6  C   UNL     1      46.626   4.925  13.767  0.00  0.00    +0.000 A 
ATOM      7  C   UNL     1      47.585   5.772  14.320  0.00  0.00    +0.000 A 
BRANCH   5   8
ATOM      8  C   UNL     1      45.070   4.271  11.902  0.00  0.00    +0.000 C 
BRANCH   8   9
ATOM      9  O   UNL     1      44.655   4.801  10.648  0.00  0.00    +0.000 OA
BRANCH   9  10
ATOM     10  C   UNL     1      44.051   3.804   9.834  0.00  0.00    +0.000 C 
BRANCH  10  11
ATOM     11  C   UNL     1      45.098   3.277   8.898  0.00  0.00    +0.000 A 
ATOM     12  C   UNL     1      45.783   4.135   8.033  0.00  0.00    +0.000 A 
ATOM     13  C   UNL     1      46.753   3.638   7.166  0.00  0.00    +0.000 A 
ATOM     14  C   UNL     1      47.036   2.278   7.170  0.00  0.00    +0.000 A 
ATOM     15  N   UNL     1      46.371   1.403   8.016  0.00  0.00    +0.000 N 
ATOM     16  O   UNL     1      46.642   0.165   8.013  0.00  0.00    +0.000 OA
ATOM     17  C   UNL     1      45.411   1.913   8.873  0.00  0.00    +0.000 A 
ENDBRANCH  10  11
ENDBRANCH   9  10
ENDBRANCH   8   9
ENDBRANCH   5   8
ENDBRANCH   1   2
BRANCH   1  18
ATOM     18  N   UNL     1      50.350   7.011  14.572  0.00  0.00    +0.000 NA
ATOM     19  H   UNL     1      50.095   6.025  14.640  0.00  0.00    +0.000 HD
BRANCH  18  20
ATOM     20  C   UNL     1      50.950   7.406  15.860  0.00  0.00    +0.000 C 
BRANCH  20  21
ATOM     21  C   UNL     1      50.464   6.343  16.854  0.00  0.00    +0.000 A 
ATOM     22  C   UNL     1      51.102   5.125  17.047  0.00  0.00    +0.000 A 
ATOM     23  S   UNL     1      50.286   4.089  18.129  0.00  0.00    +0.000 S 
ATOM     24  C   UNL     1      49.050   5.232  18.379  0.00  0.00    +0.000 A 
ATOM     25  N   UNL     1      47.983   4.942  19.167  0.00  0.00    +0.000 NA
ATOM     26  C   UNL     1      47.115   5.904  19.256  0.00  0.00    +0.000 A 
ATOM     27  N   UNL     1      47.243   7.129  18.657  0.00  0.00    +0.000 N 
ATOM     28  C   UNL     1      48.334   7.487  17.895  0.00  0.00    +0.000 A 
ATOM     29  O   UNL     1      48.466   8.625  17.456  0.00  0.00    +0.000 OA
ATOM     30  C   UNL     1      49.294   6.410  17.693  0.00  0.00    +0.000 A 
ATOM     31  H   UNL     1      46.554   7.850  18.813  0.00  0.00    +0.000 HD
ENDBRANCH  20  21
BRANCH  20  33
ATOM     32  C   UNL     1      53.233   7.858  14.623  0.00  0.00    +0.000 C 
ATOM     33  C   UNL     1      52.503   7.483  15.905  0.00  0.00    +0.000 C 
ENDBRANCH  20  33
ENDBRANCH  18  20
ENDBRANCH   1  18
TORSDOF 9
ENDMDL
MODEL 6
REMARK VINA RESULT:    -7.342      3.077      8.610
REMARK INTER + INTRA:         -12.325
REMARK INTER:                 -10.607
REMARK INTRA:                  -1.718
REMARK UNBOUND:                -1.121
REMARK  Name = 
REMARK  10 active torsions:
REMARK  status: ('A' for Active; 'I' for Inactive)
REMARK    1  A    between atoms: C_1  and  C_2
REMARK    2  A    between atoms: C_2  and  C_3
REMARK    3  A    between atoms: C_3  and  N_4
REMARK    4  A    between atoms: C_3  and  C_22
REMARK    5  A    between atoms: N_4  and  C_5
REMARK    6  A    between atoms: C_5  and  C_6
REMARK    7  A    between atoms: C_9  and  C_10
REMARK    8  A    between atoms: C_10  and  O_11
REMARK    9  A    between atoms: O_11  and  C_12
REMARK   10  A    between atoms: C_12  and  C_13
REMARK                            x       y       z     vdW  Elec       q    Type
REMARK                         _______ _______ _______ _____ _____    ______ ____
ROOT
ATOM      1  C   UNL     1      48.221   7.722  11.781  0.00  0.00    +0.000 C 
ENDROOT
BRANCH   1   2
ATOM      2  C   UNL     1      49.003   7.598  13.066  0.00  0.00    +0.000 A 
ATOM      3  C   UNL     1      50.317   8.065  13.182  0.00  0.00    +0.000 A 
ATOM      4  C   UNL     1      51.002   7.947  14.395  0.00  0.00    +0.000 A 
ATOM      5  C   UNL     1      50.386   7.369  15.514  0.00  0.00    +0.000 A 
ATOM      6  C   UNL     1      49.067   6.919  15.404  0.00  0.00    +0.000 A 
ATOM      7  C   UNL     1      48.386   7.030  14.193  0.00  0.00    +0.000 A 
BRANCH   5   8
ATOM      8  C   UNL     1      51.135   7.204  16.807  0.00  0.00    +0.000 C 
BRANCH   8   9
ATOM      9  O   UNL     1      50.201   7.023  17.865  0.00  0.00    +0.000 OA
BRANCH   9  10
ATOM     10  C   UNL     1      50.441   5.812  18.572  0.00  0.00    +0.000 C 
BRANCH  10  11
ATOM     11  C   UNL     1      49.490   4.777  18.048  0.00  0.00    +0.000 A 
ATOM     12  C   UNL     1      48.112   4.905  18.243  0.00  0.00    +0.000 A 
ATOM     13  C   UNL     1      47.237   3.939  17.755  0.00  0.00    +0.000 A 
ATOM     14  C   UNL     1      47.746   2.844  17.068  0.00  0.00    +0.000 A 
ATOM     15  N   UNL     1      49.108   2.690  16.861  0.00  0.00    +0.000 N 
ATOM     16  O   UNL     1      49.559   1.689  16.229  0.00  0.00    +0.000 OA
ATOM     17  C   UNL     1      49.966   3.660  17.351  0.00  0.00    +0.000 A 
ENDBRANCH  10  11
ENDBRANCH   9  10
ENDBRANCH   8   9
ENDBRANCH   5   8
ENDBRANCH   1   2
BRANCH   1  18
ATOM     18  N   UNL     1      47.204   6.684  11.638  0.00  0.00    +0.000 NA
ATOM     19  H   UNL     1      47.416   6.170  10.782  0.00  0.00    +0.000 HD
BRANCH  18  20
ATOM     20  C   UNL     1      45.827   7.198  11.521  0.00  0.00    +0.000 C 
BRANCH  20  21
ATOM     21  C   UNL     1      44.938   5.957  11.673  0.00  0.00    +0.000 A 
ATOM     22  C   UNL     1      44.136   5.718  12.782  0.00  0.00    +0.000 A 
ATOM     23  S   UNL     1      43.340   4.210  12.738  0.00  0.00    +0.000 S 
ATOM     24  C   UNL     1      44.037   3.822  11.234  0.00  0.00    +0.000 A 
ATOM     25  N   UNL     1      43.810   2.617  10.653  0.00  0.00    +0.000 NA
ATOM     26  C   UNL     1      44.415   2.457   9.515  0.00  0.00    +0.000 A 
ATOM     27  N   UNL     1      45.190   3.405   8.903  0.00  0.00    +0.000 N 
ATOM     28  C   UNL     1      45.402   4.662   9.429  0.00  0.00    +0.000 A 
ATOM     29  O   UNL     1      46.018   5.522   8.809  0.00  0.00    +0.000 OA
ATOM     30  C   UNL     1      44.816   4.858  10.748  0.00  0.00    +0.000 A 
ATOM     31  H   UNL     1      45.589   3.232   7.991  0.00  0.00    +0.000 HD
ENDBRANCH  20  21
BRANCH  20  33
ATOM     32  C   UNL     1      45.044   9.658  12.049  0.00  0.00    +0.000 C 
ATOM     33  C   UNL     1      45.398   8.270  12.564  0.00  0.00    +0.000 C 
ENDBRANCH  20  33
ENDBRANCH  18  20
ENDBRANCH   1  18
TORSDOF 9
ENDMDL
MODEL 7
REMARK VINA RESULT:    -7.151      3.634      8.587
REMARK INTER + INTRA:         -12.035
REMARK INTER:                 -10.556
REMARK INTRA:                  -1.479
REMARK UNBOUND:                -1.121
REMARK  Name = 
REMARK  10 active torsions:
REMARK  status: ('A' for Active; 'I' for Inactive)
REMARK    1  A    between atoms: C_1  and  C_2
REMARK    2  A    between atoms: C_2  and  C_3
REMARK    3  A    between atoms: C_3  and  N_4
REMARK    4  A    between atoms: C_3  and  C_22
REMARK    5  A    between atoms: N_4  and  C_5
REMARK    6  A    between atoms: C_5  and  C_6
REMARK    7  A    between atoms: C_9  and  C_10
REMARK    8  A    between atoms: C_10  and  O_11
REMARK    9  A    between atoms: O_11  and  C_12
REMARK   10  A    between atoms: C_12  and  C_13
REMARK                            x       y       z     vdW  Elec       q    Type
REMARK                         _______ _______ _______ _____ _____    ______ ____
ROOT
ATOM      1  C   UNL     1      48.544   7.261  12.264  0.00  0.00    +0.000 C 
ENDROOT
BRANCH   1   2
ATOM      2  C   UNL     1      49.134   7.297  13.653  0.00  0.00    +0.000 A 
ATOM      3  C   UNL     1      50.455   7.694  13.887  0.00  0.00    +0.000 A 
ATOM      4  C   UNL     1      50.958   7.732  15.191  0.00  0.00    +0.000 A 
ATOM      5  C   UNL     1      50.151   7.380  16.283  0.00  0.00    +0.000 A 
ATOM      6  C   UNL     1      48.826   7.000  16.050  0.00  0.00    +0.000 A 
ATOM      7  C   UNL     1      48.325   6.958  14.750  0.00  0.00    +0.000 A 
BRANCH   5   8
ATOM      8  C   UNL     1      50.704   7.379  17.681  0.00  0.00    +0.000 C 
BRANCH   8   9
ATOM      9  O   UNL     1      49.764   6.759  18.550  0.00  0.00    +0.000 OA
BRANCH   9  10
ATOM     10  C   UNL     1      50.289   5.565  19.119  0.00  0.00    +0.000 C 
BRANCH  10  11
ATOM     11  C   UNL     1      49.744   4.405  18.339  0.00  0.00    +0.000 A 
ATOM     12  C   UNL     1      50.602   3.466  17.759  0.00  0.00    +0.000 A 
ATOM     13  C   UNL     1      50.088   2.393  17.036  0.00  0.00    +0.000 A 
ATOM     14  C   UNL     1      48.712   2.262  16.897  0.00  0.00    +0.000 A 
ATOM     15  N   UNL     1      47.838   3.179  17.461  0.00  0.00    +0.000 N 
ATOM     16  O   UNL     1      46.585   3.046  17.330  0.00  0.00    +0.000 OA
ATOM     17  C   UNL     1      48.364   4.240  18.178  0.00  0.00    +0.000 A 
ENDBRANCH  10  11
ENDBRANCH   9  10
ENDBRANCH   8   9
ENDBRANCH   5   8
ENDBRANCH   1   2
BRANCH   1  18
ATOM     18  N   UNL     1      47.358   6.413  12.177  0.00  0.00    +0.000 NA
ATOM     19  H   UNL     1      47.659   5.511  11.806  0.00  0.00    +0.000 HD
BRANCH  18  20
ATOM     20  C   UNL     1      46.307   6.933  11.285  0.00  0.00    +0.000 C 
BRANCH  20  21
ATOM     21  C   UNL     1      45.697   5.684  10.637  0.00  0.00    +0.000 A 
ATOM     22  C   UNL     1      45.731   5.432   9.271  0.00  0.00    +0.000 A 
ATOM     23  S   UNL     1      44.880   4.027   8.813  0.00  0.00    +0.000 S 
ATOM     24  C   UNL     1      44.436   3.701  10.424  0.00  0.00    +0.000 A 
ATOM     25  N   UNL     1      43.633   2.650  10.725  0.00  0.00    +0.000 NA
ATOM     26  C   UNL     1      43.369   2.532  11.991  0.00  0.00    +0.000 A 
ATOM     27  N   UNL     1      43.866   3.350  12.971  0.00  0.00    +0.000 N 
ATOM     28  C   UNL     1      44.729   4.394  12.718  0.00  0.00    +0.000 A 
ATOM     29  O   UNL     1      45.235   5.045  13.626  0.00  0.00    +0.000 OA
ATOM     30  C   UNL     1      44.984   4.622  11.301  0.00  0.00    +0.000 A 
ATOM     31  H   UNL     1      43.662   3.168  13.943  0.00  0.00    +0.000 HD
ENDBRANCH  20  21
BRANCH  20  33
ATOM     32  C   UNL     1      45.566   9.084  12.617  0.00  0.00    +0.000 C 
ATOM     33  C   UNL     1      45.178   7.767  11.958  0.00  0.00    +0.000 C 
ENDBRANCH  20  33
ENDBRANCH  18  20
ENDBRANCH   1  18
TORSDOF 9
ENDMDL
MODEL 8
REMARK VINA RESULT:    -7.045      3.782      8.320
REMARK INTER + INTRA:         -11.873
REMARK INTER:                 -10.042
REMARK INTRA:                  -1.831
REMARK UNBOUND:                -1.121
REMARK  Name = 
REMARK  10 active torsions:
REMARK  status: ('A' for Active; 'I' for Inactive)
REMARK    1  A    between atoms: C_1  and  C_2
REMARK    2  A    between atoms: C_2  and  C_3
REMARK    3  A    between atoms: C_3  and  N_4
REMARK    4  A    between atoms: C_3  and  C_22
REMARK    5  A    between atoms: N_4  and  C_5
REMARK    6  A    between atoms: C_5  and  C_6
REMARK    7  A    between atoms: C_9  and  C_10
REMARK    8  A    between atoms: C_10  and  O_11
REMARK    9  A    between atoms: O_11  and  C_12
REMARK   10  A    between atoms: C_12  and  C_13
REMARK                            x       y       z     vdW  Elec       q    Type
REMARK                         _______ _______ _______ _____ _____    ______ ____
ROOT
ATOM      1  C   UNL     1      48.351   9.120  14.670  0.00  0.00    +0.000 C 
ENDROOT
BRANCH   1   2
ATOM      2  C   UNL     1      48.883   8.604  15.985  0.00  0.00    +0.000 A 
ATOM      3  C   UNL     1      50.118   7.953  16.080  0.00  0.00    +0.000 A 
ATOM      4  C   UNL     1      50.584   7.506  17.321  0.00  0.00    +0.000 A 
ATOM      5  C   UNL     1      49.828   7.705  18.486  0.00  0.00    +0.000 A 
ATOM      6  C   UNL     1      48.603   8.371  18.392  0.00  0.00    +0.000 A 
ATOM      7  C   UNL     1      48.136   8.813  17.156  0.00  0.00    +0.000 A 
BRANCH   5   8
ATOM      8  C   UNL     1      50.309   7.187  19.813  0.00  0.00    +0.000 C 
BRANCH   8   9
ATOM      9  O   UNL     1      49.570   6.019  20.149  0.00  0.00    +0.000 OA
BRANCH   9  10
ATOM     10  C   UNL     1      50.230   4.838  19.707  0.00  0.00    +0.000 C 
BRANCH  10  11
ATOM     11  C   UNL     1      49.375   4.199  18.654  0.00  0.00    +0.000 A 
ATOM     12  C   UNL     1      48.039   4.578  18.489  0.00  0.00    +0.000 A 
ATOM     13  C   UNL     1      47.251   3.979  17.510  0.00  0.00    +0.000 A 
ATOM     14  C   UNL     1      47.805   3.000  16.695  0.00  0.00    +0.000 A 
ATOM     15  N   UNL     1      49.127   2.604  16.836  0.00  0.00    +0.000 N 
ATOM     16  O   UNL     1      49.621   1.713  16.083  0.00  0.00    +0.000 OA
ATOM     17  C   UNL     1      49.898   3.210  17.813  0.00  0.00    +0.000 A 
ENDBRANCH  10  11
ENDBRANCH   9  10
ENDBRANCH   8   9
ENDBRANCH   5   8
ENDBRANCH   1   2
BRANCH   1  18
ATOM     18  N   UNL     1      47.209   8.352  14.183  0.00  0.00    +0.000 NA
ATOM     19  H   UNL     1      46.569   8.234  14.969  0.00  0.00    +0.000 HD
BRANCH  18  20
ATOM     20  C   UNL     1      47.552   7.010  13.680  0.00  0.00    +0.000 C 
BRANCH  20  21
ATOM     21  C   UNL     1      46.326   6.579  12.864  0.00  0.00    +0.000 A 
ATOM     22  C   UNL     1      45.471   7.473  12.232  0.00  0.00    +0.000 A 
ATOM     23  S   UNL     1      44.128   6.727  11.491  0.00  0.00    +0.000 S 
ATOM     24  C   UNL     1      44.641   5.181  11.986  0.00  0.00    +0.000 A 
ATOM     25  N   UNL     1      43.890   4.082  11.724  0.00  0.00    +0.000 NA
ATOM     26  C   UNL     1      44.400   2.974  12.171  0.00  0.00    +0.000 A 
ATOM     27  N   UNL     1      45.601   2.875  12.821  0.00  0.00    +0.000 N 
ATOM     28  C   UNL     1      46.423   3.955  13.059  0.00  0.00    +0.000 A 
ATOM     29  O   UNL     1      47.537   3.819  13.554  0.00  0.00    +0.000 OA
ATOM     30  C   UNL     1      45.853   5.234  12.654  0.00  0.00    +0.000 A 
ATOM     31  H   UNL     1      45.963   1.973  13.095  0.00  0.00    +0.000 HD
ENDBRANCH  20  21
BRANCH  20  33
ATOM     32  C   UNL     1      48.864   7.738  11.514  0.00  0.00    +0.000 C 
ATOM     33  C   UNL     1      48.824   6.909  12.790  0.00  0.00    +0.000 C 
ENDBRANCH  20  33
ENDBRANCH  18  20
ENDBRANCH   1  18
TORSDOF 9
ENDMDL
MODEL 9
REMARK VINA RESULT:    -6.811      3.981      8.598
REMARK INTER + INTRA:         -11.515
REMARK INTER:                  -9.627
REMARK INTRA:                  -1.888
REMARK UNBOUND:                -1.121
REMARK  Name = 
REMARK  10 active torsions:
REMARK  status: ('A' for Active; 'I' for Inactive)
REMARK    1  A    between atoms: C_1  and  C_2
REMARK    2  A    between atoms: C_2  and  C_3
REMARK    3  A    between atoms: C_3  and  N_4
REMARK    4  A    between atoms: C_3  and  C_22
REMARK    5  A    between atoms: N_4  and  C_5
REMARK    6  A    between atoms: C_5  and  C_6
REMARK    7  A    between atoms: C_9  and  C_10
REMARK    8  A    between atoms: C_10  and  O_11
REMARK    9  A    between atoms: O_11  and  C_12
REMARK   10  A    between atoms: C_12  and  C_13
REMARK                            x       y       z     vdW  Elec       q    Type
REMARK                         _______ _______ _______ _____ _____    ______ ____
ROOT
ATOM      1  C   UNL     1      48.280   9.261  14.625  0.00  0.00    +0.000 C 
ENDROOT
BRANCH   1   2
ATOM      2  C   UNL     1      48.723   8.710  15.959  0.00  0.00    +0.000 A 
ATOM      3  C   UNL     1      47.974   8.903  17.125  0.00  0.00    +0.000 A 
ATOM      4  C   UNL     1      48.409   8.361  18.338  0.00  0.00    +0.000 A 
ATOM      5  C   UNL     1      49.594   7.614  18.407  0.00  0.00    +0.000 A 
ATOM      6  C   UNL     1      50.333   7.407  17.238  0.00  0.00    +0.000 A 
ATOM      7  C   UNL     1      49.902   7.951  16.030  0.00  0.00    +0.000 A 
BRANCH   5   8
ATOM      8  C   UNL     1      50.085   7.067  19.719  0.00  0.00    +0.000 C 
BRANCH   8   9
ATOM      9  O   UNL     1      49.288   5.944  20.079  0.00  0.00    +0.000 OA
BRANCH   9  10
ATOM     10  C   UNL     1      49.931   4.720  19.747  0.00  0.00    +0.000 C 
BRANCH  10  11
ATOM     11  C   UNL     1      49.181   4.100  18.605  0.00  0.00    +0.000 A 
ATOM     12  C   UNL     1      47.859   4.467  18.334  0.00  0.00    +0.000 A 
ATOM     13  C   UNL     1      47.169   3.887  17.274  0.00  0.00    +0.000 A 
ATOM     14  C   UNL     1      47.806   2.939  16.483  0.00  0.00    +0.000 A 
ATOM     15  N   UNL     1      49.116   2.556  16.729  0.00  0.00    +0.000 N 
ATOM     16  O   UNL     1      49.688   1.693  15.998  0.00  0.00    +0.000 OA
ATOM     17  C   UNL     1      49.790   3.143  17.787  0.00  0.00    +0.000 A 
ENDBRANCH  10  11
ENDBRANCH   9  10
ENDBRANCH   8   9
ENDBRANCH   5   8
ENDBRANCH   1   2
BRANCH   1  18
ATOM     18  N   UNL     1      47.310   8.401  13.953  0.00  0.00    +0.000 NA
ATOM     19  H   UNL     1      46.738   7.968  14.679  0.00  0.00    +0.000 HD
BRANCH  18  20
ATOM     20  C   UNL     1      47.913   7.318  13.154  0.00  0.00    +0.000 C 
BRANCH  20  21
ATOM     21  C   UNL     1      46.806   6.262  13.039  0.00  0.00    +0.000 A 
ATOM     22  C   UNL     1      46.952   4.947  13.461  0.00  0.00    +0.000 A 
ATOM     23  S   UNL     1      45.604   3.962  13.110  0.00  0.00    +0.000 S 
ATOM     24  C   UNL     1      44.775   5.258  12.382  0.00  0.00    +0.000 A 
ATOM     25  N   UNL     1      43.560   5.071  11.807  0.00  0.00    +0.000 NA
ATOM     26  C   UNL     1      43.054   6.146  11.281  0.00  0.00    +0.000 A 
ATOM     27  N   UNL     1      43.641   7.382  11.314  0.00  0.00    +0.000 N 
ATOM     28  C   UNL     1      44.846   7.630  11.935  0.00  0.00    +0.000 A 
ATOM     29  O   UNL     1      45.296   8.767  12.035  0.00  0.00    +0.000 OA
ATOM     30  C   UNL     1      45.496   6.438  12.463  0.00  0.00    +0.000 A 
ATOM     31  H   UNL     1      43.165   8.186  10.931  0.00  0.00    +0.000 HD
ENDBRANCH  20  21
BRANCH  20  33
ATOM     32  C   UNL     1      49.880   8.057  11.564  0.00  0.00    +0.000 C 
ATOM     33  C   UNL     1      48.409   7.702  11.731  0.00  0.00    +0.000 C 
ENDBRANCH  20  33
ENDBRANCH  18  20
ENDBRANCH   1  18
TORSDOF 9
ENDMDL
