MODEL 1
REMARK VINA RESULT:    -7.976      0.000      0.000
REMARK INTER + INTRA:         -11.714
REMARK INTER:                 -11.006
REMARK INTRA:                  -0.708
REMARK UNBOUND:                -0.708
REMARK  Name = 
REMARK  10 active torsions:
REMARK  status: ('A' for Active; 'I' for Inactive)
REMARK    1  A    between atoms: C_1  and  C_2
REMARK    2  A    between atoms: C_2  and  C_3
REMARK    3  A    between atoms: C_2  and  C_4
REMARK    4  A    between atoms: C_2  and  C_5
REMARK    5  A    between atoms: C_7  and  O_8
REMARK    6  A    between atoms: O_8  and  C_9
REMARK    7  A    between atoms: C_9  and  C_10
REMARK    8  A    between atoms: C_13  and  C_14
REMARK    9  A    between atoms: C_14  and  N_15
REMARK   10  A    between atoms: C_19  and  C_20
REMARK                            x       y       z     vdW  Elec       q    Type
REMARK                         _______ _______ _______ _____ _____    ______ ____
ROOT
ATOM      1  C   UNL     1      46.606   6.608  12.826  0.00  0.00    +0.000 A 
ATOM      2  C   UNL     1      45.621   5.985  12.038  0.00  0.00    +0.000 A 
ATOM      3  C   UNL     1      45.186   4.697  12.357  0.00  0.00    +0.000 A 
ATOM      4  N   UNL     1      45.674   3.979  13.382  0.00  0.00    +0.000 NA
ATOM      5  C   UNL     1      46.642   4.573  14.120  0.00  0.00    +0.000 A 
ATOM      6  C   UNL     1      47.132   5.858  13.885  0.00  0.00    +0.000 A 
ENDROOT
BRANCH   5   7
ATOM      7  C   UNL     1      47.192   3.772  15.255  0.00  0.00    +0.000 C 
ATOM      8  N   UNL     1      46.835   4.199  16.508  0.00  0.00    +0.000 N 
ATOM      9  O   UNL     1      47.916   2.801  15.091  0.00  0.00    +0.000 OA
ATOM     10  H   UNL     1      46.234   5.007  16.616  0.00  0.00    +0.000 HD
ATOM     11  H   UNL     1      47.178   3.700  17.314  0.00  0.00    +0.000 HD
ENDBRANCH   5   7
BRANCH   1  13
ATOM     12  C   UNL     1      47.457   8.769  13.825  0.00  0.00    +0.000 C 
ATOM     13  C   UNL     1      47.077   8.040  12.519  0.00  0.00    +0.000 C 
ATOM     14  C   UNL     1      45.936   8.809  11.823  0.00  0.00    +0.000 C 
ATOM     15  C   UNL     1      48.320   8.091  11.600  0.00  0.00    +0.000 C 
ENDBRANCH   1  13
BRANCH   3  16
ATOM     16  O   UNL     1      44.197   4.144  11.572  0.00  0.00    +0.000 OA
BRANCH  16  17
ATOM     17  C   UNL     1      44.173   4.688  10.246  0.00  0.00    +0.000 C 
BRANCH  17  18
ATOM     18  C   UNL     1      44.984   3.812   9.332  0.00  0.00    +0.000 A 
ATOM     19  C   UNL     1      45.736   4.346   8.284  0.00  0.00    +0.000 A 
ATOM     20  C   UNL     1      46.479   3.498   7.463  0.00  0.00    +0.000 A 
ATOM     21  C   UNL     1      46.450   2.127   7.703  0.00  0.00    +0.000 A 
ATOM     22  N   UNL     1      45.735   1.588   8.724  0.00  0.00    +0.000 NA
ATOM     23  C   UNL     1      45.029   2.435   9.510  0.00  0.00    +0.000 A 
BRANCH  21  24
ATOM     24  C   UNL     1      47.249   1.176   6.836  0.00  0.00    +0.000 C 
BRANCH  24  25
ATOM     25  N   UNL     1      48.411   1.799   6.191  0.00  0.00    +0.000 NA
ATOM     26  H   UNL     1      49.003   2.191   6.924  0.00  0.00    +0.000 HD
ATOM     27  H   UNL     1      48.084   2.596   5.646  0.00  0.00    +0.000 HD
ENDBRANCH  24  25
ENDBRANCH  21  24
ENDBRANCH  17  18
ENDBRANCH  16  17
ENDBRANCH   3  16
TORSDOF 7
ENDMDL
MODEL 2
REMARK VINA RESULT:    -7.478      2.201      3.576
REMARK INTER + INTRA:         -11.027
REMARK INTER:                 -10.296
REMARK INTRA:                  -0.731
REMARK UNBOUND:                -0.708
REMARK  Name = 
REMARK  10 active torsions:
REMARK  status: ('A' for Active; 'I' for Inactive)
REMARK    1  A    between atoms: C_1  and  C_2
REMARK    2  A    between atoms: C_2  and  C_3
REMARK    3  A    between atoms: C_2  and  C_4
REMARK    4  A    between atoms: C_2  and  C_5
REMARK    5  A    between atoms: C_7  and  O_8
REMARK    6  A    between atoms: O_8  and  C_9
REMARK    7  A    between atoms: C_9  and  C_10
REMARK    8  A    between atoms: C_13  and  C_14
REMARK    9  A    between atoms: C_14  and  N_15
REMARK   10  A    between atoms: C_19  and  C_20
REMARK                            x       y       z     vdW  Elec       q    Type
REMARK                         _______ _______ _______ _____ _____    ______ ____
ROOT
ATOM      1  C   UNL     1      46.728   7.132  12.809  0.00  0.00    +0.000 A 
ATOM      2  C   UNL     1      46.155   5.879  12.524  0.00  0.00    +0.000 A 
ATOM      3  C   UNL     1      44.970   5.806  11.788  0.00  0.00    +0.000 A 
ATOM      4  N   UNL     1      44.306   6.883  11.338  0.00  0.00    +0.000 NA
ATOM      5  C   UNL     1      44.848   8.088  11.640  0.00  0.00    +0.000 A 
ATOM      6  C   UNL     1      46.031   8.259  12.360  0.00  0.00    +0.000 A 
ENDROOT
BRANCH   5   7
ATOM      7  C   UNL     1      44.105   9.288  11.148  0.00  0.00    +0.000 C 
ATOM      8  N   UNL     1      42.820   9.057  10.729  0.00  0.00    +0.000 N 
ATOM      9  O   UNL     1      44.600  10.405  11.114  0.00  0.00    +0.000 OA
ATOM     10  H   UNL     1      42.434   8.122  10.768  0.00  0.00    +0.000 HD
ATOM     11  H   UNL     1      42.270   9.828  10.384  0.00  0.00    +0.000 HD
ENDBRANCH   5   7
BRANCH   1  13
ATOM     12  C   UNL     1      48.137   8.600  14.311  0.00  0.00    +0.000 C 
ATOM     13  C   UNL     1      48.051   7.239  13.586  0.00  0.00    +0.000 C 
ATOM     14  C   UNL     1      49.229   7.115  12.599  0.00  0.00    +0.000 C 
ATOM     15  C   UNL     1      48.215   6.145  14.668  0.00  0.00    +0.000 C 
ENDBRANCH   1  13
BRANCH   3  16
ATOM     16  O   UNL     1      44.467   4.553  11.509  0.00  0.00    +0.000 OA
BRANCH  16  17
ATOM     17  C   UNL     1      43.904   4.464  10.193  0.00  0.00    +0.000 C 
BRANCH  17  18
ATOM     18  C   UNL     1      44.817   3.656   9.313  0.00  0.00    +0.000 A 
ATOM     19  C   UNL     1      45.628   4.257   8.350  0.00  0.00    +0.000 A 
ATOM     20  C   UNL     1      46.464   3.471   7.559  0.00  0.00    +0.000 A 
ATOM     21  C   UNL     1      46.468   2.091   7.743  0.00  0.00    +0.000 A 
ATOM     22  N   UNL     1      45.697   1.485   8.682  0.00  0.00    +0.000 NA
ATOM     23  C   UNL     1      44.900   2.275   9.441  0.00  0.00    +0.000 A 
BRANCH  21  24
ATOM     24  C   UNL     1      47.368   1.205   6.906  0.00  0.00    +0.000 C 
BRANCH  24  25
ATOM     25  N   UNL     1      48.352   1.947   6.109  0.00  0.00    +0.000 NA
ATOM     26  H   UNL     1      47.848   2.440   5.369  0.00  0.00    +0.000 HD
ATOM     27  H   UNL     1      48.950   1.274   5.633  0.00  0.00    +0.000 HD
ENDBRANCH  24  25
ENDBRANCH  21  24
ENDBRANCH  17  18
ENDBRANCH  16  17
ENDBRANCH   3  16
TORSDOF 7
ENDMDL
MODEL 3
REMARK VINA RESULT:    -6.791      2.783      6.844
REMARK INTER + INTRA:         -10.079
REMARK INTER:                  -9.432
REMARK INTRA:                  -0.648
REMARK UNBOUND:                -0.708
REMARK  Name = 
REMARK  10 active torsions:
REMARK  status: ('A' for Active; 'I' for Inactive)
REMARK    1  A    between atoms: C_1  and  C_2
REMARK    2  A    between atoms: C_2  and  C_3
REMARK    3  A    between atoms: C_2  and  C_4
REMARK    4  A    between atoms: C_2  and  C_5
REMARK    5  A    between atoms: C_7  and  O_8
REMARK    6  A    between atoms: O_8  and  C_9
REMARK    7  A    between atoms: C_9  and  C_10
REMARK    8  A    between atoms: C_13  and  C_14
REMARK    9  A    between atoms: C_14  and  N_15
REMARK   10  A    between atoms: C_19  and  C_20
REMARK                            x       y       z     vdW  Elec       q    Type
REMARK                         _______ _______ _______ _____ _____    ______ ____
ROOT
ATOM      1  C   UNL     1      46.859   6.380  12.832  0.00  0.00    +0.000 A 
ATOM      2  C   UNL     1      47.110   5.580  13.962  0.00  0.00    +0.000 A 
ATOM      3  C   UNL     1      46.541   4.308  14.056  0.00  0.00    +0.000 A 
ATOM      4  N   UNL     1      45.726   3.788  13.124  0.00  0.00    +0.000 NA
ATOM      5  C   UNL     1      45.466   4.573  12.052  0.00  0.00    +0.000 A 
ATOM      6  C   UNL     1      45.996   5.850  11.866  0.00  0.00    +0.000 A 
ENDROOT
BRANCH   5   7
ATOM      7  C   UNL     1      44.552   3.998  11.019  0.00  0.00    +0.000 C 
ATOM      8  N   UNL     1      44.804   2.699  10.663  0.00  0.00    +0.000 N 
ATOM      9  O   UNL     1      43.639   4.636  10.514  0.00  0.00    +0.000 OA
ATOM     10  H   UNL     1      45.567   2.193  11.097  0.00  0.00    +0.000 HD
ATOM     11  H   UNL     1      44.222   2.257   9.968  0.00  0.00    +0.000 HD
ENDBRANCH   5   7
BRANCH   1  13
ATOM     12  C   UNL     1      48.645   7.723  11.649  0.00  0.00    +0.000 C 
ATOM     13  C   UNL     1      47.503   7.769  12.687  0.00  0.00    +0.000 C 
ATOM     14  C   UNL     1      48.076   8.207  14.050  0.00  0.00    +0.000 C 
ATOM     15  C   UNL     1      46.511   8.857  12.212  0.00  0.00    +0.000 C 
ENDBRANCH   1  13
BRANCH   3  16
ATOM     16  O   UNL     1      46.843   3.553  15.169  0.00  0.00    +0.000 OA
BRANCH  16  17
ATOM     17  C   UNL     1      47.459   4.323  16.209  0.00  0.00    +0.000 C 
BRANCH  17  18
ATOM     18  C   UNL     1      48.731   3.649  16.645  0.00  0.00    +0.000 A 
ATOM     19  C   UNL     1      49.690   4.317  17.407  0.00  0.00    +0.000 A 
ATOM     20  C   UNL     1      50.853   3.652  17.795  0.00  0.00    +0.000 A 
ATOM     21  C   UNL     1      51.037   2.328  17.405  0.00  0.00    +0.000 A 
ATOM     22  N   UNL     1      50.112   1.655  16.674  0.00  0.00    +0.000 NA
ATOM     23  C   UNL     1      48.989   2.323  16.318  0.00  0.00    +0.000 A 
BRANCH  21  24
ATOM     24  C   UNL     1      52.285   1.572  17.813  0.00  0.00    +0.000 C 
BRANCH  24  25
ATOM     25  N   UNL     1      52.028   0.186  18.225  0.00  0.00    +0.000 NA
ATOM     26  H   UNL     1      52.188   0.123  19.231  0.00  0.00    +0.000 HD
ATOM     27  H   UNL     1      52.735  -0.410  17.796  0.00  0.00    +0.000 HD
ENDBRANCH  24  25
ENDBRANCH  21  24
ENDBRANCH  17  18
ENDBRANCH  16  17
ENDBRANCH   3  16
TORSDOF 7
ENDMDL
MODEL 4
REMARK VINA RESULT:    -6.624      3.315      7.200
REMARK INTER + INTRA:          -9.849
REMARK INTER:                  -9.251
REMARK INTRA:                  -0.599
REMARK UNBOUND:                -0.708
REMARK  Name = 
REMARK  10 active torsions:
REMARK  status: ('A' for Active; 'I' for Inactive)
REMARK    1  A    between atoms: C_1  and  C_2
REMARK    2  A    between atoms: C_2  and  C_3
REMARK    3  A    between atoms: C_2  and  C_4
REMARK    4  A    between atoms: C_2  and  C_5
REMARK    5  A    between atoms: C_7  and  O_8
REMARK    6  A    between atoms: O_8  and  C_9
REMARK    7  A    between atoms: C_9  and  C_10
REMARK    8  A    between atoms: C_13  and  C_14
REMARK    9  A    between atoms: C_14  and  N_15
REMARK   10  A    between atoms: C_19  and  C_20
REMARK                            x       y       z     vdW  Elec       q    Type
REMARK                         _______ _______ _______ _____ _____    ______ ____
ROOT
ATOM      1  C   UNL     1      45.395   4.864  12.165  0.00  0.00    +0.000 A 
ATOM      2  C   UNL     1      45.678   4.017  13.253  0.00  0.00    +0.000 A 
ATOM      3  C   UNL     1      46.806   4.250  14.042  0.00  0.00    +0.000 A 
ATOM      4  N   UNL     1      47.679   5.244  13.816  0.00  0.00    +0.000 NA
ATOM      5  C   UNL     1      47.418   6.040  12.751  0.00  0.00    +0.000 A 
ATOM      6  C   UNL     1      46.312   5.891  11.913  0.00  0.00    +0.000 A 
ENDROOT
BRANCH   5   7
ATOM      7  C   UNL     1      48.394   7.140  12.493  0.00  0.00    +0.000 C 
ATOM      8  N   UNL     1      49.607   7.014  13.120  0.00  0.00    +0.000 N 
ATOM      9  O   UNL     1      48.140   8.096  11.775  0.00  0.00    +0.000 OA
ATOM     10  H   UNL     1      49.792   6.212  13.709  0.00  0.00    +0.000 HD
ATOM     11  H   UNL     1      50.307   7.728  12.985  0.00  0.00    +0.000 HD
ENDBRANCH   5   7
BRANCH   1  13
ATOM     12  C   UNL     1      43.353   3.419  11.797  0.00  0.00    +0.000 C 
ATOM     13  C   UNL     1      44.140   4.652  11.302  0.00  0.00    +0.000 C 
ATOM     14  C   UNL     1      44.565   4.427   9.837  0.00  0.00    +0.000 C 
ATOM     15  C   UNL     1      43.162   5.851  11.339  0.00  0.00    +0.000 C 
ENDBRANCH   1  13
BRANCH   3  16
ATOM     16  O   UNL     1      47.020   3.410  15.114  0.00  0.00    +0.000 OA
BRANCH  16  17
ATOM     17  C   UNL     1      47.487   4.106  16.277  0.00  0.00    +0.000 C 
BRANCH  17  18
ATOM     18  C   UNL     1      48.795   3.513  16.723  0.00  0.00    +0.000 A 
ATOM     19  C   UNL     1      49.787   4.293  17.319  0.00  0.00    +0.000 A 
ATOM     20  C   UNL     1      50.984   3.702  17.724  0.00  0.00    +0.000 A 
ATOM     21  C   UNL     1      51.168   2.337  17.517  0.00  0.00    +0.000 A 
ATOM     22  N   UNL     1      50.212   1.558  16.950  0.00  0.00    +0.000 NA
ATOM     23  C   UNL     1      49.057   2.157  16.573  0.00  0.00    +0.000 A 
BRANCH  21  24
ATOM     24  C   UNL     1      52.452   1.660  17.949  0.00  0.00    +0.000 C 
BRANCH  24  25
ATOM     25  N   UNL     1      52.305   0.223  18.206  0.00  0.00    +0.000 NA
ATOM     26  H   UNL     1      51.447   0.087  18.742  0.00  0.00    +0.000 HD
ATOM     27  H   UNL     1      53.063  -0.071  18.820  0.00  0.00    +0.000 HD
ENDBRANCH  24  25
ENDBRANCH  21  24
ENDBRANCH  17  18
ENDBRANCH  16  17
ENDBRANCH   3  16
TORSDOF 7
ENDMDL
MODEL 5
REMARK VINA RESULT:    -6.175      3.081      4.939
REMARK INTER + INTRA:          -9.230
REMARK INTER:                  -8.718
REMARK INTRA:                  -0.511
REMARK UNBOUND:                -0.708
REMARK  Name = 
REMARK  10 active torsions:
REMARK  status: ('A' for Active; 'I' for Inactive)
REMARK    1  A    between atoms: C_1  and  C_2
REMARK    2  A    between atoms: C_2  and  C_3
REMARK    3  A    between atoms: C_2  and  C_4
REMARK    4  A    between atoms: C_2  and  C_5
REMARK    5  A    between atoms: C_7  and  O_8
REMARK    6  A    between atoms: O_8  and  C_9
REMARK    7  A    between atoms: C_9  and  C_10
REMARK    8  A    between atoms: C_13  and  C_14
REMARK    9  A    between atoms: C_14  and  N_15
REMARK   10  A    between atoms: C_19  and  C_20
REMARK                            x       y       z     vdW  Elec       q    Type
REMARK                         _______ _______ _______ _____ _____    ______ ____
ROOT
ATOM      1  C   UNL     1      48.923   7.126  17.318  0.00  0.00    +0.000 A 
ATOM      2  C   UNL     1      48.899   7.153  15.911  0.00  0.00    +0.000 A 
ATOM      3  C   UNL     1      48.436   6.044  15.201  0.00  0.00    +0.000 A 
ATOM      4  N   UNL     1      48.020   4.909  15.784  0.00  0.00    +0.000 NA
ATOM      5  C   UNL     1      48.071   4.877  17.137  0.00  0.00    +0.000 A 
ATOM      6  C   UNL     1      48.508   5.939  17.931  0.00  0.00    +0.000 A 
ENDROOT
BRANCH   5   7
ATOM      7  C   UNL     1      47.617   3.611  17.787  0.00  0.00    +0.000 C 
ATOM      8  N   UNL     1      48.327   3.226  18.894  0.00  0.00    +0.000 N 
ATOM      9  O   UNL     1      46.678   2.951  17.366  0.00  0.00    +0.000 OA
ATOM     10  H   UNL     1      49.101   3.792  19.222  0.00  0.00    +0.000 HD
ATOM     11  H   UNL     1      48.069   2.378  19.374  0.00  0.00    +0.000 HD
ENDBRANCH   5   7
BRANCH   1  13
ATOM     12  C   UNL     1      50.791   8.798  17.647  0.00  0.00    +0.000 C 
ATOM     13  C   UNL     1      49.394   8.348  18.126  0.00  0.00    +0.000 C 
ATOM     14  C   UNL     1      49.467   7.970  19.619  0.00  0.00    +0.000 C 
ATOM     15  C   UNL     1      48.457   9.571  17.986  0.00  0.00    +0.000 C 
ENDBRANCH   1  13
BRANCH   3  16
ATOM     16  O   UNL     1      48.404   6.134  13.825  0.00  0.00    +0.000 OA
BRANCH  16  17
ATOM     17  C   UNL     1      47.244   6.825  13.344  0.00  0.00    +0.000 C 
BRANCH  17  18
ATOM     18  C   UNL     1      46.350   5.856  12.620  0.00  0.00    +0.000 A 
ATOM     19  C   UNL     1      46.108   5.967  11.250  0.00  0.00    +0.000 A 
ATOM     20  C   UNL     1      45.277   5.044  10.616  0.00  0.00    +0.000 A 
ATOM     21  C   UNL     1      44.696   4.027  11.370  0.00  0.00    +0.000 A 
ATOM     22  N   UNL     1      44.928   3.893  12.701  0.00  0.00    +0.000 NA
ATOM     23  C   UNL     1      45.745   4.800  13.289  0.00  0.00    +0.000 A 
BRANCH  21  24
ATOM     24  C   UNL     1      43.793   3.003  10.715  0.00  0.00    +0.000 C 
BRANCH  24  25
ATOM     25  N   UNL     1      43.038   2.184  11.670  0.00  0.00    +0.000 NA
ATOM     26  H   UNL     1      42.204   1.837  11.194  0.00  0.00    +0.000 HD
ATOM     27  H   UNL     1      42.698   2.792  12.413  0.00  0.00    +0.000 HD
ENDBRANCH  24  25
ENDBRANCH  21  24
ENDBRANCH  17  18
ENDBRANCH  16  17
ENDBRANCH   3  16
TORSDOF 7
ENDMDL
MODEL 6
REMARK VINA RESULT:    -6.100      3.637      7.884
REMARK INTER + INTRA:          -9.126
REMARK INTER:                  -8.460
REMARK INTRA:                  -0.666
REMARK UNBOUND:                -0.708
REMARK  Name = 
REMARK  10 active torsions:
REMARK  status: ('A' for Active; 'I' for Inactive)
REMARK    1  A    between atoms: C_1  and  C_2
REMARK    2  A    between atoms: C_2  and  C_3
REMARK    3  A    between atoms: C_2  and  C_4
REMARK    4  A    between atoms: C_2  and  C_5
REMARK    5  A    between atoms: C_7  and  O_8
REMARK    6  A    between atoms: O_8  and  C_9
REMARK    7  A    between atoms: C_9  and  C_10
REMARK    8  A    between atoms: C_13  and  C_14
REMARK    9  A    between atoms: C_14  and  N_15
REMARK   10  A    between atoms: C_19  and  C_20
REMARK                            x       y       z     vdW  Elec       q    Type
REMARK                         _______ _______ _______ _____ _____    ______ ____
ROOT
ATOM      1  C   UNL     1      44.813   5.783  12.121  0.00  0.00    +0.000 A 
ATOM      2  C   UNL     1      45.971   5.301  12.759  0.00  0.00    +0.000 A 
ATOM      3  C   UNL     1      46.926   6.198  13.241  0.00  0.00    +0.000 A 
ATOM      4  N   UNL     1      46.824   7.531  13.115  0.00  0.00    +0.000 NA
ATOM      5  C   UNL     1      45.721   7.989  12.475  0.00  0.00    +0.000 A 
ATOM      6  C   UNL     1      44.710   7.170  11.970  0.00  0.00    +0.000 A 
ENDROOT
BRANCH   5   7
ATOM      7  C   UNL     1      45.612   9.471  12.326  0.00  0.00    +0.000 C 
ATOM      8  N   UNL     1      44.355   9.992  12.498  0.00  0.00    +0.000 N 
ATOM      9  O   UNL     1      46.570  10.183  12.065  0.00  0.00    +0.000 OA
ATOM     10  H   UNL     1      43.578   9.379  12.713  0.00  0.00    +0.000 HD
ATOM     11  H   UNL     1      44.218  10.987  12.407  0.00  0.00    +0.000 HD
ENDBRANCH   5   7
BRANCH   1  13
ATOM     12  C   UNL     1      42.334   5.468  11.735  0.00  0.00    +0.000 C 
ATOM     13  C   UNL     1      43.729   4.817  11.613  0.00  0.00    +0.000 C 
ATOM     14  C   UNL     1      43.762   3.529  12.459  0.00  0.00    +0.000 C 
ATOM     15  C   UNL     1      43.909   4.421  10.129  0.00  0.00    +0.000 C 
ENDBRANCH   1  13
BRANCH   3  16
ATOM     16  O   UNL     1      48.027   5.675  13.886  0.00  0.00    +0.000 OA
BRANCH  16  17
ATOM     17  C   UNL     1      48.670   6.628  14.743  0.00  0.00    +0.000 C 
BRANCH  17  18
ATOM     18  C   UNL     1      48.647   6.121  16.159  0.00  0.00    +0.000 A 
ATOM     19  C   UNL     1      48.066   4.896  16.489  0.00  0.00    +0.000 A 
ATOM     20  C   UNL     1      48.073   4.461  17.814  0.00  0.00    +0.000 A 
ATOM     21  C   UNL     1      48.657   5.267  18.788  0.00  0.00    +0.000 A 
ATOM     22  N   UNL     1      49.239   6.456  18.487  0.00  0.00    +0.000 NA
ATOM     23  C   UNL     1      49.224   6.850  17.191  0.00  0.00    +0.000 A 
BRANCH  21  24
ATOM     24  C   UNL     1      48.689   4.824  20.236  0.00  0.00    +0.000 C 
BRANCH  24  25
ATOM     25  N   UNL     1      48.347   3.410  20.429  0.00  0.00    +0.000 NA
ATOM     26  H   UNL     1      47.405   3.263  20.064  0.00  0.00    +0.000 HD
ATOM     27  H   UNL     1      48.286   3.230  21.430  0.00  0.00    +0.000 HD
ENDBRANCH  24  25
ENDBRANCH  21  24
ENDBRANCH  17  18
ENDBRANCH  16  17
ENDBRANCH   3  16
TORSDOF 7
ENDMDL
MODEL 7
REMARK VINA RESULT:    -6.076      4.161      6.338
REMARK INTER + INTRA:          -9.093
REMARK INTER:                  -8.435
REMARK INTRA:                  -0.658
REMARK UNBOUND:                -0.708
REMARK  Name = 
REMARK  10 active torsions:
REMARK  status: ('A' for Active; 'I' for Inactive)
REMARK    1  A    between atoms: C_1  and  C_2
REMARK    2  A    between atoms: C_2  and  C_3
REMARK    3  A    between atoms: C_2  and  C_4
REMARK    4  A    between atoms: C_2  and  C_5
REMARK    5  A    between atoms: C_7  and  O_8
REMARK    6  A    between atoms: O_8  and  C_9
REMARK    7  A    between atoms: C_9  and  C_10
REMARK    8  A    between atoms: C_13  and  C_14
REMARK    9  A    between atoms: C_14  and  N_15
REMARK   10  A    between atoms: C_19  and  C_20
REMARK                            x       y       z     vdW  Elec       q    Type
REMARK                         _______ _______ _______ _____ _____    ______ ____
ROOT
ATOM      1  C   UNL     1      48.571   5.034  18.454  0.00  0.00    +0.000 A 
ATOM      2  C   UNL     1      47.584   4.872  17.464  0.00  0.00    +0.000 A 
ATOM      3  C   UNL     1      47.707   3.850  16.520  0.00  0.00    +0.000 A 
ATOM      4  N   UNL     1      48.744   2.998  16.476  0.00  0.00    +0.000 NA
ATOM      5  C   UNL     1      49.704   3.177  17.414  0.00  0.00    +0.000 A 
ATOM      6  C   UNL     1      49.664   4.162  18.402  0.00  0.00    +0.000 A 
ENDROOT
BRANCH   5   7
ATOM      7  C   UNL     1      50.864   2.236  17.361  0.00  0.00    +0.000 C 
ATOM      8  N   UNL     1      51.918   2.548  18.180  0.00  0.00    +0.000 N 
ATOM      9  O   UNL     1      50.884   1.251  16.637  0.00  0.00    +0.000 OA
ATOM     10  H   UNL     1      51.875   3.370  18.770  0.00  0.00    +0.000 HD
ATOM     11  H   UNL     1      52.730   1.951  18.186  0.00  0.00    +0.000 HD
ENDBRANCH   5   7
BRANCH   1  13
ATOM     12  C   UNL     1      49.748   6.949  19.613  0.00  0.00    +0.000 C 
ATOM     13  C   UNL     1      48.442   6.129  19.527  0.00  0.00    +0.000 C 
ATOM     14  C   UNL     1      48.169   5.469  20.893  0.00  0.00    +0.000 C 
ATOM     15  C   UNL     1      47.301   7.133  19.243  0.00  0.00    +0.000 C 
ENDBRANCH   1  13
BRANCH   3  16
ATOM     16  O   UNL     1      46.697   3.714  15.591  0.00  0.00    +0.000 OA
BRANCH  16  17
ATOM     17  C   UNL     1      47.171   3.817  14.241  0.00  0.00    +0.000 C 
BRANCH  17  18
ATOM     18  C   UNL     1      46.524   4.999  13.574  0.00  0.00    +0.000 A 
ATOM     19  C   UNL     1      45.159   5.021  13.284  0.00  0.00    +0.000 A 
ATOM     20  C   UNL     1      44.599   6.140  12.669  0.00  0.00    +0.000 A 
ATOM     21  C   UNL     1      45.420   7.218  12.350  0.00  0.00    +0.000 A 
ATOM     22  N   UNL     1      46.747   7.224  12.635  0.00  0.00    +0.000 NA
ATOM     23  C   UNL     1      47.263   6.127  13.238  0.00  0.00    +0.000 A 
BRANCH  21  24
ATOM     24  C   UNL     1      44.845   8.454  11.689  0.00  0.00    +0.000 C 
BRANCH  24  25
ATOM     25  N   UNL     1      43.521   8.243  11.091  0.00  0.00    +0.000 NA
ATOM     26  H   UNL     1      42.868   8.884  11.542  0.00  0.00    +0.000 HD
ATOM     27  H   UNL     1      43.204   7.307  11.339  0.00  0.00    +0.000 HD
ENDBRANCH  24  25
ENDBRANCH  21  24
ENDBRANCH  17  18
ENDBRANCH  16  17
ENDBRANCH   3  16
TORSDOF 7
ENDMDL
MODEL 8
REMARK VINA RESULT:    -5.590      3.623      6.003
REMARK INTER + INTRA:          -8.422
REMARK INTER:                  -7.727
REMARK INTRA:                  -0.695
REMARK UNBOUND:                -0.708
REMARK  Name = 
REMARK  10 active torsions:
REMARK  status: ('A' for Active; 'I' for Inactive)
REMARK    1  A    between atoms: C_1  and  C_2
REMARK    2  A    between atoms: C_2  and  C_3
REMARK    3  A    between atoms: C_2  and  C_4
REMARK    4  A    between atoms: C_2  and  C_5
REMARK    5  A    between atoms: C_7  and  O_8
REMARK    6  A    between atoms: O_8  and  C_9
REMARK    7  A    between atoms: C_9  and  C_10
REMARK    8  A    between atoms: C_13  and  C_14
REMARK    9  A    between atoms: C_14  and  N_15
REMARK   10  A    between atoms: C_19  and  C_20
REMARK                            x       y       z     vdW  Elec       q    Type
REMARK                         _______ _______ _______ _____ _____    ______ ____
ROOT
ATOM      1  C   UNL     1      49.169   5.015  16.935  0.00  0.00    +0.000 A 
ATOM      2  C   UNL     1      48.280   5.567  15.995  0.00  0.00    +0.000 A 
ATOM      3  C   UNL     1      48.700   6.615  15.172  0.00  0.00    +0.000 A 
ATOM      4  N   UNL     1      49.924   7.164  15.232  0.00  0.00    +0.000 NA
ATOM      5  C   UNL     1      50.766   6.646  16.158  0.00  0.00    +0.000 A 
ATOM      6  C   UNL     1      50.440   5.594  17.016  0.00  0.00    +0.000 A 
ENDROOT
BRANCH   5   7
ATOM      7  C   UNL     1      52.125   7.262  16.233  0.00  0.00    +0.000 C 
ATOM      8  N   UNL     1      52.809   7.332  15.047  0.00  0.00    +0.000 N 
ATOM      9  O   UNL     1      52.607   7.678  17.277  0.00  0.00    +0.000 OA
ATOM     10  H   UNL     1      52.386   6.980  14.196  0.00  0.00    +0.000 HD
ATOM     11  H   UNL     1      53.733   7.736  15.035  0.00  0.00    +0.000 HD
ENDBRANCH   5   7
BRANCH   1  13
ATOM     12  C   UNL     1      47.327   3.359  17.445  0.00  0.00    +0.000 C 
ATOM     13  C   UNL     1      48.744   3.836  17.828  0.00  0.00    +0.000 C 
ATOM     14  C   UNL     1      48.744   4.293  19.301  0.00  0.00    +0.000 C 
ATOM     15  C   UNL     1      49.678   2.609  17.707  0.00  0.00    +0.000 C 
ENDBRANCH   1  13
BRANCH   3  16
ATOM     16  O   UNL     1      47.801   7.100  14.246  0.00  0.00    +0.000 OA
BRANCH  16  17
ATOM     17  C   UNL     1      47.978   6.519  12.947  0.00  0.00    +0.000 C 
BRANCH  17  18
ATOM     18  C   UNL     1      46.738   5.758  12.567  0.00  0.00    +0.000 A 
ATOM     19  C   UNL     1      46.412   4.542  13.170  0.00  0.00    +0.000 A 
ATOM     20  C   UNL     1      45.249   3.871  12.792  0.00  0.00    +0.000 A 
ATOM     21  C   UNL     1      44.435   4.429  11.809  0.00  0.00    +0.000 A 
ATOM     22  N   UNL     1      44.727   5.616  11.219  0.00  0.00    +0.000 NA
ATOM     23  C   UNL     1      45.858   6.249  11.610  0.00  0.00    +0.000 A 
BRANCH  21  24
ATOM     24  C   UNL     1      43.161   3.732  11.378  0.00  0.00    +0.000 C 
BRANCH  24  25
ATOM     25  N   UNL     1      43.117   2.308  11.734  0.00  0.00    +0.000 NA
ATOM     26  H   UNL     1      42.625   2.223  12.624  0.00  0.00    +0.000 HD
ATOM     27  H   UNL     1      44.069   1.995  11.914  0.00  0.00    +0.000 HD
ENDBRANCH  24  25
ENDBRANCH  21  24
ENDBRANCH  17  18
ENDBRANCH  16  17
ENDBRANCH   3  16
TORSDOF 7
ENDMDL
MODEL 9
REMARK VINA RESULT:    -5.543      3.100      7.825
REMARK INTER + INTRA:          -8.357
REMARK INTER:                  -7.755
REMARK INTRA:                  -0.602
REMARK UNBOUND:                -0.708
REMARK  Name = 
REMARK  10 active torsions:
REMARK  status: ('A' for Active; 'I' for Inactive)
REMARK    1  A    between atoms: C_1  and  C_2
REMARK    2  A    between atoms: C_2  and  C_3
REMARK    3  A    between atoms: C_2  and  C_4
REMARK    4  A    between atoms: C_2  and  C_5
REMARK    5  A    between atoms: C_7  and  O_8
REMARK    6  A    between atoms: O_8  and  C_9
REMARK    7  A    between atoms: C_9  and  C_10
REMARK    8  A    between atoms: C_13  and  C_14
REMARK    9  A    between atoms: C_14  and  N_15
REMARK   10  A    between atoms: C_19  and  C_20
REMARK                            x       y       z     vdW  Elec       q    Type
REMARK                         _______ _______ _______ _____ _____    ______ ____
ROOT
ATOM      1  C   UNL     1      45.608   4.944  11.735  0.00  0.00    +0.000 A 
ATOM      2  C   UNL     1      45.661   4.244  12.955  0.00  0.00    +0.000 A 
ATOM      3  C   UNL     1      46.452   4.724  14.000  0.00  0.00    +0.000 A 
ATOM      4  N   UNL     1      47.208   5.830  13.913  0.00  0.00    +0.000 NA
ATOM      5  C   UNL     1      47.175   6.485  12.727  0.00  0.00    +0.000 A 
ATOM      6  C   UNL     1      46.408   6.088  11.631  0.00  0.00    +0.000 A 
ENDROOT
BRANCH   5   7
ATOM      7  C   UNL     1      48.023   7.711  12.626  0.00  0.00    +0.000 C 
ATOM      8  N   UNL     1      49.030   7.659  11.697  0.00  0.00    +0.000 N 
ATOM      9  O   UNL     1      47.843   8.700  13.321  0.00  0.00    +0.000 OA
ATOM     10  H   UNL     1      49.158   6.827  11.133  0.00  0.00    +0.000 HD
ATOM     11  H   UNL     1      49.637   8.456  11.584  0.00  0.00    +0.000 HD
ENDBRANCH   5   7
BRANCH   1  13
ATOM     12  C   UNL     1      45.373   4.784   9.222  0.00  0.00    +0.000 C 
ATOM     13  C   UNL     1      44.716   4.457  10.581  0.00  0.00    +0.000 C 
ATOM     14  C   UNL     1      43.348   5.164  10.664  0.00  0.00    +0.000 C 
ATOM     15  C   UNL     1      44.468   2.930  10.601  0.00  0.00    +0.000 C 
ENDBRANCH   1  13
BRANCH   3  16
ATOM     16  O   UNL     1      46.445   4.018  15.184  0.00  0.00    +0.000 OA
BRANCH  16  17
ATOM     17  C   UNL     1      47.698   3.378  15.454  0.00  0.00    +0.000 C 
BRANCH  17  18
ATOM     18  C   UNL     1      48.177   3.773  16.824  0.00  0.00    +0.000 A 
ATOM     19  C   UNL     1      49.396   3.322  17.333  0.00  0.00    +0.000 A 
ATOM     20  C   UNL     1      49.804   3.717  18.605  0.00  0.00    +0.000 A 
ATOM     21  C   UNL     1      48.979   4.555  19.351  0.00  0.00    +0.000 A 
ATOM     22  N   UNL     1      47.795   5.016  18.872  0.00  0.00    +0.000 NA
ATOM     23  C   UNL     1      47.427   4.621  17.629  0.00  0.00    +0.000 A 
BRANCH  21  24
ATOM     24  C   UNL     1      49.393   5.011  20.735  0.00  0.00    +0.000 C 
BRANCH  24  25
ATOM     25  N   UNL     1      50.741   4.578  21.121  0.00  0.00    +0.000 NA
ATOM     26  H   UNL     1      51.087   5.226  21.831  0.00  0.00    +0.000 HD
ATOM     27  H   UNL     1      51.357   4.696  20.317  0.00  0.00    +0.000 HD
ENDBRANCH  24  25
ENDBRANCH  21  24
ENDBRANCH  17  18
ENDBRANCH  16  17
ENDBRANCH   3  16
TORSDOF 7
ENDMDL
