MODEL 1
REMARK VINA RESULT:    -8.380      0.000      0.000
REMARK INTER + INTRA:         -11.663
REMARK INTER:                 -10.829
REMARK INTRA:                  -0.834
REMARK UNBOUND:                -0.834
REMARK  Name = 
REMARK  5 active torsions:
REMARK  status: ('A' for Active; 'I' for Inactive)
REMARK    1  A    between atoms: C_2  and  C_4
REMARK    2  A    between atoms: C_7  and  S_8
REMARK    3  A    between atoms: S_8  and  C_9
REMARK    4  A    between atoms: C_9  and  C_10
REMARK    5  A    between atoms: C_14  and  C_15
REMARK                            x       y       z     vdW  Elec       q    Type
REMARK                         _______ _______ _______ _____ _____    ______ ____
ROOT
ATOM      1  C   UNL     1      44.087   4.252  12.012  0.00  0.00    +0.000 C 
ENDROOT
BRANCH   1   2
ATOM      2  C   UNL     1      45.414   4.790  12.487  0.00  0.00    +0.000 A 
ATOM      3  C   UNL     1      46.140   4.086  13.441  0.00  0.00    +0.000 A 
ATOM      4  N   UNL     1      47.301   4.515  13.980  0.00  0.00    +0.000 NA
ATOM      5  C   UNL     1      47.762   5.719  13.556  0.00  0.00    +0.000 A 
ATOM      6  C   UNL     1      47.135   6.535  12.616  0.00  0.00    +0.000 A 
ATOM      7  C   UNL     1      45.928   6.036  12.098  0.00  0.00    +0.000 A 
BRANCH   6   8
ATOM      8  C   UNL     1      47.694   7.837  12.185  0.00  0.00    +0.000 A 
ATOM      9  C   UNL     1      46.917   9.013  12.191  0.00  0.00    +0.000 A 
ATOM     10  C   UNL     1      47.456  10.244  11.800  0.00  0.00    +0.000 A 
ATOM     11  C   UNL     1      48.784  10.319  11.409  0.00  0.00    +0.000 A 
ATOM     12  F   UNL     1      49.302  11.499  11.045  0.00  0.00    +0.000 F 
ATOM     13  C   UNL     1      49.580   9.185  11.389  0.00  0.00    +0.000 A 
ATOM     14  C   UNL     1      49.036   7.954  11.767  0.00  0.00    +0.000 A 
ENDBRANCH   6   8
ENDBRANCH   1   2
BRANCH   1  15
ATOM     15  S   UNL     1      43.578   4.838  10.358  0.00  0.00    +0.000 S 
BRANCH  15  19
ATOM     16  C   UNL     1      46.420   2.460   7.745  0.00  0.00    +0.000 A 
ATOM     17  C   UNL     1      45.663   1.791   8.705  0.00  0.00    +0.000 A 
ATOM     18  C   UNL     1      44.789   2.523   9.513  0.00  0.00    +0.000 A 
ATOM     19  C   UNL     1      44.692   3.901   9.334  0.00  0.00    +0.000 A 
ATOM     20  N   UNL     1      45.419   4.565   8.409  0.00  0.00    +0.000 NA
ATOM     21  C   UNL     1      46.270   3.837   7.645  0.00  0.00    +0.000 A 
BRANCH  16  23
ATOM     22  N   UNL     1      48.476   2.517   6.444  0.00  0.00    +0.000 N 
ATOM     23  C   UNL     1      47.393   1.794   6.855  0.00  0.00    +0.000 C 
ATOM     24  O   UNL     1      47.250   0.624   6.521  0.00  0.00    +0.000 OA
ATOM     25  H   UNL     1      49.180   2.005   5.924  0.00  0.00    +0.000 HD
ATOM     26  H   UNL     1      48.762   3.379   6.889  0.00  0.00    +0.000 HD
ENDBRANCH  16  23
ENDBRANCH  15  19
ENDBRANCH   1  15
TORSDOF 5
ENDMDL
MODEL 2
REMARK VINA RESULT:    -8.241      3.098      4.428
REMARK INTER + INTRA:         -11.484
REMARK INTER:                 -10.871
REMARK INTRA:                  -0.613
REMARK UNBOUND:                -0.834
REMARK  Name = 
REMARK  5 active torsions:
REMARK  status: ('A' for Active; 'I' for Inactive)
REMARK    1  A    between atoms: C_2  and  C_4
REMARK    2  A    between atoms: C_7  and  S_8
REMARK    3  A    between atoms: S_8  and  C_9
REMARK    4  A    between atoms: C_9  and  C_10
REMARK    5  A    between atoms: C_14  and  C_15
REMARK                            x       y       z     vdW  Elec       q    Type
REMARK                         _______ _______ _______ _____ _____    ______ ____
ROOT
ATOM      1  C   UNL     1      44.295   4.222  12.071  0.00  0.00    +0.000 C 
ENDROOT
BRANCH   1   2
ATOM      2  C   UNL     1      45.479   4.928  12.685  0.00  0.00    +0.000 A 
ATOM      3  C   UNL     1      46.147   5.909  11.961  0.00  0.00    +0.000 A 
ATOM      4  N   UNL     1      47.255   6.548  12.393  0.00  0.00    +0.000 NA
ATOM      5  C   UNL     1      47.733   6.184  13.610  0.00  0.00    +0.000 A 
ATOM      6  C   UNL     1      47.174   5.212  14.437  0.00  0.00    +0.000 A 
ATOM      7  C   UNL     1      46.028   4.579  13.929  0.00  0.00    +0.000 A 
BRANCH   6   8
ATOM      8  C   UNL     1      47.738   4.865  15.761  0.00  0.00    +0.000 A 
ATOM      9  C   UNL     1      48.599   5.744  16.450  0.00  0.00    +0.000 A 
ATOM     10  C   UNL     1      49.115   5.418  17.710  0.00  0.00    +0.000 A 
ATOM     11  C   UNL     1      48.768   4.215  18.305  0.00  0.00    +0.000 A 
ATOM     12  F   UNL     1      49.254   3.909  19.514  0.00  0.00    +0.000 F 
ATOM     13  C   UNL     1      47.925   3.325  17.659  0.00  0.00    +0.000 A 
ATOM     14  C   UNL     1      47.421   3.646  16.395  0.00  0.00    +0.000 A 
ENDBRANCH   6   8
ENDBRANCH   1   2
BRANCH   1  15
ATOM     15  S   UNL     1      43.773   4.885  10.450  0.00  0.00    +0.000 S 
BRANCH  15  19
ATOM     16  C   UNL     1      46.416   2.446   7.688  0.00  0.00    +0.000 A 
ATOM     17  C   UNL     1      45.623   1.785   8.624  0.00  0.00    +0.000 A 
ATOM     18  C   UNL     1      44.810   2.535   9.478  0.00  0.00    +0.000 A 
ATOM     19  C   UNL     1      44.809   3.924   9.367  0.00  0.00    +0.000 A 
ATOM     20  N   UNL     1      45.572   4.581   8.467  0.00  0.00    +0.000 NA
ATOM     21  C   UNL     1      46.363   3.833   7.657  0.00  0.00    +0.000 A 
BRANCH  16  23
ATOM     22  N   UNL     1      48.369   2.480   6.236  0.00  0.00    +0.000 N 
ATOM     23  C   UNL     1      47.332   1.758   6.755  0.00  0.00    +0.000 C 
ATOM     24  O   UNL     1      47.184   0.575   6.478  0.00  0.00    +0.000 OA
ATOM     25  H   UNL     1      49.041   1.958   5.685  0.00  0.00    +0.000 HD
ATOM     26  H   UNL     1      48.672   3.363   6.624  0.00  0.00    +0.000 HD
ENDBRANCH  16  23
ENDBRANCH  15  19
ENDBRANCH   1  15
TORSDOF 5
ENDMDL
MODEL 3
REMARK VINA RESULT:    -8.157      1.702      2.106
REMARK INTER + INTRA:         -11.374
REMARK INTER:                 -10.594
REMARK INTRA:                  -0.780
REMARK UNBOUND:                -0.834
REMARK  Name = 
REMARK  5 active torsions:
REMARK  status: ('A' for Active; 'I' for Inactive)
REMARK    1  A    between atoms: C_2  and  C_4
REMARK    2  A    between atoms: C_7  and  S_8
REMARK    3  A    between atoms: S_8  and  C_9
REMARK    4  A    between atoms: C_9  and  C_10
REMARK    5  A    between atoms: C_14  and  C_15
REMARK                            x       y       z     vdW  Elec       q    Type
REMARK                         _______ _______ _______ _____ _____    ______ ____
ROOT
ATOM      1  C   UNL     1      44.302   5.813  11.157  0.00  0.00    +0.000 C 
ENDROOT
BRANCH   1   2
ATOM      2  C   UNL     1      45.414   5.589  12.151  0.00  0.00    +0.000 A 
ATOM      3  C   UNL     1      45.259   4.639  13.155  0.00  0.00    +0.000 A 
ATOM      4  N   UNL     1      46.164   4.412  14.131  0.00  0.00    +0.000 NA
ATOM      5  C   UNL     1      47.281   5.182  14.117  0.00  0.00    +0.000 A 
ATOM      6  C   UNL     1      47.563   6.176  13.182  0.00  0.00    +0.000 A 
ATOM      7  C   UNL     1      46.580   6.368  12.196  0.00  0.00    +0.000 A 
BRANCH   6   8
ATOM      8  C   UNL     1      48.807   6.977  13.214  0.00  0.00    +0.000 A 
ATOM      9  C   UNL     1      49.424   7.336  14.430  0.00  0.00    +0.000 A 
ATOM     10  C   UNL     1      50.610   8.078  14.454  0.00  0.00    +0.000 A 
ATOM     11  C   UNL     1      51.204   8.463  13.261  0.00  0.00    +0.000 A 
ATOM     12  F   UNL     1      52.344   9.164  13.285  0.00  0.00    +0.000 F 
ATOM     13  C   UNL     1      50.628   8.130  12.045  0.00  0.00    +0.000 A 
ATOM     14  C   UNL     1      49.436   7.400  12.024  0.00  0.00    +0.000 A 
ENDBRANCH   6   8
ENDBRANCH   1   2
BRANCH   1  15
ATOM     15  S   UNL     1      43.424   4.295  10.644  0.00  0.00    +0.000 S 
BRANCH  15  19
ATOM     16  C   UNL     1      46.452   2.539   7.760  0.00  0.00    +0.000 A 
ATOM     17  C   UNL     1      46.219   3.913   7.744  0.00  0.00    +0.000 A 
ATOM     18  C   UNL     1      45.284   4.456   8.630  0.00  0.00    +0.000 A 
ATOM     19  C   UNL     1      44.614   3.609   9.511  0.00  0.00    +0.000 A 
ATOM     20  N   UNL     1      44.827   2.275   9.539  0.00  0.00    +0.000 NA
ATOM     21  C   UNL     1      45.729   1.770   8.662  0.00  0.00    +0.000 A 
BRANCH  16  23
ATOM     22  N   UNL     1      48.506   2.543   6.456  0.00  0.00    +0.000 N 
ATOM     23  C   UNL     1      47.396   1.854   6.853  0.00  0.00    +0.000 C 
ATOM     24  O   UNL     1      47.205   0.700   6.492  0.00  0.00    +0.000 OA
ATOM     25  H   UNL     1      49.189   2.016   5.922  0.00  0.00    +0.000 HD
ATOM     26  H   UNL     1      48.828   3.382   6.919  0.00  0.00    +0.000 HD
ENDBRANCH  16  23
ENDBRANCH  15  19
ENDBRANCH   1  15
TORSDOF 5
ENDMDL
MODEL 4
REMARK VINA RESULT:    -7.940      4.284      7.451
REMARK INTER + INTRA:         -11.094
REMARK INTER:                 -10.601
REMARK INTRA:                  -0.493
REMARK UNBOUND:                -0.834
REMARK  Name = 
REMARK  5 active torsions:
REMARK  status: ('A' for Active; 'I' for Inactive)
REMARK    1  A    between atoms: C_2  and  C_4
REMARK    2  A    between atoms: C_7  and  S_8
REMARK    3  A    between atoms: S_8  and  C_9
REMARK    4  A    between atoms: C_9  and  C_10
REMARK    5  A    between atoms: C_14  and  C_15
REMARK                            x       y       z     vdW  Elec       q    Type
REMARK                         _______ _______ _______ _____ _____    ______ ____
ROOT
ATOM      1  C   UNL     1      45.792   7.518  11.963  0.00  0.00    +0.000 C 
ENDROOT
BRANCH   1   2
ATOM      2  C   UNL     1      45.053   6.400  11.270  0.00  0.00    +0.000 A 
ATOM      3  C   UNL     1      43.729   6.138  11.607  0.00  0.00    +0.000 A 
ATOM      4  N   UNL     1      43.003   5.121  11.096  0.00  0.00    +0.000 NA
ATOM      5  C   UNL     1      43.632   4.309  10.209  0.00  0.00    +0.000 A 
ATOM      6  C   UNL     1      44.954   4.446   9.789  0.00  0.00    +0.000 A 
ATOM      7  C   UNL     1      45.657   5.519  10.361  0.00  0.00    +0.000 A 
BRANCH   6   8
ATOM      8  C   UNL     1      45.581   3.532   8.807  0.00  0.00    +0.000 A 
ATOM      9  C   UNL     1      46.264   4.019   7.674  0.00  0.00    +0.000 A 
ATOM     10  C   UNL     1      46.870   3.151   6.760  0.00  0.00    +0.000 A 
ATOM     11  C   UNL     1      46.814   1.782   6.971  0.00  0.00    +0.000 A 
ATOM     12  F   UNL     1      47.404   0.952   6.102  0.00  0.00    +0.000 F 
ATOM     13  C   UNL     1      46.153   1.264   8.074  0.00  0.00    +0.000 A 
ATOM     14  C   UNL     1      45.536   2.133   8.979  0.00  0.00    +0.000 A 
ENDBRANCH   6   8
ENDBRANCH   1   2
BRANCH   1  15
ATOM     15  S   UNL     1      47.581   7.221  12.187  0.00  0.00    +0.000 S 
BRANCH  15  19
ATOM     16  C   UNL     1      47.506   4.557  15.856  0.00  0.00    +0.000 A 
ATOM     17  C   UNL     1      46.717   4.219  14.757  0.00  0.00    +0.000 A 
ATOM     18  C   UNL     1      46.737   5.040  13.627  0.00  0.00    +0.000 A 
ATOM     19  C   UNL     1      47.549   6.172  13.625  0.00  0.00    +0.000 A 
ATOM     20  N   UNL     1      48.319   6.515  14.682  0.00  0.00    +0.000 NA
ATOM     21  C   UNL     1      48.274   5.710  15.772  0.00  0.00    +0.000 A 
BRANCH  16  23
ATOM     22  N   UNL     1      48.558   4.039  17.988  0.00  0.00    +0.000 N 
ATOM     23  C   UNL     1      47.544   3.778  17.111  0.00  0.00    +0.000 C 
ATOM     24  O   UNL     1      46.681   2.949  17.369  0.00  0.00    +0.000 OA
ATOM     25  H   UNL     1      48.500   3.569  18.885  0.00  0.00    +0.000 HD
ATOM     26  H   UNL     1      49.130   4.870  17.936  0.00  0.00    +0.000 HD
ENDBRANCH  16  23
ENDBRANCH  15  19
ENDBRANCH   1  15
TORSDOF 5
ENDMDL
MODEL 5
REMARK VINA RESULT:    -7.907      4.854      7.930
REMARK INTER + INTRA:         -11.052
REMARK INTER:                 -10.443
REMARK INTRA:                  -0.610
REMARK UNBOUND:                -0.834
REMARK  Name = 
REMARK  5 active torsions:
REMARK  status: ('A' for Active; 'I' for Inactive)
REMARK    1  A    between atoms: C_2  and  C_4
REMARK    2  A    between atoms: C_7  and  S_8
REMARK    3  A    between atoms: S_8  and  C_9
REMARK    4  A    between atoms: C_9  and  C_10
REMARK    5  A    between atoms: C_14  and  C_15
REMARK                            x       y       z     vdW  Elec       q    Type
REMARK                         _______ _______ _______ _____ _____    ______ ____
ROOT
ATOM      1  C   UNL     1      45.118   5.257  13.226  0.00  0.00    +0.000 C 
ENDROOT
BRANCH   1   2
ATOM      2  C   UNL     1      44.659   4.272  12.180  0.00  0.00    +0.000 A 
ATOM      3  C   UNL     1      43.557   3.463  12.433  0.00  0.00    +0.000 A 
ATOM      4  N   UNL     1      43.109   2.505  11.593  0.00  0.00    +0.000 NA
ATOM      5  C   UNL     1      43.805   2.333  10.440  0.00  0.00    +0.000 A 
ATOM      6  C   UNL     1      44.931   3.062  10.062  0.00  0.00    +0.000 A 
ATOM      7  C   UNL     1      45.350   4.038  10.981  0.00  0.00    +0.000 A 
BRANCH   6   8
ATOM      8  C   UNL     1      45.642   2.833   8.784  0.00  0.00    +0.000 A 
ATOM      9  C   UNL     1      45.920   3.890   7.894  0.00  0.00    +0.000 A 
ATOM     10  C   UNL     1      46.608   3.670   6.695  0.00  0.00    +0.000 A 
ATOM     11  C   UNL     1      47.039   2.392   6.374  0.00  0.00    +0.000 A 
ATOM     12  F   UNL     1      47.706   2.184   5.232  0.00  0.00    +0.000 F 
ATOM     13  C   UNL     1      46.784   1.326   7.223  0.00  0.00    +0.000 A 
ATOM     14  C   UNL     1      46.086   1.546   8.414  0.00  0.00    +0.000 A 
ENDBRANCH   6   8
ENDBRANCH   1   2
BRANCH   1  15
ATOM     15  S   UNL     1      46.865   5.769  13.074  0.00  0.00    +0.000 S 
BRANCH  15  19
ATOM     16  C   UNL     1      48.459   4.422  17.100  0.00  0.00    +0.000 A 
ATOM     17  C   UNL     1      47.544   3.612  16.429  0.00  0.00    +0.000 A 
ATOM     18  C   UNL     1      47.050   4.027  15.190  0.00  0.00    +0.000 A 
ATOM     19  C   UNL     1      47.489   5.236  14.654  0.00  0.00    +0.000 A 
ATOM     20  N   UNL     1      48.374   6.033  15.292  0.00  0.00    +0.000 NA
ATOM     21  C   UNL     1      48.831   5.616  16.499  0.00  0.00    +0.000 A 
BRANCH  16  23
ATOM     22  N   UNL     1      48.341   3.214  19.209  0.00  0.00    +0.000 N 
ATOM     23  C   UNL     1      49.027   4.096  18.425  0.00  0.00    +0.000 C 
ATOM     24  O   UNL     1      50.090   4.579  18.795  0.00  0.00    +0.000 OA
ATOM     25  H   UNL     1      48.804   2.927  20.065  0.00  0.00    +0.000 HD
ATOM     26  H   UNL     1      47.613   2.611  18.851  0.00  0.00    +0.000 HD
ENDBRANCH  16  23
ENDBRANCH  15  19
ENDBRANCH   1  15
TORSDOF 5
ENDMDL
MODEL 6
REMARK VINA RESULT:    -7.408      1.873      2.475
REMARK INTER + INTRA:         -10.407
REMARK INTER:                  -9.666
REMARK INTRA:                  -0.740
REMARK UNBOUND:                -0.834
REMARK  Name = 
REMARK  5 active torsions:
REMARK  status: ('A' for Active; 'I' for Inactive)
REMARK    1  A    between atoms: C_2  and  C_4
REMARK    2  A    between atoms: C_7  and  S_8
REMARK    3  A    between atoms: S_8  and  C_9
REMARK    4  A    between atoms: C_9  and  C_10
REMARK    5  A    between atoms: C_14  and  C_15
REMARK                            x       y       z     vdW  Elec       q    Type
REMARK                         _______ _______ _______ _____ _____    ______ ____
ROOT
ATOM      1  C   UNL     1      44.944   4.168  12.251  0.00  0.00    +0.000 C 
ENDROOT
BRANCH   1   2
ATOM      2  C   UNL     1      45.457   5.584  12.322  0.00  0.00    +0.000 A 
ATOM      3  C   UNL     1      44.575   6.646  12.156  0.00  0.00    +0.000 A 
ATOM      4  N   UNL     1      44.944   7.944  12.134  0.00  0.00    +0.000 NA
ATOM      5  C   UNL     1      46.269   8.203  12.273  0.00  0.00    +0.000 A 
ATOM      6  C   UNL     1      47.265   7.241  12.436  0.00  0.00    +0.000 A 
ATOM      7  C   UNL     1      46.817   5.909  12.444  0.00  0.00    +0.000 A 
BRANCH   6   8
ATOM      8  C   UNL     1      48.696   7.587  12.593  0.00  0.00    +0.000 A 
ATOM      9  C   UNL     1      49.523   7.831  11.479  0.00  0.00    +0.000 A 
ATOM     10  C   UNL     1      50.871   8.176  11.634  0.00  0.00    +0.000 A 
ATOM     11  C   UNL     1      51.408   8.294  12.907  0.00  0.00    +0.000 A 
ATOM     12  F   UNL     1      52.694   8.634  13.055  0.00  0.00    +0.000 F 
ATOM     13  C   UNL     1      50.626   8.062  14.028  0.00  0.00    +0.000 A 
ATOM     14  C   UNL     1      49.284   7.705  13.870  0.00  0.00    +0.000 A 
ENDBRANCH   6   8
ENDBRANCH   1   2
BRANCH   1  15
ATOM     15  S   UNL     1      43.715   3.870  10.932  0.00  0.00    +0.000 S 
BRANCH  15  19
ATOM     16  C   UNL     1      46.454   2.583   7.554  0.00  0.00    +0.000 A 
ATOM     17  C   UNL     1      46.187   3.940   7.730  0.00  0.00    +0.000 A 
ATOM     18  C   UNL     1      45.341   4.338   8.769  0.00  0.00    +0.000 A 
ATOM     19  C   UNL     1      44.792   3.369   9.605  0.00  0.00    +0.000 A 
ATOM     20  N   UNL     1      45.038   2.050   9.448  0.00  0.00    +0.000 NA
ATOM     21  C   UNL     1      45.852   1.686   8.425  0.00  0.00    +0.000 A 
BRANCH  16  23
ATOM     22  N   UNL     1      48.039   2.938   5.743  0.00  0.00    +0.000 N 
ATOM     23  C   UNL     1      47.310   2.047   6.476  0.00  0.00    +0.000 C 
ATOM     24  O   UNL     1      47.386   0.843   6.266  0.00  0.00    +0.000 OA
ATOM     25  H   UNL     1      48.697   2.537   5.083  0.00  0.00    +0.000 HD
ATOM     26  H   UNL     1      48.201   3.891   6.038  0.00  0.00    +0.000 HD
ENDBRANCH  16  23
ENDBRANCH  15  19
ENDBRANCH   1  15
TORSDOF 5
ENDMDL
MODEL 7
REMARK VINA RESULT:    -6.826      4.236      7.423
REMARK INTER + INTRA:          -9.655
REMARK INTER:                  -8.949
REMARK INTRA:                  -0.707
REMARK UNBOUND:                -0.834
REMARK  Name = 
REMARK  5 active torsions:
REMARK  status: ('A' for Active; 'I' for Inactive)
REMARK    1  A    between atoms: C_2  and  C_4
REMARK    2  A    between atoms: C_7  and  S_8
REMARK    3  A    between atoms: S_8  and  C_9
REMARK    4  A    between atoms: C_9  and  C_10
REMARK    5  A    between atoms: C_14  and  C_15
REMARK                            x       y       z     vdW  Elec       q    Type
REMARK                         _______ _______ _______ _____ _____    ______ ____
ROOT
ATOM      1  C   UNL     1      45.777   7.615  11.964  0.00  0.00    +0.000 C 
ENDROOT
BRANCH   1   2
ATOM      2  C   UNL     1      45.040   6.493  11.275  0.00  0.00    +0.000 A 
ATOM      3  C   UNL     1      43.716   6.231  11.611  0.00  0.00    +0.000 A 
ATOM      4  N   UNL     1      42.992   5.210  11.104  0.00  0.00    +0.000 NA
ATOM      5  C   UNL     1      43.623   4.395  10.222  0.00  0.00    +0.000 A 
ATOM      6  C   UNL     1      44.946   4.531   9.804  0.00  0.00    +0.000 A 
ATOM      7  C   UNL     1      45.647   5.608  10.372  0.00  0.00    +0.000 A 
BRANCH   6   8
ATOM      8  C   UNL     1      45.576   3.613   8.829  0.00  0.00    +0.000 A 
ATOM      9  C   UNL     1      46.276   4.095   7.704  0.00  0.00    +0.000 A 
ATOM     10  C   UNL     1      46.885   3.223   6.796  0.00  0.00    +0.000 A 
ATOM     11  C   UNL     1      46.814   1.854   7.004  0.00  0.00    +0.000 A 
ATOM     12  F   UNL     1      47.406   1.020   6.140  0.00  0.00    +0.000 F 
ATOM     13  C   UNL     1      46.135   1.340   8.098  0.00  0.00    +0.000 A 
ATOM     14  C   UNL     1      45.516   2.214   8.997  0.00  0.00    +0.000 A 
ENDBRANCH   6   8
ENDBRANCH   1   2
BRANCH   1  15
ATOM     15  S   UNL     1      46.692   7.116  13.464  0.00  0.00    +0.000 S 
BRANCH  15  19
ATOM     16  C   UNL     1      50.916   8.234  12.252  0.00  0.00    +0.000 A 
ATOM     17  C   UNL     1      49.999   7.881  11.263  0.00  0.00    +0.000 A 
ATOM     18  C   UNL     1      48.698   7.533  11.635  0.00  0.00    +0.000 A 
ATOM     19  C   UNL     1      48.349   7.555  12.984  0.00  0.00    +0.000 A 
ATOM     20  N   UNL     1      49.226   7.893  13.955  0.00  0.00    +0.000 NA
ATOM     21  C   UNL     1      50.486   8.215  13.572  0.00  0.00    +0.000 A 
BRANCH  16  23
ATOM     22  N   UNL     1      53.290   7.984  12.724  0.00  0.00    +0.000 N 
ATOM     23  C   UNL     1      52.323   8.594  11.978  0.00  0.00    +0.000 C 
ATOM     24  O   UNL     1      52.613   9.388  11.092  0.00  0.00    +0.000 OA
ATOM     25  H   UNL     1      54.248   8.167  12.444  0.00  0.00    +0.000 HD
ATOM     26  H   UNL     1      53.118   7.155  13.275  0.00  0.00    +0.000 HD
ENDBRANCH  16  23
ENDBRANCH  15  19
ENDBRANCH   1  15
TORSDOF 5
ENDMDL
MODEL 8
REMARK VINA RESULT:    -6.825      4.444      7.624
REMARK INTER + INTRA:          -9.654
REMARK INTER:                  -9.027
REMARK INTRA:                  -0.627
REMARK UNBOUND:                -0.834
REMARK  Name = 
REMARK  5 active torsions:
REMARK  status: ('A' for Active; 'I' for Inactive)
REMARK    1  A    between atoms: C_2  and  C_4
REMARK    2  A    between atoms: C_7  and  S_8
REMARK    3  A    between atoms: S_8  and  C_9
REMARK    4  A    between atoms: C_9  and  C_10
REMARK    5  A    between atoms: C_14  and  C_15
REMARK                            x       y       z     vdW  Elec       q    Type
REMARK                         _______ _______ _______ _____ _____    ______ ____
ROOT
ATOM      1  C   UNL     1      47.518   8.566  13.659  0.00  0.00    +0.000 C 
ENDROOT
BRANCH   1   2
ATOM      2  C   UNL     1      46.415   8.236  12.683  0.00  0.00    +0.000 A 
ATOM      3  C   UNL     1      45.459   9.198  12.375  0.00  0.00    +0.000 A 
ATOM      4  N   UNL     1      44.397   8.981  11.570  0.00  0.00    +0.000 NA
ATOM      5  C   UNL     1      44.271   7.734  11.051  0.00  0.00    +0.000 A 
ATOM      6  C   UNL     1      45.145   6.673  11.282  0.00  0.00    +0.000 A 
ATOM      7  C   UNL     1      46.225   6.960  12.133  0.00  0.00    +0.000 A 
BRANCH   6   8
ATOM      8  C   UNL     1      44.958   5.335  10.677  0.00  0.00    +0.000 A 
ATOM      9  C   UNL     1      44.289   4.300  11.363  0.00  0.00    +0.000 A 
ATOM     10  C   UNL     1      44.099   3.043  10.778  0.00  0.00    +0.000 A 
ATOM     11  C   UNL     1      44.565   2.805   9.494  0.00  0.00    +0.000 A 
ATOM     12  F   UNL     1      44.374   1.604   8.932  0.00  0.00    +0.000 F 
ATOM     13  C   UNL     1      45.228   3.796   8.788  0.00  0.00    +0.000 A 
ATOM     14  C   UNL     1      45.427   5.047   9.378  0.00  0.00    +0.000 A 
ENDBRANCH   6   8
ENDBRANCH   1   2
BRANCH   1  15
ATOM     15  S   UNL     1      48.964   7.452  13.575  0.00  0.00    +0.000 S 
BRANCH  15  19
ATOM     16  C   UNL     1      47.848   4.438  16.774  0.00  0.00    +0.000 A 
ATOM     17  C   UNL     1      48.552   5.584  17.140  0.00  0.00    +0.000 A 
ATOM     18  C   UNL     1      48.900   6.512  16.155  0.00  0.00    +0.000 A 
ATOM     19  C   UNL     1      48.527   6.271  14.834  0.00  0.00    +0.000 A 
ATOM     20  N   UNL     1      47.846   5.166  14.462  0.00  0.00    +0.000 NA
ATOM     21  C   UNL     1      47.531   4.272  15.433  0.00  0.00    +0.000 A 
BRANCH  16  23
ATOM     22  N   UNL     1      48.253   3.168  18.810  0.00  0.00    +0.000 N 
ATOM     23  C   UNL     1      47.452   3.378  17.725  0.00  0.00    +0.000 C 
ATOM     24  O   UNL     1      46.426   2.731  17.561  0.00  0.00    +0.000 OA
ATOM     25  H   UNL     1      47.904   2.512  19.500  0.00  0.00    +0.000 HD
ATOM     26  H   UNL     1      48.952   3.832  19.114  0.00  0.00    +0.000 HD
ENDBRANCH  16  23
ENDBRANCH  15  19
ENDBRANCH   1  15
TORSDOF 5
ENDMDL
MODEL 9
REMARK VINA RESULT:    -6.782      3.991      7.219
REMARK INTER + INTRA:          -9.598
REMARK INTER:                  -8.865
REMARK INTRA:                  -0.733
REMARK UNBOUND:                -0.834
REMARK  Name = 
REMARK  5 active torsions:
REMARK  status: ('A' for Active; 'I' for Inactive)
REMARK    1  A    between atoms: C_2  and  C_4
REMARK    2  A    between atoms: C_7  and  S_8
REMARK    3  A    between atoms: S_8  and  C_9
REMARK    4  A    between atoms: C_9  and  C_10
REMARK    5  A    between atoms: C_14  and  C_15
REMARK                            x       y       z     vdW  Elec       q    Type
REMARK                         _______ _______ _______ _____ _____    ______ ____
ROOT
ATOM      1  C   UNL     1      45.280   4.777  13.666  0.00  0.00    +0.000 C 
ENDROOT
BRANCH   1   2
ATOM      2  C   UNL     1      44.775   4.732  12.246  0.00  0.00    +0.000 A 
ATOM      3  C   UNL     1      43.536   5.283  11.938  0.00  0.00    +0.000 A 
ATOM      4  N   UNL     1      42.965   5.234  10.715  0.00  0.00    +0.000 NA
ATOM      5  C   UNL     1      43.661   4.590   9.744  0.00  0.00    +0.000 A 
ATOM      6  C   UNL     1      44.905   3.983   9.912  0.00  0.00    +0.000 A 
ATOM      7  C   UNL     1      45.441   4.063  11.208  0.00  0.00    +0.000 A 
BRANCH   6   8
ATOM      8  C   UNL     1      45.619   3.302   8.808  0.00  0.00    +0.000 A 
ATOM      9  C   UNL     1      46.172   4.023   7.731  0.00  0.00    +0.000 A 
ATOM     10  C   UNL     1      46.862   3.376   6.699  0.00  0.00    +0.000 A 
ATOM     11  C   UNL     1      47.019   1.999   6.737  0.00  0.00    +0.000 A 
ATOM     12  F   UNL     1      47.689   1.381   5.755  0.00  0.00    +0.000 F 
ATOM     13  C   UNL     1      46.490   1.255   7.780  0.00  0.00    +0.000 A 
ATOM     14  C   UNL     1      45.790   1.902   8.802  0.00  0.00    +0.000 A 
ENDBRANCH   6   8
ENDBRANCH   1   2
BRANCH   1  15
ATOM     15  S   UNL     1      47.098   4.867  13.824  0.00  0.00    +0.000 S 
BRANCH  15  19
ATOM     16  C   UNL     1      47.848   8.981  12.068  0.00  0.00    +0.000 A 
ATOM     17  C   UNL     1      48.825   7.996  11.927  0.00  0.00    +0.000 A 
ATOM     18  C   UNL     1      48.597   6.729  12.470  0.00  0.00    +0.000 A 
ATOM     19  C   UNL     1      47.396   6.481  13.132  0.00  0.00    +0.000 A 
ATOM     20  N   UNL     1      46.440   7.423  13.279  0.00  0.00    +0.000 NA
ATOM     21  C   UNL     1      46.688   8.649  12.755  0.00  0.00    +0.000 A 
BRANCH  16  23
ATOM     22  N   UNL     1      46.851  11.077  11.337  0.00  0.00    +0.000 N 
ATOM     23  C   UNL     1      47.992  10.360  11.558  0.00  0.00    +0.000 C 
ATOM     24  O   UNL     1      49.097  10.853  11.369  0.00  0.00    +0.000 OA
ATOM     25  H   UNL     1      46.981  12.052  11.091  0.00  0.00    +0.000 HD
ATOM     26  H   UNL     1      45.952  10.808  11.712  0.00  0.00    +0.000 HD
ENDBRANCH  16  23
ENDBRANCH  15  19
ENDBRANCH   1  15
TORSDOF 5
ENDMDL
