MODEL 1
REMARK VINA RESULT:    -6.371      0.000      0.000
REMARK INTER + INTRA:         -10.273
REMARK INTER:                  -9.350
REMARK INTRA:                  -0.922
REMARK UNBOUND:                -0.922
REMARK  Name = 
REMARK  12 active torsions:
REMARK  status: ('A' for Active; 'I' for Inactive)
REMARK    1  A    between atoms: C_1  and  N_2
REMARK    2  A    between atoms: N_2  and  C_3
REMARK    3  A    between atoms: N_2  and  C_4
REMARK    4  A    between atoms: C_4  and  C_5
REMARK    5  A    between atoms: C_5  and  N_6
REMARK    6  A    between atoms: C_7  and  C_9
REMARK    7  A    between atoms: C_12  and  O_13
REMARK    8  A    between atoms: O_13  and  C_14
REMARK    9  A    between atoms: C_14  and  C_15
REMARK   10  A    between atoms: C_15  and  C_16
REMARK   11  A    between atoms: C_15  and  C_17
REMARK   12  A    between atoms: C_15  and  C_18
REMARK                            x       y       z     vdW  Elec       q    Type
REMARK                         _______ _______ _______ _____ _____    ______ ____
ROOT
ATOM      1  C   UNL     1      46.002   5.023  12.495  0.00  0.00    +0.000 A 
ATOM      2  C   UNL     1      46.166   4.128  13.555  0.00  0.00    +0.000 A 
ATOM      3  C   UNL     1      47.042   4.430  14.603  0.00  0.00    +0.000 A 
ATOM      4  C   UNL     1      47.764   5.628  14.602  0.00  0.00    +0.000 A 
ATOM      5  C   UNL     1      47.582   6.531  13.552  0.00  0.00    +0.000 A 
ATOM      6  C   UNL     1      46.711   6.232  12.501  0.00  0.00    +0.000 A 
ENDROOT
BRANCH   1   8
ATOM      7  N   UNL     1      45.008   3.358  10.987  0.00  0.00    +0.000 N 
ATOM      8  C   UNL     1      45.181   4.687  11.299  0.00  0.00    +0.000 C 
ATOM      9  O   UNL     1      44.691   5.594  10.632  0.00  0.00    +0.000 OA
ATOM     10  H   UNL     1      45.156   2.643  11.694  0.00  0.00    +0.000 HD
BRANCH   7  11
ATOM     11  C   UNL     1      44.206   3.002   9.835  0.00  0.00    +0.000 C 
BRANCH  11  12
ATOM     12  C   UNL     1      44.829   1.894   8.964  0.00  0.00    +0.000 C 
BRANCH  12  14
ATOM     13  C   UNL     1      46.703   1.126   7.616  0.00  0.00    +0.000 C 
ATOM     14  N   UNL     1      46.124   2.260   8.346  0.00  0.00    +0.000 NA
ATOM     15  C   UNL     1      45.933   3.378   7.414  0.00  0.00    +0.000 C 
ENDBRANCH  12  14
ENDBRANCH  11  12
ENDBRANCH   7  11
ENDBRANCH   1   8
BRANCH   4  16
ATOM     16  O   UNL     1      48.674   6.017  15.548  0.00  0.00    +0.000 OA
BRANCH  16  17
ATOM     17  C   UNL     1      48.531   5.456  16.859  0.00  0.00    +0.000 C 
BRANCH  17  18
ATOM     18  C   UNL     1      49.907   5.424  17.592  0.00  0.00    +0.000 C 
ATOM     19  C   UNL     1      50.821   6.496  16.949  0.00  0.00    +0.000 C 
ATOM     20  C   UNL     1      49.719   5.819  19.074  0.00  0.00    +0.000 C 
BRANCH  18  21
ATOM     21  C   UNL     1      50.502   4.008  17.519  0.00  0.00    +0.000 A 
ATOM     22  C   UNL     1      51.804   3.694  17.931  0.00  0.00    +0.000 A 
ATOM     23  C   UNL     1      52.280   2.386  17.846  0.00  0.00    +0.000 A 
ATOM     24  C   UNL     1      51.440   1.412  17.345  0.00  0.00    +0.000 A 
ATOM     25  N   UNL     1      50.182   1.656  16.933  0.00  0.00    +0.000 NA
ATOM     26  C   UNL     1      49.746   2.934  17.034  0.00  0.00    +0.000 A 
ENDBRANCH  18  21
ENDBRANCH  17  18
ENDBRANCH  16  17
ENDBRANCH   4  16
TORSDOF 8
ENDMDL
MODEL 2
REMARK VINA RESULT:    -6.274      4.823      8.104
REMARK INTER + INTRA:         -10.130
REMARK INTER:                  -9.023
REMARK INTRA:                  -1.107
REMARK UNBOUND:                -0.922
REMARK  Name = 
REMARK  12 active torsions:
REMARK  status: ('A' for Active; 'I' for Inactive)
REMARK    1  A    between atoms: C_1  and  N_2
REMARK    2  A    between atoms: N_2  and  C_3
REMARK    3  A    between atoms: N_2  and  C_4
REMARK    4  A    between atoms: C_4  and  C_5
REMARK    5  A    between atoms: C_5  and  N_6
REMARK    6  A    between atoms: C_7  and  C_9
REMARK    7  A    between atoms: C_12  and  O_13
REMARK    8  A    between atoms: O_13  and  C_14
REMARK    9  A    between atoms: C_14  and  C_15
REMARK   10  A    between atoms: C_15  and  C_16
REMARK   11  A    between atoms: C_15  and  C_17
REMARK   12  A    between atoms: C_15  and  C_18
REMARK                            x       y       z     vdW  Elec       q    Type
REMARK                         _______ _______ _______ _____ _____    ______ ____
ROOT
ATOM      1  C   UNL     1      47.917   8.594  12.098  0.00  0.00    +0.000 A 
ATOM      2  C   UNL     1      46.660   9.080  12.467  0.00  0.00    +0.000 A 
ATOM      3  C   UNL     1      45.621   8.192  12.765  0.00  0.00    +0.000 A 
ATOM      4  C   UNL     1      45.826   6.811  12.696  0.00  0.00    +0.000 A 
ATOM      5  C   UNL     1      47.089   6.327  12.348  0.00  0.00    +0.000 A 
ATOM      6  C   UNL     1      48.129   7.209  12.045  0.00  0.00    +0.000 A 
ENDROOT
BRANCH   1   8
ATOM      7  N   UNL     1      50.275   8.969  11.522  0.00  0.00    +0.000 N 
ATOM      8  C   UNL     1      49.011   9.498  11.649  0.00  0.00    +0.000 C 
ATOM      9  O   UNL     1      48.759  10.676  11.411  0.00  0.00    +0.000 OA
ATOM     10  H   UNL     1      50.403   7.965  11.428  0.00  0.00    +0.000 HD
BRANCH   7  11
ATOM     11  C   UNL     1      51.357   9.823  11.077  0.00  0.00    +0.000 C 
BRANCH  11  12
ATOM     12  C   UNL     1      52.300   9.151  10.062  0.00  0.00    +0.000 C 
BRANCH  12  14
ATOM     13  C   UNL     1      52.562   6.961   9.034  0.00  0.00    +0.000 C 
ATOM     14  N   UNL     1      52.522   7.706  10.298  0.00  0.00    +0.000 NA
ATOM     15  C   UNL     1      53.791   7.506  11.008  0.00  0.00    +0.000 C 
ENDBRANCH  12  14
ENDBRANCH  11  12
ENDBRANCH   7  11
ENDBRANCH   1   8
BRANCH   4  16
ATOM     16  O   UNL     1      44.881   5.848  12.927  0.00  0.00    +0.000 OA
BRANCH  16  17
ATOM     17  C   UNL     1      45.181   4.520  12.480  0.00  0.00    +0.000 C 
BRANCH  17  18
ATOM     18  C   UNL     1      44.148   4.058  11.407  0.00  0.00    +0.000 C 
ATOM     19  C   UNL     1      43.434   2.791  11.938  0.00  0.00    +0.000 C 
ATOM     20  C   UNL     1      43.066   5.145  11.222  0.00  0.00    +0.000 C 
BRANCH  18  21
ATOM     21  C   UNL     1      44.863   3.824  10.065  0.00  0.00    +0.000 A 
ATOM     22  C   UNL     1      45.008   2.560   9.477  0.00  0.00    +0.000 A 
ATOM     23  C   UNL     1      45.659   2.418   8.252  0.00  0.00    +0.000 A 
ATOM     24  C   UNL     1      46.160   3.549   7.638  0.00  0.00    +0.000 A 
ATOM     25  N   UNL     1      46.051   4.786   8.157  0.00  0.00    +0.000 NA
ATOM     26  C   UNL     1      45.406   4.893   9.344  0.00  0.00    +0.000 A 
ENDBRANCH  18  21
ENDBRANCH  17  18
ENDBRANCH  16  17
ENDBRANCH   4  16
TORSDOF 8
ENDMDL
MODEL 3
REMARK VINA RESULT:    -5.984      3.621      8.648
REMARK INTER + INTRA:          -9.705
REMARK INTER:                  -8.747
REMARK INTRA:                  -0.959
REMARK UNBOUND:                -0.922
REMARK  Name = 
REMARK  12 active torsions:
REMARK  status: ('A' for Active; 'I' for Inactive)
REMARK    1  A    between atoms: C_1  and  N_2
REMARK    2  A    between atoms: N_2  and  C_3
REMARK    3  A    between atoms: N_2  and  C_4
REMARK    4  A    between atoms: C_4  and  C_5
REMARK    5  A    between atoms: C_5  and  N_6
REMARK    6  A    between atoms: C_7  and  C_9
REMARK    7  A    between atoms: C_12  and  O_13
REMARK    8  A    between atoms: O_13  and  C_14
REMARK    9  A    between atoms: C_14  and  C_15
REMARK   10  A    between atoms: C_15  and  C_16
REMARK   11  A    between atoms: C_15  and  C_17
REMARK   12  A    between atoms: C_15  and  C_18
REMARK                            x       y       z     vdW  Elec       q    Type
REMARK                         _______ _______ _______ _____ _____    ______ ____
ROOT
ATOM      1  C   UNL     1      48.780   7.467  12.780  0.00  0.00    +0.000 A 
ATOM      2  C   UNL     1      47.865   7.693  11.749  0.00  0.00    +0.000 A 
ATOM      3  C   UNL     1      46.639   7.020  11.734  0.00  0.00    +0.000 A 
ATOM      4  C   UNL     1      46.316   6.112  12.747  0.00  0.00    +0.000 A 
ATOM      5  C   UNL     1      47.223   5.903  13.788  0.00  0.00    +0.000 A 
ATOM      6  C   UNL     1      48.450   6.570  13.805  0.00  0.00    +0.000 A 
ENDROOT
BRANCH   1   8
ATOM      7  N   UNL     1      50.973   7.802  13.836  0.00  0.00    +0.000 N 
ATOM      8  C   UNL     1      50.145   8.062  12.768  0.00  0.00    +0.000 C 
ATOM      9  O   UNL     1      50.487   8.762  11.818  0.00  0.00    +0.000 OA
ATOM     10  H   UNL     1      50.793   7.005  14.440  0.00  0.00    +0.000 HD
BRANCH   7  11
ATOM     11  C   UNL     1      52.309   8.360  13.845  0.00  0.00    +0.000 C 
BRANCH  11  12
ATOM     12  C   UNL     1      53.245   7.710  14.882  0.00  0.00    +0.000 C 
BRANCH  12  14
ATOM     13  C   UNL     1      55.242   6.326  14.987  0.00  0.00    +0.000 C 
ATOM     14  N   UNL     1      54.641   7.540  14.422  0.00  0.00    +0.000 NA
ATOM     15  C   UNL     1      54.676   7.450  12.957  0.00  0.00    +0.000 C 
ENDBRANCH  12  14
ENDBRANCH  11  12
ENDBRANCH   7  11
ENDBRANCH   1   8
BRANCH   4  16
ATOM     16  O   UNL     1      45.169   5.369  12.822  0.00  0.00    +0.000 OA
BRANCH  16  17
ATOM     17  C   UNL     1      45.245   4.006  12.383  0.00  0.00    +0.000 C 
BRANCH  17  18
ATOM     18  C   UNL     1      44.199   3.735  11.259  0.00  0.00    +0.000 C 
ATOM     19  C   UNL     1      43.367   2.494  11.663  0.00  0.00    +0.000 C 
ATOM     20  C   UNL     1      43.219   4.926  11.158  0.00  0.00    +0.000 C 
BRANCH  18  21
ATOM     21  C   UNL     1      44.920   3.559   9.911  0.00  0.00    +0.000 A 
ATOM     22  C   UNL     1      45.194   2.310   9.338  0.00  0.00    +0.000 A 
ATOM     23  C   UNL     1      45.844   2.220   8.107  0.00  0.00    +0.000 A 
ATOM     24  C   UNL     1      46.211   3.389   7.471  0.00  0.00    +0.000 A 
ATOM     25  N   UNL     1      45.975   4.615   7.975  0.00  0.00    +0.000 NA
ATOM     26  C   UNL     1      45.336   4.670   9.168  0.00  0.00    +0.000 A 
ENDBRANCH  18  21
ENDBRANCH  17  18
ENDBRANCH  16  17
ENDBRANCH   4  16
TORSDOF 8
ENDMDL
MODEL 4
REMARK VINA RESULT:    -5.933      2.367      2.906
REMARK INTER + INTRA:          -9.629
REMARK INTER:                  -8.640
REMARK INTRA:                  -0.989
REMARK UNBOUND:                -0.922
REMARK  Name = 
REMARK  12 active torsions:
REMARK  status: ('A' for Active; 'I' for Inactive)
REMARK    1  A    between atoms: C_1  and  N_2
REMARK    2  A    between atoms: N_2  and  C_3
REMARK    3  A    between atoms: N_2  and  C_4
REMARK    4  A    between atoms: C_4  and  C_5
REMARK    5  A    between atoms: C_5  and  N_6
REMARK    6  A    between atoms: C_7  and  C_9
REMARK    7  A    between atoms: C_12  and  O_13
REMARK    8  A    between atoms: O_13  and  C_14
REMARK    9  A    between atoms: C_14  and  C_15
REMARK   10  A    between atoms: C_15  and  C_16
REMARK   11  A    between atoms: C_15  and  C_17
REMARK   12  A    between atoms: C_15  and  C_18
REMARK                            x       y       z     vdW  Elec       q    Type
REMARK                         _______ _______ _______ _____ _____    ______ ____
ROOT
ATOM      1  C   UNL     1      45.527   5.055  11.657  0.00  0.00    +0.000 A 
ATOM      2  C   UNL     1      45.939   4.525  12.882  0.00  0.00    +0.000 A 
ATOM      3  C   UNL     1      46.727   5.288  13.751  0.00  0.00    +0.000 A 
ATOM      4  C   UNL     1      47.113   6.586  13.404  0.00  0.00    +0.000 A 
ATOM      5  C   UNL     1      46.682   7.122  12.188  0.00  0.00    +0.000 A 
ATOM      6  C   UNL     1      45.898   6.363  11.315  0.00  0.00    +0.000 A 
ENDROOT
BRANCH   1   8
ATOM      7  N   UNL     1      45.222   2.945  10.437  0.00  0.00    +0.000 N 
ATOM      8  C   UNL     1      44.799   4.237  10.649  0.00  0.00    +0.000 C 
ATOM      9  O   UNL     1      43.854   4.733  10.041  0.00  0.00    +0.000 OA
ATOM     10  H   UNL     1      45.784   2.469  11.137  0.00  0.00    +0.000 HD
BRANCH   7  11
ATOM     11  C   UNL     1      44.525   2.123   9.469  0.00  0.00    +0.000 C 
BRANCH  11  12
ATOM     12  C   UNL     1      45.461   1.401   8.481  0.00  0.00    +0.000 C 
BRANCH  12  14
ATOM     13  C   UNL     1      47.463   1.473   7.101  0.00  0.00    +0.000 C 
ATOM     14  N   UNL     1      46.522   2.259   7.907  0.00  0.00    +0.000 NA
ATOM     15  C   UNL     1      45.920   3.295   7.058  0.00  0.00    +0.000 C 
ENDBRANCH  12  14
ENDBRANCH  11  12
ENDBRANCH   7  11
ENDBRANCH   1   8
BRANCH   4  16
ATOM     16  O   UNL     1      47.909   7.412  14.150  0.00  0.00    +0.000 OA
BRANCH  16  17
ATOM     17  C   UNL     1      49.272   7.011  14.337  0.00  0.00    +0.000 C 
BRANCH  17  18
ATOM     18  C   UNL     1      49.780   7.442  15.747  0.00  0.00    +0.000 C 
ATOM     19  C   UNL     1      51.281   7.077  15.851  0.00  0.00    +0.000 C 
ATOM     20  C   UNL     1      49.676   8.977  15.893  0.00  0.00    +0.000 C 
BRANCH  18  21
ATOM     21  C   UNL     1      48.924   6.772  16.835  0.00  0.00    +0.000 A 
ATOM     22  C   UNL     1      48.603   5.408  16.836  0.00  0.00    +0.000 A 
ATOM     23  C   UNL     1      47.829   4.861  17.859  0.00  0.00    +0.000 A 
ATOM     24  C   UNL     1      47.387   5.695  18.867  0.00  0.00    +0.000 A 
ATOM     25  N   UNL     1      47.663   7.012  18.916  0.00  0.00    +0.000 NA
ATOM     26  C   UNL     1      48.423   7.512  17.912  0.00  0.00    +0.000 A 
ENDBRANCH  18  21
ENDBRANCH  17  18
ENDBRANCH  16  17
ENDBRANCH   4  16
TORSDOF 8
ENDMDL
MODEL 5
REMARK VINA RESULT:    -5.789      4.350      8.012
REMARK INTER + INTRA:          -9.419
REMARK INTER:                  -8.489
REMARK INTRA:                  -0.930
REMARK UNBOUND:                -0.922
REMARK  Name = 
REMARK  12 active torsions:
REMARK  status: ('A' for Active; 'I' for Inactive)
REMARK    1  A    between atoms: C_1  and  N_2
REMARK    2  A    between atoms: N_2  and  C_3
REMARK    3  A    between atoms: N_2  and  C_4
REMARK    4  A    between atoms: C_4  and  C_5
REMARK    5  A    between atoms: C_5  and  N_6
REMARK    6  A    between atoms: C_7  and  C_9
REMARK    7  A    between atoms: C_12  and  O_13
REMARK    8  A    between atoms: O_13  and  C_14
REMARK    9  A    between atoms: C_14  and  C_15
REMARK   10  A    between atoms: C_15  and  C_16
REMARK   11  A    between atoms: C_15  and  C_17
REMARK   12  A    between atoms: C_15  and  C_18
REMARK                            x       y       z     vdW  Elec       q    Type
REMARK                         _______ _______ _______ _____ _____    ______ ____
ROOT
ATOM      1  C   UNL     1      49.369   7.980  12.112  0.00  0.00    +0.000 A 
ATOM      2  C   UNL     1      48.380   8.945  11.904  0.00  0.00    +0.000 A 
ATOM      3  C   UNL     1      47.036   8.641  12.147  0.00  0.00    +0.000 A 
ATOM      4  C   UNL     1      46.667   7.370  12.599  0.00  0.00    +0.000 A 
ATOM      5  C   UNL     1      47.659   6.414  12.827  0.00  0.00    +0.000 A 
ATOM      6  C   UNL     1      49.002   6.711  12.581  0.00  0.00    +0.000 A 
ENDROOT
BRANCH   1   8
ATOM      7  N   UNL     1      51.396   7.326  10.888  0.00  0.00    +0.000 N 
ATOM      8  C   UNL     1      50.792   8.218  11.744  0.00  0.00    +0.000 C 
ATOM      9  O   UNL     1      51.379   9.190  12.212  0.00  0.00    +0.000 OA
ATOM     10  H   UNL     1      50.831   6.727  10.292  0.00  0.00    +0.000 HD
BRANCH   7  11
ATOM     11  C   UNL     1      52.776   7.539  10.505  0.00  0.00    +0.000 C 
BRANCH  11  12
ATOM     12  C   UNL     1      53.151   6.899   9.155  0.00  0.00    +0.000 C 
BRANCH  12  14
ATOM     13  C   UNL     1      54.490   5.286  10.390  0.00  0.00    +0.000 C 
ATOM     14  N   UNL     1      54.405   6.112   9.180  0.00  0.00    +0.000 NA
ATOM     15  C   UNL     1      54.467   5.237   8.002  0.00  0.00    +0.000 C 
ENDBRANCH  12  14
ENDBRANCH  11  12
ENDBRANCH   7  11
ENDBRANCH   1   8
BRANCH   4  16
ATOM     16  O   UNL     1      45.388   6.944  12.837  0.00  0.00    +0.000 OA
BRANCH  16  17
ATOM     17  C   UNL     1      44.564   6.685  11.694  0.00  0.00    +0.000 C 
BRANCH  17  18
ATOM     18  C   UNL     1      43.971   5.244  11.762  0.00  0.00    +0.000 C 
ATOM     19  C   UNL     1      44.386   4.615  13.115  0.00  0.00    +0.000 C 
ATOM     20  C   UNL     1      42.428   5.313  11.748  0.00  0.00    +0.000 C 
BRANCH  18  21
ATOM     21  C   UNL     1      44.451   4.427  10.551  0.00  0.00    +0.000 A 
ATOM     22  C   UNL     1      45.253   4.955   9.531  0.00  0.00    +0.000 A 
ATOM     23  C   UNL     1      45.662   4.156   8.463  0.00  0.00    +0.000 A 
ATOM     24  C   UNL     1      45.254   2.837   8.434  0.00  0.00    +0.000 A 
ATOM     25  N   UNL     1      44.482   2.278   9.385  0.00  0.00    +0.000 NA
ATOM     26  C   UNL     1      44.108   3.077  10.413  0.00  0.00    +0.000 A 
ENDBRANCH  18  21
ENDBRANCH  17  18
ENDBRANCH  16  17
ENDBRANCH   4  16
TORSDOF 8
ENDMDL
MODEL 6
REMARK VINA RESULT:    -5.784      1.735      2.433
REMARK INTER + INTRA:          -9.411
REMARK INTER:                  -8.374
REMARK INTRA:                  -1.037
REMARK UNBOUND:                -0.922
REMARK  Name = 
REMARK  12 active torsions:
REMARK  status: ('A' for Active; 'I' for Inactive)
REMARK    1  A    between atoms: C_1  and  N_2
REMARK    2  A    between atoms: N_2  and  C_3
REMARK    3  A    between atoms: N_2  and  C_4
REMARK    4  A    between atoms: C_4  and  C_5
REMARK    5  A    between atoms: C_5  and  N_6
REMARK    6  A    between atoms: C_7  and  C_9
REMARK    7  A    between atoms: C_12  and  O_13
REMARK    8  A    between atoms: O_13  and  C_14
REMARK    9  A    between atoms: C_14  and  C_15
REMARK   10  A    between atoms: C_15  and  C_16
REMARK   11  A    between atoms: C_15  and  C_17
REMARK   12  A    between atoms: C_15  and  C_18
REMARK                            x       y       z     vdW  Elec       q    Type
REMARK                         _______ _______ _______ _____ _____    ______ ____
ROOT
ATOM      1  C   UNL     1      46.121   6.701  12.572  0.00  0.00    +0.000 A 
ATOM      2  C   UNL     1      46.199   8.052  12.918  0.00  0.00    +0.000 A 
ATOM      3  C   UNL     1      47.192   8.498  13.798  0.00  0.00    +0.000 A 
ATOM      4  C   UNL     1      48.114   7.599  14.342  0.00  0.00    +0.000 A 
ATOM      5  C   UNL     1      48.048   6.252  13.978  0.00  0.00    +0.000 A 
ATOM      6  C   UNL     1      47.056   5.801  13.103  0.00  0.00    +0.000 A 
ENDROOT
BRANCH   1   8
ATOM      7  N   UNL     1      44.928   4.799  11.575  0.00  0.00    +0.000 N 
ATOM      8  C   UNL     1      45.007   6.162  11.744  0.00  0.00    +0.000 C 
ATOM      9  O   UNL     1      44.202   6.941  11.239  0.00  0.00    +0.000 OA
ATOM     10  H   UNL     1      45.399   4.175  12.224  0.00  0.00    +0.000 HD
BRANCH   7  11
ATOM     11  C   UNL     1      43.848   4.247  10.783  0.00  0.00    +0.000 C 
BRANCH  11  12
ATOM     12  C   UNL     1      44.109   2.809  10.296  0.00  0.00    +0.000 C 
BRANCH  12  14
ATOM     13  C   UNL     1      44.864   4.008   8.319  0.00  0.00    +0.000 C 
ATOM     14  N   UNL     1      44.466   2.705   8.863  0.00  0.00    +0.000 NA
ATOM     15  C   UNL     1      45.576   1.759   8.693  0.00  0.00    +0.000 C 
ENDBRANCH  12  14
ENDBRANCH  11  12
ENDBRANCH   7  11
ENDBRANCH   1   8
BRANCH   4  16
ATOM     16  O   UNL     1      49.102   7.907  15.237  0.00  0.00    +0.000 OA
BRANCH  16  17
ATOM     17  C   UNL     1      48.816   7.691  16.625  0.00  0.00    +0.000 C 
BRANCH  17  18
ATOM     18  C   UNL     1      49.795   6.636  17.226  0.00  0.00    +0.000 C 
ATOM     19  C   UNL     1      51.059   6.586  16.333  0.00  0.00    +0.000 C 
ATOM     20  C   UNL     1      50.251   7.089  18.632  0.00  0.00    +0.000 C 
BRANCH  18  21
ATOM     21  C   UNL     1      49.087   5.275  17.339  0.00  0.00    +0.000 A 
ATOM     22  C   UNL     1      49.767   4.050  17.370  0.00  0.00    +0.000 A 
ATOM     23  C   UNL     1      49.064   2.851  17.482  0.00  0.00    +0.000 A 
ATOM     24  C   UNL     1      47.687   2.900  17.559  0.00  0.00    +0.000 A 
ATOM     25  N   UNL     1      46.982   4.047  17.532  0.00  0.00    +0.000 NA
ATOM     26  C   UNL     1      47.693   5.196  17.430  0.00  0.00    +0.000 A 
ENDBRANCH  18  21
ENDBRANCH  17  18
ENDBRANCH  16  17
ENDBRANCH   4  16
TORSDOF 8
ENDMDL
MODEL 7
REMARK VINA RESULT:    -5.768      1.820      8.877
REMARK INTER + INTRA:          -9.388
REMARK INTER:                  -8.483
REMARK INTRA:                  -0.905
REMARK UNBOUND:                -0.922
REMARK  Name = 
REMARK  12 active torsions:
REMARK  status: ('A' for Active; 'I' for Inactive)
REMARK    1  A    between atoms: C_1  and  N_2
REMARK    2  A    between atoms: N_2  and  C_3
REMARK    3  A    between atoms: N_2  and  C_4
REMARK    4  A    between atoms: C_4  and  C_5
REMARK    5  A    between atoms: C_5  and  N_6
REMARK    6  A    between atoms: C_7  and  C_9
REMARK    7  A    between atoms: C_12  and  O_13
REMARK    8  A    between atoms: O_13  and  C_14
REMARK    9  A    between atoms: C_14  and  C_15
REMARK   10  A    between atoms: C_15  and  C_16
REMARK   11  A    between atoms: C_15  and  C_17
REMARK   12  A    between atoms: C_15  and  C_18
REMARK                            x       y       z     vdW  Elec       q    Type
REMARK                         _______ _______ _______ _____ _____    ______ ____
ROOT
ATOM      1  C   UNL     1      48.385   5.604  16.301  0.00  0.00    +0.000 A 
ATOM      2  C   UNL     1      48.481   6.497  15.231  0.00  0.00    +0.000 A 
ATOM      3  C   UNL     1      47.808   6.234  14.032  0.00  0.00    +0.000 A 
ATOM      4  C   UNL     1      47.037   5.077  13.890  0.00  0.00    +0.000 A 
ATOM      5  C   UNL     1      46.925   4.196  14.969  0.00  0.00    +0.000 A 
ATOM      6  C   UNL     1      47.598   4.452  16.167  0.00  0.00    +0.000 A 
ENDROOT
BRANCH   1   8
ATOM      7  N   UNL     1      49.730   4.655  18.125  0.00  0.00    +0.000 N 
ATOM      8  C   UNL     1      49.184   5.778  17.546  0.00  0.00    +0.000 C 
ATOM      9  O   UNL     1      49.328   6.903  18.016  0.00  0.00    +0.000 OA
ATOM     10  H   UNL     1      49.856   3.808  17.579  0.00  0.00    +0.000 HD
BRANCH   7  11
ATOM     11  C   UNL     1      50.520   4.796  19.331  0.00  0.00    +0.000 C 
BRANCH  11  12
ATOM     12  C   UNL     1      52.023   5.003  19.066  0.00  0.00    +0.000 C 
BRANCH  12  14
ATOM     13  C   UNL     1      53.750   4.864  17.358  0.00  0.00    +0.000 C 
ATOM     14  N   UNL     1      52.555   4.227  17.922  0.00  0.00    +0.000 NA
ATOM     15  C   UNL     1      52.901   2.869  18.360  0.00  0.00    +0.000 C 
ENDBRANCH  12  14
ENDBRANCH  11  12
ENDBRANCH   7  11
ENDBRANCH   1   8
BRANCH   4  16
ATOM     16  O   UNL     1      46.366   4.694  12.761  0.00  0.00    +0.000 OA
BRANCH  16  17
ATOM     17  C   UNL     1      44.934   4.687  12.824  0.00  0.00    +0.000 C 
BRANCH  17  18
ATOM     18  C   UNL     1      44.326   5.324  11.537  0.00  0.00    +0.000 C 
ATOM     19  C   UNL     1      42.790   5.392  11.711  0.00  0.00    +0.000 C 
ATOM     20  C   UNL     1      44.831   6.776  11.384  0.00  0.00    +0.000 C 
BRANCH  18  21
ATOM     21  C   UNL     1      44.753   4.509  10.303  0.00  0.00    +0.000 A 
ATOM     22  C   UNL     1      44.419   3.162  10.113  0.00  0.00    +0.000 A 
ATOM     23  C   UNL     1      44.830   2.483   8.966  0.00  0.00    +0.000 A 
ATOM     24  C   UNL     1      45.574   3.169   8.027  0.00  0.00    +0.000 A 
ATOM     25  N   UNL     1      45.925   4.462   8.158  0.00  0.00    +0.000 NA
ATOM     26  C   UNL     1      45.504   5.096   9.279  0.00  0.00    +0.000 A 
ENDBRANCH  18  21
ENDBRANCH  17  18
ENDBRANCH  16  17
ENDBRANCH   4  16
TORSDOF 8
ENDMDL
MODEL 8
REMARK VINA RESULT:    -5.736      2.549      9.234
REMARK INTER + INTRA:          -9.340
REMARK INTER:                  -8.381
REMARK INTRA:                  -0.959
REMARK UNBOUND:                -0.922
REMARK  Name = 
REMARK  12 active torsions:
REMARK  status: ('A' for Active; 'I' for Inactive)
REMARK    1  A    between atoms: C_1  and  N_2
REMARK    2  A    between atoms: N_2  and  C_3
REMARK    3  A    between atoms: N_2  and  C_4
REMARK    4  A    between atoms: C_4  and  C_5
REMARK    5  A    between atoms: C_5  and  N_6
REMARK    6  A    between atoms: C_7  and  C_9
REMARK    7  A    between atoms: C_12  and  O_13
REMARK    8  A    between atoms: O_13  and  C_14
REMARK    9  A    between atoms: C_14  and  C_15
REMARK   10  A    between atoms: C_15  and  C_16
REMARK   11  A    between atoms: C_15  and  C_17
REMARK   12  A    between atoms: C_15  and  C_18
REMARK                            x       y       z     vdW  Elec       q    Type
REMARK                         _______ _______ _______ _____ _____    ______ ____
ROOT
ATOM      1  C   UNL     1      48.535   5.966  15.891  0.00  0.00    +0.000 A 
ATOM      2  C   UNL     1      47.918   4.755  16.215  0.00  0.00    +0.000 A 
ATOM      3  C   UNL     1      47.093   4.114  15.285  0.00  0.00    +0.000 A 
ATOM      4  C   UNL     1      46.875   4.676  14.023  0.00  0.00    +0.000 A 
ATOM      5  C   UNL     1      47.510   5.875  13.693  0.00  0.00    +0.000 A 
ATOM      6  C   UNL     1      48.331   6.522  14.621  0.00  0.00    +0.000 A 
ENDROOT
BRANCH   1   8
ATOM      7  N   UNL     1      49.620   6.139  18.088  0.00  0.00    +0.000 N 
ATOM      8  C   UNL     1      49.315   6.746  16.892  0.00  0.00    +0.000 C 
ATOM      9  O   UNL     1      49.656   7.895  16.625  0.00  0.00    +0.000 OA
ATOM     10  H   UNL     1      49.598   5.126  18.168  0.00  0.00    +0.000 HD
BRANCH   7  11
ATOM     11  C   UNL     1      50.386   6.871  19.076  0.00  0.00    +0.000 C 
BRANCH  11  12
ATOM     12  C   UNL     1      49.649   7.063  20.414  0.00  0.00    +0.000 C 
BRANCH  12  14
ATOM     13  C   UNL     1      49.771   9.426  19.850  0.00  0.00    +0.000 C 
ATOM     14  N   UNL     1      49.027   8.395  20.583  0.00  0.00    +0.000 NA
ATOM     15  C   UNL     1      47.644   8.365  20.089  0.00  0.00    +0.000 C 
ENDBRANCH  12  14
ENDBRANCH  11  12
ENDBRANCH   7  11
ENDBRANCH   1   8
BRANCH   4  16
ATOM     16  O   UNL     1      46.064   4.164  13.047  0.00  0.00    +0.000 OA
BRANCH  16  17
ATOM     17  C   UNL     1      45.098   5.051  12.469  0.00  0.00    +0.000 C 
BRANCH  17  18
ATOM     18  C   UNL     1      44.119   4.266  11.544  0.00  0.00    +0.000 C 
ATOM     19  C   UNL     1      43.682   2.979  12.285  0.00  0.00    +0.000 C 
ATOM     20  C   UNL     1      42.844   5.104  11.301  0.00  0.00    +0.000 C 
BRANCH  18  21
ATOM     21  C   UNL     1      44.798   3.978  10.194  0.00  0.00    +0.000 A 
ATOM     22  C   UNL     1      44.846   2.706   9.609  0.00  0.00    +0.000 A 
ATOM     23  C   UNL     1      45.470   2.514   8.376  0.00  0.00    +0.000 A 
ATOM     24  C   UNL     1      46.042   3.604   7.752  0.00  0.00    +0.000 A 
ATOM     25  N   UNL     1      46.029   4.848   8.269  0.00  0.00    +0.000 NA
ATOM     26  C   UNL     1      45.408   5.003   9.463  0.00  0.00    +0.000 A 
ENDBRANCH  18  21
ENDBRANCH  17  18
ENDBRANCH  16  17
ENDBRANCH   4  16
TORSDOF 8
ENDMDL
MODEL 9
REMARK VINA RESULT:    -5.438      2.455      8.957
REMARK INTER + INTRA:          -8.903
REMARK INTER:                  -8.030
REMARK INTRA:                  -0.874
REMARK UNBOUND:                -0.922
REMARK  Name = 
REMARK  12 active torsions:
REMARK  status: ('A' for Active; 'I' for Inactive)
REMARK    1  A    between atoms: C_1  and  N_2
REMARK    2  A    between atoms: N_2  and  C_3
REMARK    3  A    between atoms: N_2  and  C_4
REMARK    4  A    between atoms: C_4  and  C_5
REMARK    5  A    between atoms: C_5  and  N_6
REMARK    6  A    between atoms: C_7  and  C_9
REMARK    7  A    between atoms: C_12  and  O_13
REMARK    8  A    between atoms: O_13  and  C_14
REMARK    9  A    between atoms: C_14  and  C_15
REMARK   10  A    between atoms: C_15  and  C_16
REMARK   11  A    between atoms: C_15  and  C_17
REMARK   12  A    between atoms: C_15  and  C_18
REMARK                            x       y       z     vdW  Elec       q    Type
REMARK                         _______ _______ _______ _____ _____    ______ ____
ROOT
ATOM      1  C   UNL     1      48.951   7.437  13.916  0.00  0.00    +0.000 A 
ATOM      2  C   UNL     1      48.864   7.883  12.595  0.00  0.00    +0.000 A 
ATOM      3  C   UNL     1      47.852   7.405  11.755  0.00  0.00    +0.000 A 
ATOM      4  C   UNL     1      46.919   6.476  12.225  0.00  0.00    +0.000 A 
ATOM      5  C   UNL     1      46.995   6.047  13.552  0.00  0.00    +0.000 A 
ATOM      6  C   UNL     1      48.006   6.518  14.394  0.00  0.00    +0.000 A 
ENDROOT
BRANCH   1   8
ATOM      7  N   UNL     1      51.353   7.440  14.432  0.00  0.00    +0.000 N 
ATOM      8  C   UNL     1      50.083   7.819  14.804  0.00  0.00    +0.000 C 
ATOM      9  O   UNL     1      49.854   8.452  15.832  0.00  0.00    +0.000 OA
ATOM     10  H   UNL     1      51.551   7.196  13.466  0.00  0.00    +0.000 HD
BRANCH   7  11
ATOM     11  C   UNL     1      52.474   7.807  15.272  0.00  0.00    +0.000 C 
BRANCH  11  12
ATOM     12  C   UNL     1      52.977   6.661  16.170  0.00  0.00    +0.000 C 
BRANCH  12  14
ATOM     13  C   UNL     1      52.645   8.274  17.960  0.00  0.00    +0.000 C 
ATOM     14  N   UNL     1      52.703   6.849  17.612  0.00  0.00    +0.000 NA
ATOM     15  C   UNL     1      51.422   6.222  17.962  0.00  0.00    +0.000 C 
ENDBRANCH  12  14
ENDBRANCH  11  12
ENDBRANCH   7  11
ENDBRANCH   1   8
BRANCH   4  16
ATOM     16  O   UNL     1      45.912   5.910  11.492  0.00  0.00    +0.000 OA
BRANCH  16  17
ATOM     17  C   UNL     1      45.443   4.623  11.912  0.00  0.00    +0.000 C 
BRANCH  17  18
ATOM     18  C   UNL     1      44.363   4.085  10.925  0.00  0.00    +0.000 C 
ATOM     19  C   UNL     1      43.529   3.008  11.661  0.00  0.00    +0.000 C 
ATOM     20  C   UNL     1      43.393   5.224  10.539  0.00  0.00    +0.000 C 
BRANCH  18  21
ATOM     21  C   UNL     1      45.043   3.549   9.653  0.00  0.00    +0.000 A 
ATOM     22  C   UNL     1      45.556   4.374   8.644  0.00  0.00    +0.000 A 
ATOM     23  C   UNL     1      46.169   3.824   7.519  0.00  0.00    +0.000 A 
ATOM     24  C   UNL     1      46.255   2.449   7.424  0.00  0.00    +0.000 A 
ATOM     25  N   UNL     1      45.779   1.608   8.361  0.00  0.00    +0.000 NA
ATOM     26  C   UNL     1      45.195   2.173   9.445  0.00  0.00    +0.000 A 
ENDBRANCH  18  21
ENDBRANCH  17  18
ENDBRANCH  16  17
ENDBRANCH   4  16
TORSDOF 8
ENDMDL
