MODEL 1
REMARK VINA RESULT:    -7.743      0.000      0.000
REMARK INTER + INTRA:         -10.292
REMARK INTER:                  -9.779
REMARK INTRA:                  -0.512
REMARK UNBOUND:                -0.512
REMARK  Name = 
REMARK  5 active torsions:
REMARK  status: ('A' for Active; 'I' for Inactive)
REMARK    1  A    between atoms: N_1  and  C_2
REMARK    2  A    between atoms: C_2  and  C_3
REMARK    3  A    between atoms: C_3  and  C_4
REMARK    4  A    between atoms: C_7  and  C_8
REMARK    5  A    between atoms: C_8  and  N_9
REMARK                            x       y       z     vdW  Elec       q    Type
REMARK                         _______ _______ _______ _____ _____    ______ ____
ROOT
ATOM      1  C   UNL     1      45.859   3.220   7.731  0.00  0.00    +0.000 A 
ATOM      2  C   UNL     1      45.449   2.169   8.546  0.00  0.00    +0.000 A 
ATOM      3  C   UNL     1      44.921   2.455   9.804  0.00  0.00    +0.000 A 
ATOM      4  C   UNL     1      44.827   3.781  10.232  0.00  0.00    +0.000 A 
ATOM      5  C   UNL     1      45.265   4.764   9.351  0.00  0.00    +0.000 A 
ATOM      6  N   UNL     1      45.768   4.514   8.119  0.00  0.00    +0.000 NA
ENDROOT
BRANCH   1   7
ATOM      7  C   UNL     1      46.465   2.946   6.378  0.00  0.00    +0.000 C 
BRANCH   7   8
ATOM      8  C   UNL     1      47.350   1.698   6.414  0.00  0.00    +0.000 C 
BRANCH   8   9
ATOM      9  N   UNL     1      48.561   1.886   5.611  0.00  0.00    +0.000 NA
ATOM     10  H   UNL     1      48.356   2.535   4.851  0.00  0.00    +0.000 HD
ATOM     11  H   UNL     1      48.805   1.002   5.163  0.00  0.00    +0.000 HD
ENDBRANCH   8   9
ENDBRANCH   7   8
ENDBRANCH   1   7
BRANCH   4  12
ATOM     12  C   UNL     1      44.282   4.153  11.580  0.00  0.00    +0.000 C 
BRANCH  12  13
ATOM     13  N   UNL     1      45.331   4.391  12.565  0.00  0.00    +0.000 N 
ATOM     14  N   UNL     1      45.934   3.331  13.156  0.00  0.00    +0.000 NA
ATOM     15  C   UNL     1      46.944   3.882  13.833  0.00  0.00    +0.000 A 
ATOM     16  C   UNL     1      47.013   5.283  13.674  0.00  0.00    +0.000 A 
ATOM     17  C   UNL     1      47.870   6.307  14.116  0.00  0.00    +0.000 A 
ATOM     18  C   UNL     1      47.613   7.622  13.716  0.00  0.00    +0.000 A 
ATOM     19  C   UNL     1      46.516   7.921  12.907  0.00  0.00    +0.000 A 
ATOM     20  C   UNL     1      45.650   6.915  12.463  0.00  0.00    +0.000 A 
ATOM     21  C   UNL     1      45.931   5.597  12.855  0.00  0.00    +0.000 A 
ENDBRANCH  12  13
ENDBRANCH   4  12
TORSDOF 5
ENDMDL
MODEL 2
REMARK VINA RESULT:    -6.992      1.121      2.060
REMARK INTER + INTRA:          -9.344
REMARK INTER:                  -8.994
REMARK INTRA:                  -0.350
REMARK UNBOUND:                -0.512
REMARK  Name = 
REMARK  5 active torsions:
REMARK  status: ('A' for Active; 'I' for Inactive)
REMARK    1  A    between atoms: N_1  and  C_2
REMARK    2  A    between atoms: C_2  and  C_3
REMARK    3  A    between atoms: C_3  and  C_4
REMARK    4  A    between atoms: C_7  and  C_8
REMARK    5  A    between atoms: C_8  and  N_9
REMARK                            x       y       z     vdW  Elec       q    Type
REMARK                         _______ _______ _______ _____ _____    ______ ____
ROOT
ATOM      1  C   UNL     1      45.919   3.409   7.747  0.00  0.00    +0.000 A 
ATOM      2  C   UNL     1      45.285   2.520   8.610  0.00  0.00    +0.000 A 
ATOM      3  C   UNL     1      44.785   2.996   9.821  0.00  0.00    +0.000 A 
ATOM      4  C   UNL     1      44.940   4.343  10.155  0.00  0.00    +0.000 A 
ATOM      5  C   UNL     1      45.591   5.154   9.232  0.00  0.00    +0.000 A 
ATOM      6  N   UNL     1      46.073   4.721   8.043  0.00  0.00    +0.000 NA
ENDROOT
BRANCH   1   7
ATOM      7  C   UNL     1      46.502   2.922   6.444  0.00  0.00    +0.000 C 
BRANCH   7   8
ATOM      8  C   UNL     1      47.508   1.794   6.677  0.00  0.00    +0.000 C 
BRANCH   8   9
ATOM      9  N   UNL     1      48.574   1.822   5.673  0.00  0.00    +0.000 NA
ATOM     10  H   UNL     1      49.217   2.583   5.894  0.00  0.00    +0.000 HD
ATOM     11  H   UNL     1      48.171   2.055   4.765  0.00  0.00    +0.000 HD
ENDBRANCH   8   9
ENDBRANCH   7   8
ENDBRANCH   1   7
BRANCH   4  12
ATOM     12  C   UNL     1      44.438   4.912  11.450  0.00  0.00    +0.000 C 
BRANCH  12  13
ATOM     13  N   UNL     1      44.995   6.228  11.742  0.00  0.00    +0.000 N 
ATOM     14  N   UNL     1      44.286   7.333  11.408  0.00  0.00    +0.000 NA
ATOM     15  C   UNL     1      44.973   8.328  11.974  0.00  0.00    +0.000 A 
ATOM     16  C   UNL     1      46.108   7.880  12.683  0.00  0.00    +0.000 A 
ATOM     17  C   UNL     1      47.111   8.481  13.464  0.00  0.00    +0.000 A 
ATOM     18  C   UNL     1      48.094   7.670  14.041  0.00  0.00    +0.000 A 
ATOM     19  C   UNL     1      48.094   6.290  13.835  0.00  0.00    +0.000 A 
ATOM     20  C   UNL     1      47.105   5.677  13.055  0.00  0.00    +0.000 A 
ATOM     21  C   UNL     1      46.115   6.500  12.498  0.00  0.00    +0.000 A 
ENDBRANCH  12  13
ENDBRANCH   4  12
TORSDOF 5
ENDMDL
MODEL 3
REMARK VINA RESULT:    -6.857      1.724      6.737
REMARK INTER + INTRA:          -9.173
REMARK INTER:                  -8.760
REMARK INTRA:                  -0.413
REMARK UNBOUND:                -0.512
REMARK  Name = 
REMARK  5 active torsions:
REMARK  status: ('A' for Active; 'I' for Inactive)
REMARK    1  A    between atoms: N_1  and  C_2
REMARK    2  A    between atoms: C_2  and  C_3
REMARK    3  A    between atoms: C_3  and  C_4
REMARK    4  A    between atoms: C_7  and  C_8
REMARK    5  A    between atoms: C_8  and  N_9
REMARK                            x       y       z     vdW  Elec       q    Type
REMARK                         _______ _______ _______ _____ _____    ______ ____
ROOT
ATOM      1  C   UNL     1      46.490   4.735  13.810  0.00  0.00    +0.000 A 
ATOM      2  C   UNL     1      46.030   5.784  13.018  0.00  0.00    +0.000 A 
ATOM      3  C   UNL     1      45.319   5.490  11.856  0.00  0.00    +0.000 A 
ATOM      4  C   UNL     1      45.093   4.159  11.498  0.00  0.00    +0.000 A 
ATOM      5  C   UNL     1      45.593   3.180  12.349  0.00  0.00    +0.000 A 
ATOM      6  N   UNL     1      46.274   3.438  13.490  0.00  0.00    +0.000 NA
ENDROOT
BRANCH   1   7
ATOM      7  C   UNL     1      47.291   5.016  15.056  0.00  0.00    +0.000 C 
BRANCH   7   8
ATOM      8  C   UNL     1      47.394   3.770  15.938  0.00  0.00    +0.000 C 
BRANCH   8   9
ATOM      9  N   UNL     1      48.746   3.617  16.481  0.00  0.00    +0.000 NA
ATOM     10  H   UNL     1      48.757   3.962  17.442  0.00  0.00    +0.000 HD
ATOM     11  H   UNL     1      49.384   4.222  15.962  0.00  0.00    +0.000 HD
ENDBRANCH   8   9
ENDBRANCH   7   8
ENDBRANCH   1   7
BRANCH   4  12
ATOM     12  C   UNL     1      44.348   3.779  10.251  0.00  0.00    +0.000 C 
BRANCH  12  13
ATOM     13  N   UNL     1      45.193   3.793   9.063  0.00  0.00    +0.000 N 
ATOM     14  N   UNL     1      45.639   4.979   8.585  0.00  0.00    +0.000 NA
ATOM     15  C   UNL     1      46.515   4.628   7.642  0.00  0.00    +0.000 A 
ATOM     16  C   UNL     1      46.654   3.229   7.513  0.00  0.00    +0.000 A 
ATOM     17  C   UNL     1      47.439   2.360   6.734  0.00  0.00    +0.000 A 
ATOM     18  C   UNL     1      47.302   0.980   6.915  0.00  0.00    +0.000 A 
ATOM     19  C   UNL     1      46.391   0.468   7.840  0.00  0.00    +0.000 A 
ATOM     20  C   UNL     1      45.599   1.319   8.620  0.00  0.00    +0.000 A 
ATOM     21  C   UNL     1      45.760   2.701   8.442  0.00  0.00    +0.000 A 
ENDBRANCH  12  13
ENDBRANCH   4  12
TORSDOF 5
ENDMDL
MODEL 4
REMARK VINA RESULT:    -6.394      2.474      6.310
REMARK INTER + INTRA:          -8.588
REMARK INTER:                  -8.013
REMARK INTRA:                  -0.574
REMARK UNBOUND:                -0.512
REMARK  Name = 
REMARK  5 active torsions:
REMARK  status: ('A' for Active; 'I' for Inactive)
REMARK    1  A    between atoms: N_1  and  C_2
REMARK    2  A    between atoms: C_2  and  C_3
REMARK    3  A    between atoms: C_3  and  C_4
REMARK    4  A    between atoms: C_7  and  C_8
REMARK    5  A    between atoms: C_8  and  N_9
REMARK                            x       y       z     vdW  Elec       q    Type
REMARK                         _______ _______ _______ _____ _____    ______ ____
ROOT
ATOM      1  C   UNL     1      48.216   7.005  13.452  0.00  0.00    +0.000 A 
ATOM      2  C   UNL     1      47.301   7.995  13.104  0.00  0.00    +0.000 A 
ATOM      3  C   UNL     1      45.984   7.630  12.828  0.00  0.00    +0.000 A 
ATOM      4  C   UNL     1      45.609   6.287  12.887  0.00  0.00    +0.000 A 
ATOM      5  C   UNL     1      46.592   5.368  13.239  0.00  0.00    +0.000 A 
ATOM      6  N   UNL     1      47.874   5.697  13.527  0.00  0.00    +0.000 NA
ENDROOT
BRANCH   1   7
ATOM      7  C   UNL     1      49.656   7.359  13.725  0.00  0.00    +0.000 C 
BRANCH   7   8
ATOM      8  C   UNL     1      49.938   7.403  15.227  0.00  0.00    +0.000 C 
BRANCH   8   9
ATOM      9  N   UNL     1      49.505   6.166  15.882  0.00  0.00    +0.000 NA
ATOM     10  H   UNL     1      48.493   6.079  15.789  0.00  0.00    +0.000 HD
ATOM     11  H   UNL     1      49.686   6.238  16.884  0.00  0.00    +0.000 HD
ENDBRANCH   8   9
ENDBRANCH   7   8
ENDBRANCH   1   7
BRANCH   4  12
ATOM     12  C   UNL     1      44.211   5.829  12.586  0.00  0.00    +0.000 C 
BRANCH  12  13
ATOM     13  N   UNL     1      44.174   4.533  11.919  0.00  0.00    +0.000 N 
ATOM     14  N   UNL     1      43.478   3.519  12.486  0.00  0.00    +0.000 NA
ATOM     15  C   UNL     1      43.488   2.569  11.549  0.00  0.00    +0.000 A 
ATOM     16  C   UNL     1      44.168   2.961  10.375  0.00  0.00    +0.000 A 
ATOM     17  C   UNL     1      44.429   2.383   9.120  0.00  0.00    +0.000 A 
ATOM     18  C   UNL     1      45.146   3.120   8.173  0.00  0.00    +0.000 A 
ATOM     19  C   UNL     1      45.612   4.402   8.469  0.00  0.00    +0.000 A 
ATOM     20  C   UNL     1      45.365   4.990   9.715  0.00  0.00    +0.000 A 
ATOM     21  C   UNL     1      44.628   4.247  10.649  0.00  0.00    +0.000 A 
ENDBRANCH  12  13
ENDBRANCH   4  12
TORSDOF 5
ENDMDL
MODEL 5
REMARK VINA RESULT:    -6.102      1.868      6.168
REMARK INTER + INTRA:          -8.219
REMARK INTER:                  -7.454
REMARK INTRA:                  -0.765
REMARK UNBOUND:                -0.512
REMARK  Name = 
REMARK  5 active torsions:
REMARK  status: ('A' for Active; 'I' for Inactive)
REMARK    1  A    between atoms: N_1  and  C_2
REMARK    2  A    between atoms: C_2  and  C_3
REMARK    3  A    between atoms: C_3  and  C_4
REMARK    4  A    between atoms: C_7  and  C_8
REMARK    5  A    between atoms: C_8  and  N_9
REMARK                            x       y       z     vdW  Elec       q    Type
REMARK                         _______ _______ _______ _____ _____    ______ ____
ROOT
ATOM      1  C   UNL     1      46.587   6.517  13.160  0.00  0.00    +0.000 A 
ATOM      2  C   UNL     1      45.948   7.376  12.271  0.00  0.00    +0.000 A 
ATOM      3  C   UNL     1      45.102   6.839  11.302  0.00  0.00    +0.000 A 
ATOM      4  C   UNL     1      44.923   5.456  11.226  0.00  0.00    +0.000 A 
ATOM      5  C   UNL     1      45.607   4.677  12.153  0.00  0.00    +0.000 A 
ATOM      6  N   UNL     1      46.421   5.174  13.114  0.00  0.00    +0.000 NA
ENDROOT
BRANCH   1   7
ATOM      7  C   UNL     1      47.533   7.060  14.200  0.00  0.00    +0.000 C 
BRANCH   7   8
ATOM      8  C   UNL     1      48.855   7.498  13.567  0.00  0.00    +0.000 C 
BRANCH   8   9
ATOM      9  N   UNL     1      49.358   6.482  12.639  0.00  0.00    +0.000 NA
ATOM     10  H   UNL     1      48.943   6.639  11.720  0.00  0.00    +0.000 HD
ATOM     11  H   UNL     1      49.029   5.564  12.939  0.00  0.00    +0.000 HD
ENDBRANCH   8   9
ENDBRANCH   7   8
ENDBRANCH   1   7
BRANCH   4  12
ATOM     12  C   UNL     1      44.039   4.817  10.195  0.00  0.00    +0.000 C 
BRANCH  12  13
ATOM     13  N   UNL     1      44.616   3.600   9.634  0.00  0.00    +0.000 N 
ATOM     14  N   UNL     1      44.083   2.401   9.971  0.00  0.00    +0.000 NA
ATOM     15  C   UNL     1      44.701   1.543   9.157  0.00  0.00    +0.000 A 
ATOM     16  C   UNL     1      45.616   2.173   8.286  0.00  0.00    +0.000 A 
ATOM     17  C   UNL     1      46.465   1.759   7.244  0.00  0.00    +0.000 A 
ATOM     18  C   UNL     1      47.234   2.719   6.577  0.00  0.00    +0.000 A 
ATOM     19  C   UNL     1      47.175   4.063   6.946  0.00  0.00    +0.000 A 
ATOM     20  C   UNL     1      46.339   4.491   7.984  0.00  0.00    +0.000 A 
ATOM     21  C   UNL     1      45.559   3.521   8.632  0.00  0.00    +0.000 A 
ENDBRANCH  12  13
ENDBRANCH   4  12
TORSDOF 5
ENDMDL
MODEL 6
REMARK VINA RESULT:    -6.089      1.893      2.693
REMARK INTER + INTRA:          -8.203
REMARK INTER:                  -7.703
REMARK INTRA:                  -0.500
REMARK UNBOUND:                -0.512
REMARK  Name = 
REMARK  5 active torsions:
REMARK  status: ('A' for Active; 'I' for Inactive)
REMARK    1  A    between atoms: N_1  and  C_2
REMARK    2  A    between atoms: C_2  and  C_3
REMARK    3  A    between atoms: C_3  and  C_4
REMARK    4  A    between atoms: C_7  and  C_8
REMARK    5  A    between atoms: C_8  and  N_9
REMARK                            x       y       z     vdW  Elec       q    Type
REMARK                         _______ _______ _______ _____ _____    ______ ____
ROOT
ATOM      1  C   UNL     1      44.677   2.665   9.466  0.00  0.00    +0.000 A 
ATOM      2  C   UNL     1      45.258   3.887   9.142  0.00  0.00    +0.000 A 
ATOM      3  C   UNL     1      44.998   4.994   9.948  0.00  0.00    +0.000 A 
ATOM      4  C   UNL     1      44.152   4.866  11.051  0.00  0.00    +0.000 A 
ATOM      5  C   UNL     1      43.614   3.607  11.294  0.00  0.00    +0.000 A 
ATOM      6  N   UNL     1      43.862   2.513  10.537  0.00  0.00    +0.000 NA
ENDROOT
BRANCH   1   7
ATOM      7  C   UNL     1      44.910   1.454   8.598  0.00  0.00    +0.000 C 
BRANCH   7   8
ATOM      8  C   UNL     1      46.354   1.406   8.095  0.00  0.00    +0.000 C 
BRANCH   8   9
ATOM      9  N   UNL     1      46.776   0.028   7.832  0.00  0.00    +0.000 NA
ATOM     10  H   UNL     1      45.947  -0.559   7.739  0.00  0.00    +0.000 HD
ATOM     11  H   UNL     1      47.278  -0.328   8.647  0.00  0.00    +0.000 HD
ENDBRANCH   8   9
ENDBRANCH   7   8
ENDBRANCH   1   7
BRANCH   4  12
ATOM     12  C   UNL     1      43.820   6.024  11.947  0.00  0.00    +0.000 C 
BRANCH  12  13
ATOM     13  N   UNL     1      45.007   6.667  12.499  0.00  0.00    +0.000 N 
ATOM     14  N   UNL     1      45.928   5.911  13.143  0.00  0.00    +0.000 NA
ATOM     15  C   UNL     1      46.944   6.754  13.341  0.00  0.00    +0.000 A 
ATOM     16  C   UNL     1      46.699   8.042  12.818  0.00  0.00    +0.000 A 
ATOM     17  C   UNL     1      47.420   9.245  12.721  0.00  0.00    +0.000 A 
ATOM     18  C   UNL     1      46.824  10.342  12.090  0.00  0.00    +0.000 A 
ATOM     19  C   UNL     1      45.529  10.254  11.578  0.00  0.00    +0.000 A 
ATOM     20  C   UNL     1      44.795   9.065  11.671  0.00  0.00    +0.000 A 
ATOM     21  C   UNL     1      45.412   7.968  12.289  0.00  0.00    +0.000 A 
ENDBRANCH  12  13
ENDBRANCH   4  12
TORSDOF 5
ENDMDL
MODEL 7
REMARK VINA RESULT:    -5.137      2.336      4.087
REMARK INTER + INTRA:          -7.001
REMARK INTER:                  -6.242
REMARK INTRA:                  -0.759
REMARK UNBOUND:                -0.512
REMARK  Name = 
REMARK  5 active torsions:
REMARK  status: ('A' for Active; 'I' for Inactive)
REMARK    1  A    between atoms: N_1  and  C_2
REMARK    2  A    between atoms: C_2  and  C_3
REMARK    3  A    between atoms: C_3  and  C_4
REMARK    4  A    between atoms: C_7  and  C_8
REMARK    5  A    between atoms: C_8  and  N_9
REMARK                            x       y       z     vdW  Elec       q    Type
REMARK                         _______ _______ _______ _____ _____    ______ ____
ROOT
ATOM      1  C   UNL     1      44.891   3.982  11.110  0.00  0.00    +0.000 A 
ATOM      2  C   UNL     1      45.311   3.892  12.434  0.00  0.00    +0.000 A 
ATOM      3  C   UNL     1      45.772   5.039  13.076  0.00  0.00    +0.000 A 
ATOM      4  C   UNL     1      45.822   6.250  12.383  0.00  0.00    +0.000 A 
ATOM      5  C   UNL     1      45.387   6.243  11.062  0.00  0.00    +0.000 A 
ATOM      6  N   UNL     1      44.920   5.146  10.420  0.00  0.00    +0.000 NA
ENDROOT
BRANCH   1   7
ATOM      7  C   UNL     1      44.418   2.754  10.374  0.00  0.00    +0.000 C 
BRANCH   7   8
ATOM      8  C   UNL     1      45.116   2.620   9.019  0.00  0.00    +0.000 C 
BRANCH   8   9
ATOM      9  N   UNL     1      44.437   3.417   7.994  0.00  0.00    +0.000 NA
ATOM     10  H   UNL     1      44.149   2.801   7.233  0.00  0.00    +0.000 HD
ATOM     11  H   UNL     1      45.105   4.070   7.584  0.00  0.00    +0.000 HD
ENDBRANCH   8   9
ENDBRANCH   7   8
ENDBRANCH   1   7
BRANCH   4  12
ATOM     12  C   UNL     1      46.323   7.517  13.014  0.00  0.00    +0.000 C 
BRANCH  12  13
ATOM     13  N   UNL     1      47.773   7.653  12.930  0.00  0.00    +0.000 N 
ATOM     14  N   UNL     1      48.317   8.251  11.844  0.00  0.00    +0.000 NA
ATOM     15  C   UNL     1      49.605   8.382  12.170  0.00  0.00    +0.000 A 
ATOM     16  C   UNL     1      49.898   7.892  13.461  0.00  0.00    +0.000 A 
ATOM     17  C   UNL     1      51.039   7.825  14.279  0.00  0.00    +0.000 A 
ATOM     18  C   UNL     1      50.924   7.262  15.555  0.00  0.00    +0.000 A 
ATOM     19  C   UNL     1      49.703   6.760  16.006  0.00  0.00    +0.000 A 
ATOM     20  C   UNL     1      48.558   6.814  15.202  0.00  0.00    +0.000 A 
ATOM     21  C   UNL     1      48.684   7.398  13.933  0.00  0.00    +0.000 A 
ENDBRANCH  12  13
ENDBRANCH   4  12
TORSDOF 5
ENDMDL
MODEL 8
REMARK VINA RESULT:    -5.034      3.545      5.628
REMARK INTER + INTRA:          -6.871
REMARK INTER:                  -6.079
REMARK INTRA:                  -0.792
REMARK UNBOUND:                -0.512
REMARK  Name = 
REMARK  5 active torsions:
REMARK  status: ('A' for Active; 'I' for Inactive)
REMARK    1  A    between atoms: N_1  and  C_2
REMARK    2  A    between atoms: C_2  and  C_3
REMARK    3  A    between atoms: C_3  and  C_4
REMARK    4  A    between atoms: C_7  and  C_8
REMARK    5  A    between atoms: C_8  and  N_9
REMARK                            x       y       z     vdW  Elec       q    Type
REMARK                         _______ _______ _______ _____ _____    ______ ____
ROOT
ATOM      1  C   UNL     1      45.172   5.243  11.733  0.00  0.00    +0.000 A 
ATOM      2  C   UNL     1      45.799   6.254  11.010  0.00  0.00    +0.000 A 
ATOM      3  C   UNL     1      47.029   6.737  11.452  0.00  0.00    +0.000 A 
ATOM      4  C   UNL     1      47.602   6.216  12.614  0.00  0.00    +0.000 A 
ATOM      5  C   UNL     1      46.900   5.212  13.273  0.00  0.00    +0.000 A 
ATOM      6  N   UNL     1      45.712   4.715  12.856  0.00  0.00    +0.000 NA
ENDROOT
BRANCH   1   7
ATOM      7  C   UNL     1      43.825   4.720  11.302  0.00  0.00    +0.000 C 
BRANCH   7   8
ATOM      8  C   UNL     1      42.692   5.559  11.894  0.00  0.00    +0.000 C 
BRANCH   8   9
ATOM      9  N   UNL     1      42.646   5.429  13.353  0.00  0.00    +0.000 NA
ATOM     10  H   UNL     1      43.418   5.961  13.757  0.00  0.00    +0.000 HD
ATOM     11  H   UNL     1      42.818   4.455  13.607  0.00  0.00    +0.000 HD
ENDBRANCH   8   9
ENDBRANCH   7   8
ENDBRANCH   1   7
BRANCH   4  12
ATOM     12  C   UNL     1      48.916   6.706  13.150  0.00  0.00    +0.000 C 
BRANCH  12  13
ATOM     13  N   UNL     1      48.760   7.737  14.170  0.00  0.00    +0.000 N 
ATOM     14  N   UNL     1      48.453   9.000  13.789  0.00  0.00    +0.000 NA
ATOM     15  C   UNL     1      48.199   9.622  14.942  0.00  0.00    +0.000 A 
ATOM     16  C   UNL     1      48.321   8.774  16.064  0.00  0.00    +0.000 A 
ATOM     17  C   UNL     1      48.131   8.903  17.451  0.00  0.00    +0.000 A 
ATOM     18  C   UNL     1      48.340   7.787  18.268  0.00  0.00    +0.000 A 
ATOM     19  C   UNL     1      48.744   6.568  17.723  0.00  0.00    +0.000 A 
ATOM     20  C   UNL     1      48.942   6.424  16.344  0.00  0.00    +0.000 A 
ATOM     21  C   UNL     1      48.711   7.546  15.534  0.00  0.00    +0.000 A 
ENDBRANCH  12  13
ENDBRANCH   4  12
TORSDOF 5
ENDMDL
MODEL 9
REMARK VINA RESULT:    -4.833      3.206      5.337
REMARK INTER + INTRA:          -6.617
REMARK INTER:                  -5.923
REMARK INTRA:                  -0.694
REMARK UNBOUND:                -0.512
REMARK  Name = 
REMARK  5 active torsions:
REMARK  status: ('A' for Active; 'I' for Inactive)
REMARK    1  A    between atoms: N_1  and  C_2
REMARK    2  A    between atoms: C_2  and  C_3
REMARK    3  A    between atoms: C_3  and  C_4
REMARK    4  A    between atoms: C_7  and  C_8
REMARK    5  A    between atoms: C_8  and  N_9
REMARK                            x       y       z     vdW  Elec       q    Type
REMARK                         _______ _______ _______ _____ _____    ______ ____
ROOT
ATOM      1  C   UNL     1      44.553   5.394  11.521  0.00  0.00    +0.000 A 
ATOM      2  C   UNL     1      44.382   6.771  11.400  0.00  0.00    +0.000 A 
ATOM      3  C   UNL     1      45.271   7.621  12.055  0.00  0.00    +0.000 A 
ATOM      4  C   UNL     1      46.301   7.085  12.831  0.00  0.00    +0.000 A 
ATOM      5  C   UNL     1      46.389   5.699  12.897  0.00  0.00    +0.000 A 
ATOM      6  N   UNL     1      45.549   4.851  12.259  0.00  0.00    +0.000 NA
ENDROOT
BRANCH   1   7
ATOM      7  C   UNL     1      43.591   4.445  10.853  0.00  0.00    +0.000 C 
BRANCH   7   8
ATOM      8  C   UNL     1      44.275   3.671   9.725  0.00  0.00    +0.000 C 
BRANCH   8   9
ATOM      9  N   UNL     1      44.975   2.493  10.242  0.00  0.00    +0.000 NA
ATOM     10  H   UNL     1      45.938   2.506   9.904  0.00  0.00    +0.000 HD
ATOM     11  H   UNL     1      44.554   1.652   9.844  0.00  0.00    +0.000 HD
ENDBRANCH   8   9
ENDBRANCH   7   8
ENDBRANCH   1   7
BRANCH   4  12
ATOM     12  C   UNL     1      47.279   7.949  13.574  0.00  0.00    +0.000 C 
BRANCH  12  13
ATOM     13  N   UNL     1      47.938   8.923  12.712  0.00  0.00    +0.000 N 
ATOM     14  N   UNL     1      47.470  10.194  12.674  0.00  0.00    +0.000 NA
ATOM     15  C   UNL     1      48.390  10.846  11.962  0.00  0.00    +0.000 A 
ATOM     16  C   UNL     1      49.458  10.019  11.551  0.00  0.00    +0.000 A 
ATOM     17  C   UNL     1      50.659  10.198  10.843  0.00  0.00    +0.000 A 
ATOM     18  C   UNL     1      51.499   9.097  10.646  0.00  0.00    +0.000 A 
ATOM     19  C   UNL     1      51.147   7.836  11.127  0.00  0.00    +0.000 A 
ATOM     20  C   UNL     1      49.952   7.638  11.829  0.00  0.00    +0.000 A 
ATOM     21  C   UNL     1      49.128   8.755  12.036  0.00  0.00    +0.000 A 
ENDBRANCH  12  13
ENDBRANCH   4  12
TORSDOF 5
ENDMDL
