MODEL 1
REMARK VINA RESULT:    -7.981      0.000      0.000
REMARK INTER + INTRA:          -9.734
REMARK INTER:                  -9.380
REMARK INTRA:                  -0.353
REMARK UNBOUND:                -0.353
REMARK  Name = 
REMARK  3 active torsions:
REMARK  status: ('A' for Active; 'I' for Inactive)
REMARK    1  A    between atoms: C_2  and  C_4
REMARK    2  A    between atoms: N_8  and  C_9
REMARK    3  A    between atoms: C_9  and  C_10
REMARK                            x       y       z     vdW  Elec       q    Type
REMARK                         _______ _______ _______ _____ _____    ______ ____
ROOT
ATOM      1  C   UNL     1      46.403   2.360   7.744  0.00  0.00    +0.000 A 
ATOM      2  C   UNL     1      45.526   1.908   8.697  0.00  0.00    +0.000 A 
ATOM      3  N   UNL     1      44.665   2.709   9.354  0.00  0.00    +0.000 NA
ATOM      4  C   UNL     1      44.683   4.018   9.054  0.00  0.00    +0.000 A 
ATOM      5  N   UNL     1      43.765   4.856   9.652  0.00  0.00    +0.000 N 
ATOM      6  N   UNL     1      45.513   4.559   8.154  0.00  0.00    +0.000 NA
ATOM      7  C   UNL     1      46.370   3.716   7.521  0.00  0.00    +0.000 A 
ATOM      8  H   UNL     1      44.009   5.819   9.458  0.00  0.00    +0.000 HD
ENDROOT
BRANCH   1  10
ATOM      9  N   UNL     1      48.478   2.053   6.525  0.00  0.00    +0.000 N 
ATOM     10  C   UNL     1      47.342   1.485   7.035  0.00  0.00    +0.000 C 
ATOM     11  O   UNL     1      47.127   0.286   6.929  0.00  0.00    +0.000 OA
ATOM     12  H   UNL     1      49.153   1.417   6.116  0.00  0.00    +0.000 HD
ATOM     13  H   UNL     1      48.818   2.965   6.800  0.00  0.00    +0.000 HD
ENDBRANCH   1  10
BRANCH   5  14
ATOM     14  C   UNL     1      43.448   4.549  11.032  0.00  0.00    +0.000 C 
BRANCH  14  15
ATOM     15  C   UNL     1      44.565   5.048  11.911  0.00  0.00    +0.000 A 
ATOM     16  C   UNL     1      45.251   4.153  12.742  0.00  0.00    +0.000 A 
ATOM     17  C   UNL     1      46.280   4.630  13.532  0.00  0.00    +0.000 A 
ATOM     18  N   UNL     1      46.678   5.919  13.543  0.00  0.00    +0.000 NA
ATOM     19  C   UNL     1      46.011   6.765  12.727  0.00  0.00    +0.000 A 
ATOM     20  C   UNL     1      44.965   6.385  11.901  0.00  0.00    +0.000 A 
ENDBRANCH  14  15
ENDBRANCH   5  14
TORSDOF 3
ENDMDL
MODEL 2
REMARK VINA RESULT:    -7.330      2.504      6.072
REMARK INTER + INTRA:          -8.969
REMARK INTER:                  -8.737
REMARK INTRA:                  -0.232
REMARK UNBOUND:                -0.353
REMARK  Name = 
REMARK  3 active torsions:
REMARK  status: ('A' for Active; 'I' for Inactive)
REMARK    1  A    between atoms: C_2  and  C_4
REMARK    2  A    between atoms: N_8  and  C_9
REMARK    3  A    between atoms: C_9  and  C_10
REMARK                            x       y       z     vdW  Elec       q    Type
REMARK                         _______ _______ _______ _____ _____    ______ ____
ROOT
ATOM      1  C   UNL     1      46.023   4.532  12.964  0.00  0.00    +0.000 A 
ATOM      2  C   UNL     1      45.990   5.365  11.875  0.00  0.00    +0.000 A 
ATOM      3  N   UNL     1      45.419   5.032  10.701  0.00  0.00    +0.000 NA
ATOM      4  C   UNL     1      44.862   3.813  10.607  0.00  0.00    +0.000 A 
ATOM      5  N   UNL     1      44.202   3.465   9.446  0.00  0.00    +0.000 N 
ATOM      6  N   UNL     1      44.859   2.922  11.605  0.00  0.00    +0.000 NA
ATOM      7  C   UNL     1      45.453   3.297  12.768  0.00  0.00    +0.000 A 
ATOM      8  H   UNL     1      43.988   2.476   9.462  0.00  0.00    +0.000 HD
ENDROOT
BRANCH   1  10
ATOM      9  N   UNL     1      47.145   6.168  14.361  0.00  0.00    +0.000 N 
ATOM     10  C   UNL     1      46.651   4.898  14.238  0.00  0.00    +0.000 C 
ATOM     11  O   UNL     1      46.706   4.101  15.163  0.00  0.00    +0.000 OA
ATOM     12  H   UNL     1      47.496   6.426  15.276  0.00  0.00    +0.000 HD
ATOM     13  H   UNL     1      46.903   6.925  13.735  0.00  0.00    +0.000 HD
ENDBRANCH   1  10
BRANCH   5  14
ATOM     14  C   UNL     1      44.792   3.965   8.221  0.00  0.00    +0.000 C 
BRANCH  14  15
ATOM     15  C   UNL     1      45.864   3.007   7.770  0.00  0.00    +0.000 A 
ATOM     16  C   UNL     1      46.910   3.464   6.959  0.00  0.00    +0.000 A 
ATOM     17  C   UNL     1      47.889   2.570   6.566  0.00  0.00    +0.000 A 
ATOM     18  N   UNL     1      47.905   1.271   6.931  0.00  0.00    +0.000 NA
ATOM     19  C   UNL     1      46.893   0.851   7.721  0.00  0.00    +0.000 A 
ATOM     20  C   UNL     1      45.864   1.668   8.165  0.00  0.00    +0.000 A 
ENDBRANCH  14  15
ENDBRANCH   5  14
TORSDOF 3
ENDMDL
MODEL 3
REMARK VINA RESULT:    -6.998      2.761      6.070
REMARK INTER + INTRA:          -8.579
REMARK INTER:                  -8.252
REMARK INTRA:                  -0.327
REMARK UNBOUND:                -0.353
REMARK  Name = 
REMARK  3 active torsions:
REMARK  status: ('A' for Active; 'I' for Inactive)
REMARK    1  A    between atoms: C_2  and  C_4
REMARK    2  A    between atoms: N_8  and  C_9
REMARK    3  A    between atoms: C_9  and  C_10
REMARK                            x       y       z     vdW  Elec       q    Type
REMARK                         _______ _______ _______ _____ _____    ______ ____
ROOT
ATOM      1  C   UNL     1      46.708   4.952  13.469  0.00  0.00    +0.000 A 
ATOM      2  C   UNL     1      46.227   5.715  12.436  0.00  0.00    +0.000 A 
ATOM      3  N   UNL     1      45.428   5.232  11.464  0.00  0.00    +0.000 NA
ATOM      4  C   UNL     1      45.101   3.929  11.521  0.00  0.00    +0.000 A 
ATOM      5  N   UNL     1      44.226   3.416  10.587  0.00  0.00    +0.000 N 
ATOM      6  N   UNL     1      45.535   3.099  12.477  0.00  0.00    +0.000 NA
ATOM      7  C   UNL     1      46.344   3.627  13.432  0.00  0.00    +0.000 A 
ATOM      8  H   UNL     1      44.209   2.407  10.656  0.00  0.00    +0.000 HD
ENDROOT
BRANCH   1  10
ATOM      9  N   UNL     1      47.299   5.137  15.815  0.00  0.00    +0.000 N 
ATOM     10  C   UNL     1      47.582   5.482  14.522  0.00  0.00    +0.000 C 
ATOM     11  O   UNL     1      48.543   6.185  14.246  0.00  0.00    +0.000 OA
ATOM     12  H   UNL     1      47.965   5.441  16.516  0.00  0.00    +0.000 HD
ATOM     13  H   UNL     1      46.688   4.372  16.069  0.00  0.00    +0.000 HD
ENDBRANCH   1  10
BRANCH   5  14
ATOM     14  C   UNL     1      44.356   3.957   9.249  0.00  0.00    +0.000 C 
BRANCH  14  15
ATOM     15  C   UNL     1      45.406   3.171   8.506  0.00  0.00    +0.000 A 
ATOM     16  C   UNL     1      45.487   1.784   8.675  0.00  0.00    +0.000 A 
ATOM     17  C   UNL     1      46.450   1.081   7.975  0.00  0.00    +0.000 A 
ATOM     18  N   UNL     1      47.320   1.657   7.118  0.00  0.00    +0.000 NA
ATOM     19  C   UNL     1      47.220   2.995   6.962  0.00  0.00    +0.000 A 
ATOM     20  C   UNL     1      46.292   3.787   7.620  0.00  0.00    +0.000 A 
ENDBRANCH  14  15
ENDBRANCH   5  14
TORSDOF 3
ENDMDL
MODEL 4
REMARK VINA RESULT:    -6.857      2.728      6.241
REMARK INTER + INTRA:          -8.412
REMARK INTER:                  -8.061
REMARK INTRA:                  -0.351
REMARK UNBOUND:                -0.353
REMARK  Name = 
REMARK  3 active torsions:
REMARK  status: ('A' for Active; 'I' for Inactive)
REMARK    1  A    between atoms: C_2  and  C_4
REMARK    2  A    between atoms: N_8  and  C_9
REMARK    3  A    between atoms: C_9  and  C_10
REMARK                            x       y       z     vdW  Elec       q    Type
REMARK                         _______ _______ _______ _____ _____    ______ ____
ROOT
ATOM      1  C   UNL     1      45.905   6.048  12.338  0.00  0.00    +0.000 A 
ATOM      2  C   UNL     1      45.431   6.414  11.104  0.00  0.00    +0.000 A 
ATOM      3  N   UNL     1      44.934   5.538  10.209  0.00  0.00    +0.000 NA
ATOM      4  C   UNL     1      44.918   4.239  10.556  0.00  0.00    +0.000 A 
ATOM      5  N   UNL     1      44.349   3.323   9.696  0.00  0.00    +0.000 N 
ATOM      6  N   UNL     1      45.375   3.781  11.727  0.00  0.00    +0.000 NA
ATOM      7  C   UNL     1      45.874   4.698  12.597  0.00  0.00    +0.000 A 
ATOM      8  H   UNL     1      44.559   2.385  10.013  0.00  0.00    +0.000 HD
ENDROOT
BRANCH   1  10
ATOM      9  N   UNL     1      47.348   6.537  14.226  0.00  0.00    +0.000 N 
ATOM     10  C   UNL     1      46.450   7.006  13.307  0.00  0.00    +0.000 C 
ATOM     11  O   UNL     1      46.129   8.184  13.274  0.00  0.00    +0.000 OA
ATOM     12  H   UNL     1      47.777   7.230  14.829  0.00  0.00    +0.000 HD
ATOM     13  H   UNL     1      47.828   5.651  14.137  0.00  0.00    +0.000 HD
ENDBRANCH   1  10
BRANCH   5  14
ATOM     14  C   UNL     1      44.562   3.577   8.286  0.00  0.00    +0.000 C 
BRANCH  14  15
ATOM     15  C   UNL     1      45.734   2.756   7.814  0.00  0.00    +0.000 A 
ATOM     16  C   UNL     1      46.734   3.352   7.036  0.00  0.00    +0.000 A 
ATOM     17  C   UNL     1      47.806   2.584   6.624  0.00  0.00    +0.000 A 
ATOM     18  N   UNL     1      47.957   1.280   6.939  0.00  0.00    +0.000 NA
ATOM     19  C   UNL     1      46.987   0.725   7.699  0.00  0.00    +0.000 A 
ATOM     20  C   UNL     1      45.872   1.410   8.158  0.00  0.00    +0.000 A 
ENDBRANCH  14  15
ENDBRANCH   5  14
TORSDOF 3
ENDMDL
MODEL 5
REMARK VINA RESULT:    -6.686      3.037      6.299
REMARK INTER + INTRA:          -8.212
REMARK INTER:                  -7.885
REMARK INTRA:                  -0.327
REMARK UNBOUND:                -0.353
REMARK  Name = 
REMARK  3 active torsions:
REMARK  status: ('A' for Active; 'I' for Inactive)
REMARK    1  A    between atoms: C_2  and  C_4
REMARK    2  A    between atoms: N_8  and  C_9
REMARK    3  A    between atoms: C_9  and  C_10
REMARK                            x       y       z     vdW  Elec       q    Type
REMARK                         _______ _______ _______ _____ _____    ______ ____
ROOT
ATOM      1  C   UNL     1      45.530   7.343  12.395  0.00  0.00    +0.000 A 
ATOM      2  C   UNL     1      44.460   7.044  11.590  0.00  0.00    +0.000 A 
ATOM      3  N   UNL     1      44.183   5.801  11.153  0.00  0.00    +0.000 NA
ATOM      4  C   UNL     1      45.012   4.812  11.529  0.00  0.00    +0.000 A 
ATOM      5  N   UNL     1      44.718   3.515  11.163  0.00  0.00    +0.000 N 
ATOM      6  N   UNL     1      46.091   5.004  12.296  0.00  0.00    +0.000 NA
ATOM      7  C   UNL     1      46.338   6.275  12.708  0.00  0.00    +0.000 A 
ATOM      8  H   UNL     1      45.507   2.917  11.371  0.00  0.00    +0.000 HD
ENDROOT
BRANCH   1  10
ATOM      9  N   UNL     1      44.832   9.632  12.792  0.00  0.00    +0.000 N 
ATOM     10  C   UNL     1      45.831   8.700  12.864  0.00  0.00    +0.000 C 
ATOM     11  O   UNL     1      46.928   8.977  13.325  0.00  0.00    +0.000 OA
ATOM     12  H   UNL     1      45.033  10.538  13.200  0.00  0.00    +0.000 HD
ATOM     13  H   UNL     1      43.857   9.398  12.661  0.00  0.00    +0.000 HD
ENDBRANCH   1  10
BRANCH   5  14
ATOM     14  C   UNL     1      44.134   3.357   9.847  0.00  0.00    +0.000 C 
BRANCH  14  15
ATOM     15  C   UNL     1      45.228   3.031   8.863  0.00  0.00    +0.000 A 
ATOM     16  C   UNL     1      45.651   1.706   8.705  0.00  0.00    +0.000 A 
ATOM     17  C   UNL     1      46.649   1.428   7.789  0.00  0.00    +0.000 A 
ATOM     18  N   UNL     1      47.239   2.367   7.020  0.00  0.00    +0.000 NA
ATOM     19  C   UNL     1      46.811   3.638   7.180  0.00  0.00    +0.000 A 
ATOM     20  C   UNL     1      45.821   4.018   8.073  0.00  0.00    +0.000 A 
ENDBRANCH  14  15
ENDBRANCH   5  14
TORSDOF 3
ENDMDL
MODEL 6
REMARK VINA RESULT:    -6.085      4.819      8.069
REMARK INTER + INTRA:          -7.505
REMARK INTER:                  -7.266
REMARK INTRA:                  -0.239
REMARK UNBOUND:                -0.353
REMARK  Name = 
REMARK  3 active torsions:
REMARK  status: ('A' for Active; 'I' for Inactive)
REMARK    1  A    between atoms: C_2  and  C_4
REMARK    2  A    between atoms: N_8  and  C_9
REMARK    3  A    between atoms: C_9  and  C_10
REMARK                            x       y       z     vdW  Elec       q    Type
REMARK                         _______ _______ _______ _____ _____    ______ ____
ROOT
ATOM      1  C   UNL     1      48.606   3.857  17.868  0.00  0.00    +0.000 A 
ATOM      2  C   UNL     1      47.679   4.716  17.336  0.00  0.00    +0.000 A 
ATOM      3  N   UNL     1      47.141   4.564  16.110  0.00  0.00    +0.000 NA
ATOM      4  C   UNL     1      47.551   3.514  15.379  0.00  0.00    +0.000 A 
ATOM      5  N   UNL     1      46.968   3.283  14.151  0.00  0.00    +0.000 N 
ATOM      6  N   UNL     1      48.464   2.631  15.801  0.00  0.00    +0.000 NA
ATOM      7  C   UNL     1      48.986   2.827  17.040  0.00  0.00    +0.000 A 
ATOM      8  H   UNL     1      47.489   2.571  13.657  0.00  0.00    +0.000 HD
ENDROOT
BRANCH   1  10
ATOM      9  N   UNL     1      48.458   3.614  20.277  0.00  0.00    +0.000 N 
ATOM     10  C   UNL     1      49.193   4.030  19.201  0.00  0.00    +0.000 C 
ATOM     11  O   UNL     1      50.310   4.506  19.339  0.00  0.00    +0.000 OA
ATOM     12  H   UNL     1      48.917   3.662  21.180  0.00  0.00    +0.000 HD
ATOM     13  H   UNL     1      47.660   2.997  20.204  0.00  0.00    +0.000 HD
ENDBRANCH   1  10
BRANCH   5  14
ATOM     14  C   UNL     1      46.637   4.469  13.387  0.00  0.00    +0.000 C 
BRANCH  14  15
ATOM     15  C   UNL     1      45.320   4.246  12.687  0.00  0.00    +0.000 A 
ATOM     16  C   UNL     1      45.164   3.149  11.831  0.00  0.00    +0.000 A 
ATOM     17  C   UNL     1      43.945   2.957  11.209  0.00  0.00    +0.000 A 
ATOM     18  N   UNL     1      42.879   3.765  11.387  0.00  0.00    +0.000 NA
ATOM     19  C   UNL     1      43.046   4.812  12.224  0.00  0.00    +0.000 A 
ATOM     20  C   UNL     1      44.229   5.091  12.892  0.00  0.00    +0.000 A 
ENDBRANCH  14  15
ENDBRANCH   5  14
TORSDOF 3
ENDMDL
MODEL 7
REMARK VINA RESULT:    -5.763      4.447      7.767
REMARK INTER + INTRA:          -7.127
REMARK INTER:                  -6.905
REMARK INTRA:                  -0.223
REMARK UNBOUND:                -0.353
REMARK  Name = 
REMARK  3 active torsions:
REMARK  status: ('A' for Active; 'I' for Inactive)
REMARK    1  A    between atoms: C_2  and  C_4
REMARK    2  A    between atoms: N_8  and  C_9
REMARK    3  A    between atoms: C_9  and  C_10
REMARK                            x       y       z     vdW  Elec       q    Type
REMARK                         _______ _______ _______ _____ _____    ______ ____
ROOT
ATOM      1  C   UNL     1      48.225   4.534  17.406  0.00  0.00    +0.000 A 
ATOM      2  C   UNL     1      47.197   3.800  16.871  0.00  0.00    +0.000 A 
ATOM      3  N   UNL     1      46.716   3.990  15.627  0.00  0.00    +0.000 NA
ATOM      4  C   UNL     1      47.280   4.959  14.886  0.00  0.00    +0.000 A 
ATOM      5  N   UNL     1      46.865   5.134  13.582  0.00  0.00    +0.000 N 
ATOM      6  N   UNL     1      48.273   5.742  15.324  0.00  0.00    +0.000 NA
ATOM      7  C   UNL     1      48.722   5.521  16.587  0.00  0.00    +0.000 A 
ATOM      8  H   UNL     1      47.253   5.993  13.215  0.00  0.00    +0.000 HD
ENDROOT
BRANCH   1  10
ATOM      9  N   UNL     1      48.319   3.215  19.439  0.00  0.00    +0.000 N 
ATOM     10  C   UNL     1      48.740   4.327  18.763  0.00  0.00    +0.000 C 
ATOM     11  O   UNL     1      49.538   5.109  19.259  0.00  0.00    +0.000 OA
ATOM     12  H   UNL     1      48.753   3.046  20.340  0.00  0.00    +0.000 HD
ATOM     13  H   UNL     1      47.872   2.425  18.993  0.00  0.00    +0.000 HD
ENDBRANCH   1  10
BRANCH   5  14
ATOM     14  C   UNL     1      45.451   4.926  13.345  0.00  0.00    +0.000 C 
BRANCH  14  15
ATOM     15  C   UNL     1      45.249   4.546  11.901  0.00  0.00    +0.000 A 
ATOM     16  C   UNL     1      45.551   5.467  10.890  0.00  0.00    +0.000 A 
ATOM     17  C   UNL     1      45.369   5.094   9.571  0.00  0.00    +0.000 A 
ATOM     18  N   UNL     1      44.925   3.877   9.193  0.00  0.00    +0.000 NA
ATOM     19  C   UNL     1      44.649   2.999  10.182  0.00  0.00    +0.000 A 
ATOM     20  C   UNL     1      44.795   3.279  11.533  0.00  0.00    +0.000 A 
ENDBRANCH  14  15
ENDBRANCH   5  14
TORSDOF 3
ENDMDL
MODEL 8
REMARK VINA RESULT:    -5.651      4.166      6.549
REMARK INTER + INTRA:          -6.996
REMARK INTER:                  -6.731
REMARK INTRA:                  -0.265
REMARK UNBOUND:                -0.353
REMARK  Name = 
REMARK  3 active torsions:
REMARK  status: ('A' for Active; 'I' for Inactive)
REMARK    1  A    between atoms: C_2  and  C_4
REMARK    2  A    between atoms: N_8  and  C_9
REMARK    3  A    between atoms: C_9  and  C_10
REMARK                            x       y       z     vdW  Elec       q    Type
REMARK                         _______ _______ _______ _____ _____    ______ ____
ROOT
ATOM      1  C   UNL     1      46.049   5.491  12.084  0.00  0.00    +0.000 A 
ATOM      2  C   UNL     1      47.109   5.939  12.829  0.00  0.00    +0.000 A 
ATOM      3  N   UNL     1      47.518   5.349  13.970  0.00  0.00    +0.000 NA
ATOM      4  C   UNL     1      46.835   4.271  14.389  0.00  0.00    +0.000 A 
ATOM      5  N   UNL     1      47.269   3.597  15.512  0.00  0.00    +0.000 N 
ATOM      6  N   UNL     1      45.776   3.769  13.743  0.00  0.00    +0.000 NA
ATOM      7  C   UNL     1      45.393   4.400  12.602  0.00  0.00    +0.000 A 
ATOM      8  H   UNL     1      46.570   2.922  15.794  0.00  0.00    +0.000 HD
ENDROOT
BRANCH   1  10
ATOM      9  N   UNL     1      44.676   7.139  10.951  0.00  0.00    +0.000 N 
ATOM     10  C   UNL     1      45.605   6.140  10.845  0.00  0.00    +0.000 C 
ATOM     11  O   UNL     1      46.070   5.815   9.763  0.00  0.00    +0.000 OA
ATOM     12  H   UNL     1      44.448   7.632  10.095  0.00  0.00    +0.000 HD
ATOM     13  H   UNL     1      44.455   7.608  11.819  0.00  0.00    +0.000 HD
ENDBRANCH   1  10
BRANCH   5  14
ATOM     14  C   UNL     1      47.808   4.429  16.568  0.00  0.00    +0.000 C 
BRANCH  14  15
ATOM     15  C   UNL     1      49.144   3.873  16.992  0.00  0.00    +0.000 A 
ATOM     16  C   UNL     1      49.362   2.490  16.969  0.00  0.00    +0.000 A 
ATOM     17  C   UNL     1      50.598   2.002  17.351  0.00  0.00    +0.000 A 
ATOM     18  N   UNL     1      51.624   2.789  17.738  0.00  0.00    +0.000 NA
ATOM     19  C   UNL     1      51.397   4.121  17.745  0.00  0.00    +0.000 A 
ATOM     20  C   UNL     1      50.193   4.706  17.383  0.00  0.00    +0.000 A 
ENDBRANCH  14  15
ENDBRANCH   5  14
TORSDOF 3
ENDMDL
MODEL 9
REMARK VINA RESULT:    -5.599      3.176      6.528
REMARK INTER + INTRA:          -6.934
REMARK INTER:                  -6.687
REMARK INTRA:                  -0.248
REMARK UNBOUND:                -0.353
REMARK  Name = 
REMARK  3 active torsions:
REMARK  status: ('A' for Active; 'I' for Inactive)
REMARK    1  A    between atoms: C_2  and  C_4
REMARK    2  A    between atoms: N_8  and  C_9
REMARK    3  A    between atoms: C_9  and  C_10
REMARK                            x       y       z     vdW  Elec       q    Type
REMARK                         _______ _______ _______ _____ _____    ______ ____
ROOT
ATOM      1  C   UNL     1      47.670   5.294  15.073  0.00  0.00    +0.000 A 
ATOM      2  C   UNL     1      46.826   4.461  14.384  0.00  0.00    +0.000 A 
ATOM      3  N   UNL     1      46.348   4.737  13.155  0.00  0.00    +0.000 NA
ATOM      4  C   UNL     1      46.722   5.898  12.592  0.00  0.00    +0.000 A 
ATOM      5  N   UNL     1      46.313   6.181  11.305  0.00  0.00    +0.000 N 
ATOM      6  N   UNL     1      47.525   6.786  13.190  0.00  0.00    +0.000 NA
ATOM      7  C   UNL     1      47.977   6.470  14.432  0.00  0.00    +0.000 A 
ATOM      8  H   UNL     1      46.527   7.145  11.085  0.00  0.00    +0.000 HD
ENDROOT
BRANCH   1  10
ATOM      9  N   UNL     1      47.908   5.882  17.415  0.00  0.00    +0.000 N 
ATOM     10  C   UNL     1      48.183   4.991  16.414  0.00  0.00    +0.000 C 
ATOM     11  O   UNL     1      48.810   3.964  16.629  0.00  0.00    +0.000 OA
ATOM     12  H   UNL     1      48.196   5.611  18.348  0.00  0.00    +0.000 HD
ATOM     13  H   UNL     1      47.196   6.597  17.347  0.00  0.00    +0.000 HD
ENDBRANCH   1  10
BRANCH   5  14
ATOM     14  C   UNL     1      44.976   5.738  10.965  0.00  0.00    +0.000 C 
BRANCH  14  15
ATOM     15  C   UNL     1      45.076   4.604   9.977  0.00  0.00    +0.000 A 
ATOM     16  C   UNL     1      44.499   3.364  10.278  0.00  0.00    +0.000 A 
ATOM     17  C   UNL     1      44.593   2.342   9.352  0.00  0.00    +0.000 A 
ATOM     18  N   UNL     1      45.204   2.470   8.156  0.00  0.00    +0.000 NA
ATOM     19  C   UNL     1      45.746   3.677   7.879  0.00  0.00    +0.000 A 
ATOM     20  C   UNL     1      45.708   4.762   8.742  0.00  0.00    +0.000 A 
ENDBRANCH  14  15
ENDBRANCH   5  14
TORSDOF 3
ENDMDL
