MODEL 1
REMARK VINA RESULT:    -6.702      0.000      0.000
REMARK INTER + INTRA:          -8.273
REMARK INTER:                  -7.877
REMARK INTRA:                  -0.396
REMARK UNBOUND:                -0.396
REMARK  Name = 
REMARK  3 active torsions:
REMARK  status: ('A' for Active; 'I' for Inactive)
REMARK    1  A    between atoms: C_2  and  C_4
REMARK    2  A    between atoms: N_8  and  C_9
REMARK    3  A    between atoms: C_9  and  C_10
REMARK                            x       y       z     vdW  Elec       q    Type
REMARK                         _______ _______ _______ _____ _____    ______ ____
ROOT
ATOM      1  C   UNL     1      46.241   3.140   7.757  0.00  0.00    +0.000 A 
ATOM      2  C   UNL     1      45.626   2.102   8.446  0.00  0.00    +0.000 A 
ATOM      3  C   UNL     1      44.995   2.381   9.655  0.00  0.00    +0.000 A 
ATOM      4  C   UNL     1      44.976   3.689  10.145  0.00  0.00    +0.000 A 
ATOM      5  N   UNL     1      44.267   3.897  11.350  0.00  0.00    +0.000 N 
ATOM      6  N   UNL     1      45.581   4.700   9.491  0.00  0.00    +0.000 NA
ATOM      7  C   UNL     1      46.216   4.405   8.327  0.00  0.00    +0.000 A 
ATOM      8  H   UNL     1      44.617   3.252  12.047  0.00  0.00    +0.000 HD
ENDROOT
BRANCH   1  10
ATOM      9  N   UNL     1      48.282   2.850   6.474  0.00  0.00    +0.000 N 
ATOM     10  C   UNL     1      46.918   2.942   6.458  0.00  0.00    +0.000 C 
ATOM     11  O   UNL     1      46.283   2.833   5.418  0.00  0.00    +0.000 OA
ATOM     12  H   UNL     1      48.720   2.606   5.597  0.00  0.00    +0.000 HD
ATOM     13  H   UNL     1      48.801   2.673   7.321  0.00  0.00    +0.000 HD
ENDBRANCH   1  10
BRANCH   5  14
ATOM     14  C   UNL     1      43.835   5.231  11.816  0.00  0.00    +0.000 C 
ATOM     15  C   UNL     1      42.320   5.402  11.807  0.00  0.00    +0.000 C 
ATOM     16  C   UNL     1      43.156   6.196  10.859  0.00  0.00    +0.000 C 
BRANCH  14  17
ATOM     17  C   UNL     1      44.601   5.873  12.991  0.00  0.00    +0.000 C 
ATOM     18  C   UNL     1      45.334   7.160  12.609  0.00  0.00    +0.000 C 
ATOM     19  C   UNL     1      46.689   6.908  11.952  0.00  0.00    +0.000 C 
ATOM     20  N   UNL     1      47.551   6.033  12.752  0.00  0.00    +0.000 NA
ATOM     21  C   UNL     1      46.918   4.760  13.079  0.00  0.00    +0.000 C 
ATOM     22  C   UNL     1      45.548   4.917  13.731  0.00  0.00    +0.000 C 
ATOM     23  H   UNL     1      47.790   6.518  13.615  0.00  0.00    +0.000 HD
ENDBRANCH  14  17
ENDBRANCH   5  14
TORSDOF 3
ENDMDL
MODEL 2
REMARK VINA RESULT:    -5.371      2.250      3.445
REMARK INTER + INTRA:          -6.709
REMARK INTER:                  -6.320
REMARK INTRA:                  -0.389
REMARK UNBOUND:                -0.396
REMARK  Name = 
REMARK  3 active torsions:
REMARK  status: ('A' for Active; 'I' for Inactive)
REMARK    1  A    between atoms: C_2  and  C_4
REMARK    2  A    between atoms: N_8  and  C_9
REMARK    3  A    between atoms: C_9  and  C_10
REMARK                            x       y       z     vdW  Elec       q    Type
REMARK                         _______ _______ _______ _____ _____    ______ ____
ROOT
ATOM      1  C   UNL     1      44.756   4.131  10.091  0.00  0.00    +0.000 A 
ATOM      2  C   UNL     1      44.022   4.123  11.271  0.00  0.00    +0.000 A 
ATOM      3  C   UNL     1      44.212   5.154  12.187  0.00  0.00    +0.000 A 
ATOM      4  C   UNL     1      45.117   6.180  11.901  0.00  0.00    +0.000 A 
ATOM      5  N   UNL     1      45.210   7.218  12.857  0.00  0.00    +0.000 N 
ATOM      6  N   UNL     1      45.842   6.191  10.766  0.00  0.00    +0.000 NA
ATOM      7  C   UNL     1      45.664   5.161   9.897  0.00  0.00    +0.000 A 
ATOM      8  H   UNL     1      45.397   6.807  13.763  0.00  0.00    +0.000 HD
ENDROOT
BRANCH   1  10
ATOM      9  N   UNL     1      44.503   1.795   9.482  0.00  0.00    +0.000 N 
ATOM     10  C   UNL     1      44.606   3.089   9.054  0.00  0.00    +0.000 C 
ATOM     11  O   UNL     1      44.543   3.375   7.867  0.00  0.00    +0.000 OA
ATOM     12  H   UNL     1      44.292   1.108   8.772  0.00  0.00    +0.000 HD
ATOM     13  H   UNL     1      44.289   1.558  10.439  0.00  0.00    +0.000 HD
ENDBRANCH   1  10
BRANCH   5  14
ATOM     14  C   UNL     1      45.817   8.533  12.568  0.00  0.00    +0.000 C 
ATOM     15  C   UNL     1      44.807   9.676  12.606  0.00  0.00    +0.000 C 
ATOM     16  C   UNL     1      45.438   9.294  11.308  0.00  0.00    +0.000 C 
BRANCH  14  17
ATOM     17  C   UNL     1      47.220   8.826  13.136  0.00  0.00    +0.000 C 
ATOM     18  C   UNL     1      48.311   8.891  12.065  0.00  0.00    +0.000 C 
ATOM     19  C   UNL     1      48.835   7.517  11.657  0.00  0.00    +0.000 C 
ATOM     20  N   UNL     1      49.277   6.718  12.804  0.00  0.00    +0.000 NA
ATOM     21  C   UNL     1      48.243   6.567  13.821  0.00  0.00    +0.000 C 
ATOM     22  C   UNL     1      47.650   7.896  14.280  0.00  0.00    +0.000 C 
ATOM     23  H   UNL     1      50.089   7.171  13.219  0.00  0.00    +0.000 HD
ENDBRANCH  14  17
ENDBRANCH   5  14
TORSDOF 3
ENDMDL
MODEL 3
REMARK VINA RESULT:    -4.999      3.962      6.186
REMARK INTER + INTRA:          -6.272
REMARK INTER:                  -5.897
REMARK INTRA:                  -0.375
REMARK UNBOUND:                -0.396
REMARK  Name = 
REMARK  3 active torsions:
REMARK  status: ('A' for Active; 'I' for Inactive)
REMARK    1  A    between atoms: C_2  and  C_4
REMARK    2  A    between atoms: N_8  and  C_9
REMARK    3  A    between atoms: C_9  and  C_10
REMARK                            x       y       z     vdW  Elec       q    Type
REMARK                         _______ _______ _______ _____ _____    ______ ____
ROOT
ATOM      1  C   UNL     1      45.381   5.227  12.928  0.00  0.00    +0.000 A 
ATOM      2  C   UNL     1      44.808   6.462  12.651  0.00  0.00    +0.000 A 
ATOM      3  C   UNL     1      45.614   7.596  12.678  0.00  0.00    +0.000 A 
ATOM      4  C   UNL     1      46.977   7.475  12.964  0.00  0.00    +0.000 A 
ATOM      5  N   UNL     1      47.736   8.667  12.916  0.00  0.00    +0.000 N 
ATOM      6  N   UNL     1      47.539   6.283  13.245  0.00  0.00    +0.000 NA
ATOM      7  C   UNL     1      46.731   5.191  13.243  0.00  0.00    +0.000 A 
ATOM      8  H   UNL     1      47.297   9.354  13.515  0.00  0.00    +0.000 HD
ENDROOT
BRANCH   1  10
ATOM      9  N   UNL     1      45.246   2.853  12.436  0.00  0.00    +0.000 N 
ATOM     10  C   UNL     1      44.607   3.968  12.903  0.00  0.00    +0.000 C 
ATOM     11  O   UNL     1      43.456   3.918  13.315  0.00  0.00    +0.000 OA
ATOM     12  H   UNL     1      44.742   1.982  12.527  0.00  0.00    +0.000 HD
ATOM     13  H   UNL     1      46.249   2.806  12.343  0.00  0.00    +0.000 HD
ENDBRANCH   1  10
BRANCH   5  14
ATOM     14  C   UNL     1      49.210   8.685  12.827  0.00  0.00    +0.000 C 
ATOM     15  C   UNL     1      49.720   9.252  11.507  0.00  0.00    +0.000 C 
ATOM     16  C   UNL     1      49.930   7.807  11.818  0.00  0.00    +0.000 C 
BRANCH  14  17
ATOM     17  C   UNL     1      50.009   9.049  14.095  0.00  0.00    +0.000 C 
ATOM     18  C   UNL     1      50.702   7.849  14.745  0.00  0.00    +0.000 C 
ATOM     19  C   UNL     1      49.775   7.034  15.643  0.00  0.00    +0.000 C 
ATOM     20  N   UNL     1      49.100   7.856  16.652  0.00  0.00    +0.000 NA
ATOM     21  C   UNL     1      48.364   8.974  16.071  0.00  0.00    +0.000 C 
ATOM     22  C   UNL     1      49.213   9.838  15.145  0.00  0.00    +0.000 C 
ATOM     23  H   UNL     1      49.802   8.218  17.295  0.00  0.00    +0.000 HD
ENDBRANCH  14  17
ENDBRANCH   5  14
TORSDOF 3
ENDMDL
MODEL 4
REMARK VINA RESULT:    -4.857      3.159      5.384
REMARK INTER + INTRA:          -6.104
REMARK INTER:                  -6.397
REMARK INTRA:                   0.293
REMARK UNBOUND:                -0.396
REMARK  Name = 
REMARK  3 active torsions:
REMARK  status: ('A' for Active; 'I' for Inactive)
REMARK    1  A    between atoms: C_2  and  C_4
REMARK    2  A    between atoms: N_8  and  C_9
REMARK    3  A    between atoms: C_9  and  C_10
REMARK                            x       y       z     vdW  Elec       q    Type
REMARK                         _______ _______ _______ _____ _____    ______ ____
ROOT
ATOM      1  C   UNL     1      44.623   5.214  11.390  0.00  0.00    +0.000 A 
ATOM      2  C   UNL     1      44.299   6.559  11.523  0.00  0.00    +0.000 A 
ATOM      3  C   UNL     1      45.092   7.361  12.339  0.00  0.00    +0.000 A 
ATOM      4  C   UNL     1      46.199   6.811  12.991  0.00  0.00    +0.000 A 
ATOM      5  N   UNL     1      46.984   7.706  13.755  0.00  0.00    +0.000 N 
ATOM      6  N   UNL     1      46.513   5.506  12.877  0.00  0.00    +0.000 NA
ATOM      7  C   UNL     1      45.712   4.732  12.101  0.00  0.00    +0.000 A 
ATOM      8  H   UNL     1      46.380   8.191  14.406  0.00  0.00    +0.000 HD
ENDROOT
BRANCH   1  10
ATOM      9  N   UNL     1      43.929   4.485   9.180  0.00  0.00    +0.000 N 
ATOM     10  C   UNL     1      43.850   4.292  10.531  0.00  0.00    +0.000 C 
ATOM     11  O   UNL     1      43.195   3.374  11.007  0.00  0.00    +0.000 OA
ATOM     12  H   UNL     1      43.486   3.783   8.605  0.00  0.00    +0.000 HD
ATOM     13  H   UNL     1      44.651   5.049   8.757  0.00  0.00    +0.000 HD
ENDBRANCH   1  10
BRANCH   5  14
ATOM     14  C   UNL     1      48.358   7.398  14.201  0.00  0.00    +0.000 C 
ATOM     15  C   UNL     1      48.410   6.295  15.253  0.00  0.00    +0.000 C 
ATOM     16  C   UNL     1      48.785   7.689  15.630  0.00  0.00    +0.000 C 
BRANCH  14  17
ATOM     17  C   UNL     1      49.484   7.407  13.147  0.00  0.00    +0.000 C 
ATOM     18  C   UNL     1      50.714   8.209  13.575  0.00  0.00    +0.000 C 
ATOM     19  C   UNL     1      50.567   9.710  13.334  0.00  0.00    +0.000 C 
ATOM     20  N   UNL     1      50.193  10.026  11.952  0.00  0.00    +0.000 NA
ATOM     21  C   UNL     1      48.980   9.338  11.523  0.00  0.00    +0.000 C 
ATOM     22  C   UNL     1      49.035   7.829  11.740  0.00  0.00    +0.000 C 
ATOM     23  H   UNL     1      50.962   9.758  11.341  0.00  0.00    +0.000 HD
ENDBRANCH  14  17
ENDBRANCH   5  14
TORSDOF 3
ENDMDL
MODEL 5
REMARK VINA RESULT:    -4.814      5.260      7.941
REMARK INTER + INTRA:          -6.054
REMARK INTER:                  -5.701
REMARK INTRA:                  -0.353
REMARK UNBOUND:                -0.396
REMARK  Name = 
REMARK  3 active torsions:
REMARK  status: ('A' for Active; 'I' for Inactive)
REMARK    1  A    between atoms: C_2  and  C_4
REMARK    2  A    between atoms: N_8  and  C_9
REMARK    3  A    between atoms: C_9  and  C_10
REMARK                            x       y       z     vdW  Elec       q    Type
REMARK                         _______ _______ _______ _____ _____    ______ ____
ROOT
ATOM      1  C   UNL     1      46.823   4.909  14.142  0.00  0.00    +0.000 A 
ATOM      2  C   UNL     1      47.413   6.102  13.744  0.00  0.00    +0.000 A 
ATOM      3  C   UNL     1      48.376   6.681  14.565  0.00  0.00    +0.000 A 
ATOM      4  C   UNL     1      48.744   6.051  15.757  0.00  0.00    +0.000 A 
ATOM      5  N   UNL     1      49.769   6.674  16.505  0.00  0.00    +0.000 N 
ATOM      6  N   UNL     1      48.169   4.900  16.158  0.00  0.00    +0.000 NA
ATOM      7  C   UNL     1      47.210   4.365  15.358  0.00  0.00    +0.000 A 
ATOM      8  H   UNL     1      49.510   7.639  16.667  0.00  0.00    +0.000 HD
ENDROOT
BRANCH   1  10
ATOM      9  N   UNL     1      44.684   4.920  12.994  0.00  0.00    +0.000 N 
ATOM     10  C   UNL     1      45.806   4.213  13.326  0.00  0.00    +0.000 C 
ATOM     11  O   UNL     1      45.976   3.066  12.937  0.00  0.00    +0.000 OA
ATOM     12  H   UNL     1      44.051   4.470  12.348  0.00  0.00    +0.000 HD
ATOM     13  H   UNL     1      44.636   5.924  13.072  0.00  0.00    +0.000 HD
ENDBRANCH   1  10
BRANCH   5  14
ATOM     14  C   UNL     1      50.527   5.987  17.570  0.00  0.00    +0.000 C 
ATOM     15  C   UNL     1      52.004   5.813  17.232  0.00  0.00    +0.000 C 
ATOM     16  C   UNL     1      51.124   4.612  17.323  0.00  0.00    +0.000 C 
BRANCH  14  17
ATOM     17  C   UNL     1      50.184   6.319  19.037  0.00  0.00    +0.000 C 
ATOM     18  C   UNL     1      49.953   5.080  19.905  0.00  0.00    +0.000 C 
ATOM     19  C   UNL     1      48.543   4.508  19.773  0.00  0.00    +0.000 C 
ATOM     20  N   UNL     1      47.502   5.513  20.010  0.00  0.00    +0.000 NA
ATOM     21  C   UNL     1      47.640   6.684  19.151  0.00  0.00    +0.000 C 
ATOM     22  C   UNL     1      49.028   7.315  19.210  0.00  0.00    +0.000 C 
ATOM     23  H   UNL     1      47.553   5.806  20.984  0.00  0.00    +0.000 HD
ENDBRANCH  14  17
ENDBRANCH   5  14
TORSDOF 3
ENDMDL
MODEL 6
REMARK VINA RESULT:    -4.484      3.154      5.217
REMARK INTER + INTRA:          -5.666
REMARK INTER:                  -5.580
REMARK INTRA:                  -0.086
REMARK UNBOUND:                -0.396
REMARK  Name = 
REMARK  3 active torsions:
REMARK  status: ('A' for Active; 'I' for Inactive)
REMARK    1  A    between atoms: C_2  and  C_4
REMARK    2  A    between atoms: N_8  and  C_9
REMARK    3  A    between atoms: C_9  and  C_10
REMARK                            x       y       z     vdW  Elec       q    Type
REMARK                         _______ _______ _______ _____ _____    ______ ____
ROOT
ATOM      1  C   UNL     1      45.022   5.703  11.089  0.00  0.00    +0.000 A 
ATOM      2  C   UNL     1      44.100   6.633  11.554  0.00  0.00    +0.000 A 
ATOM      3  C   UNL     1      44.567   7.785  12.180  0.00  0.00    +0.000 A 
ATOM      4  C   UNL     1      45.942   7.995  12.315  0.00  0.00    +0.000 A 
ATOM      5  N   UNL     1      46.335   9.215  12.911  0.00  0.00    +0.000 N 
ATOM      6  N   UNL     1      46.843   7.093  11.878  0.00  0.00    +0.000 NA
ATOM      7  C   UNL     1      46.368   5.962  11.296  0.00  0.00    +0.000 A 
ATOM      8  H   UNL     1      45.862   9.306  13.802  0.00  0.00    +0.000 HD
ENDROOT
BRANCH   1  10
ATOM      9  N   UNL     1      44.048   4.595   9.161  0.00  0.00    +0.000 N 
ATOM     10  C   UNL     1      44.619   4.461  10.396  0.00  0.00    +0.000 C 
ATOM     11  O   UNL     1      44.817   3.361  10.891  0.00  0.00    +0.000 OA
ATOM     12  H   UNL     1      43.878   3.737   8.655  0.00  0.00    +0.000 HD
ATOM     13  H   UNL     1      44.112   5.448   8.626  0.00  0.00    +0.000 HD
ENDBRANCH   1  10
BRANCH   5  14
ATOM     14  C   UNL     1      47.702   9.764  12.808  0.00  0.00    +0.000 C 
ATOM     15  C   UNL     1      47.766  11.053  11.995  0.00  0.00    +0.000 C 
ATOM     16  C   UNL     1      48.410   9.816  11.464  0.00  0.00    +0.000 C 
BRANCH  14  17
ATOM     17  C   UNL     1      48.615   9.679  14.048  0.00  0.00    +0.000 C 
ATOM     18  C   UNL     1      50.091   9.467  13.704  0.00  0.00    +0.000 C 
ATOM     19  C   UNL     1      50.440   8.007  13.429  0.00  0.00    +0.000 C 
ATOM     20  N   UNL     1      50.022   7.112  14.512  0.00  0.00    +0.000 NA
ATOM     21  C   UNL     1      48.602   7.227  14.826  0.00  0.00    +0.000 C 
ATOM     22  C   UNL     1      48.161   8.661  15.104  0.00  0.00    +0.000 C 
ATOM     23  H   UNL     1      50.566   7.336  15.343  0.00  0.00    +0.000 HD
ENDBRANCH  14  17
ENDBRANCH   5  14
TORSDOF 3
ENDMDL
MODEL 7
REMARK VINA RESULT:    -4.299      4.453      7.281
REMARK INTER + INTRA:          -5.449
REMARK INTER:                  -7.101
REMARK INTRA:                   1.651
REMARK UNBOUND:                -0.396
REMARK  Name = 
REMARK  3 active torsions:
REMARK  status: ('A' for Active; 'I' for Inactive)
REMARK    1  A    between atoms: C_2  and  C_4
REMARK    2  A    between atoms: N_8  and  C_9
REMARK    3  A    between atoms: C_9  and  C_10
REMARK                            x       y       z     vdW  Elec       q    Type
REMARK                         _______ _______ _______ _____ _____    ______ ____
ROOT
ATOM      1  C   UNL     1      49.032   4.843  17.099  0.00  0.00    +0.000 A 
ATOM      2  C   UNL     1      48.201   3.729  17.068  0.00  0.00    +0.000 A 
ATOM      3  C   UNL     1      47.222   3.650  16.082  0.00  0.00    +0.000 A 
ATOM      4  C   UNL     1      47.101   4.673  15.138  0.00  0.00    +0.000 A 
ATOM      5  N   UNL     1      46.119   4.490  14.137  0.00  0.00    +0.000 N 
ATOM      6  N   UNL     1      47.893   5.762  15.167  0.00  0.00    +0.000 NA
ATOM      7  C   UNL     1      48.823   5.836  16.154  0.00  0.00    +0.000 A 
ATOM      8  H   UNL     1      45.232   4.299  14.586  0.00  0.00    +0.000 HD
ENDROOT
BRANCH   1  10
ATOM      9  N   UNL     1      50.264   4.001  19.014  0.00  0.00    +0.000 N 
ATOM     10  C   UNL     1      50.110   5.003  18.097  0.00  0.00    +0.000 C 
ATOM     11  O   UNL     1      50.854   5.974  18.082  0.00  0.00    +0.000 OA
ATOM     12  H   UNL     1      51.071   4.072  19.618  0.00  0.00    +0.000 HD
ATOM     13  H   UNL     1      49.852   3.088  18.890  0.00  0.00    +0.000 HD
ENDBRANCH   1  10
BRANCH   5  14
ATOM     14  C   UNL     1      46.092   5.261  12.878  0.00  0.00    +0.000 C 
ATOM     15  C   UNL     1      47.292   6.190  12.723  0.00  0.00    +0.000 C 
ATOM     16  C   UNL     1      45.930   6.771  12.904  0.00  0.00    +0.000 C 
BRANCH  14  17
ATOM     17  C   UNL     1      45.593   4.551  11.602  0.00  0.00    +0.000 C 
ATOM     18  C   UNL     1      44.530   5.345  10.840  0.00  0.00    +0.000 C 
ATOM     19  C   UNL     1      43.125   5.168  11.409  0.00  0.00    +0.000 C 
ATOM     20  N   UNL     1      42.738   3.759  11.530  0.00  0.00    +0.000 NA
ATOM     21  C   UNL     1      43.687   2.976  12.313  0.00  0.00    +0.000 C 
ATOM     22  C   UNL     1      45.125   3.105  11.820  0.00  0.00    +0.000 C 
ATOM     23  H   UNL     1      42.670   3.362  10.594  0.00  0.00    +0.000 HD
ENDBRANCH  14  17
ENDBRANCH   5  14
TORSDOF 3
ENDMDL
MODEL 8
REMARK VINA RESULT:    -4.225      7.876     10.676
REMARK INTER + INTRA:          -5.362
REMARK INTER:                  -4.971
REMARK INTRA:                  -0.391
REMARK UNBOUND:                -0.396
REMARK  Name = 
REMARK  3 active torsions:
REMARK  status: ('A' for Active; 'I' for Inactive)
REMARK    1  A    between atoms: C_2  and  C_4
REMARK    2  A    between atoms: N_8  and  C_9
REMARK    3  A    between atoms: C_9  and  C_10
REMARK                            x       y       z     vdW  Elec       q    Type
REMARK                         _______ _______ _______ _____ _____    ______ ____
ROOT
ATOM      1  C   UNL     1      48.822   3.506  17.234  0.00  0.00    +0.000 A 
ATOM      2  C   UNL     1      49.532   2.348  16.935  0.00  0.00    +0.000 A 
ATOM      3  C   UNL     1      50.874   2.274  17.293  0.00  0.00    +0.000 A 
ATOM      4  C   UNL     1      51.479   3.346  17.955  0.00  0.00    +0.000 A 
ATOM      5  N   UNL     1      52.830   3.168  18.333  0.00  0.00    +0.000 N 
ATOM      6  N   UNL     1      50.803   4.477  18.237  0.00  0.00    +0.000 NA
ATOM      7  C   UNL     1      49.501   4.543  17.855  0.00  0.00    +0.000 A 
ATOM      8  H   UNL     1      53.361   2.897  17.516  0.00  0.00    +0.000 HD
ENDROOT
BRANCH   1  10
ATOM      9  N   UNL     1      47.065   4.610  15.975  0.00  0.00    +0.000 N 
ATOM     10  C   UNL     1      47.390   3.666  16.909  0.00  0.00    +0.000 C 
ATOM     11  O   UNL     1      46.534   2.963  17.429  0.00  0.00    +0.000 OA
ATOM     12  H   UNL     1      46.097   4.633  15.685  0.00  0.00    +0.000 HD
ATOM     13  H   UNL     1      47.750   5.009  15.351  0.00  0.00    +0.000 HD
ENDBRANCH   1  10
BRANCH   5  14
ATOM     14  C   UNL     1      53.508   4.015  19.335  0.00  0.00    +0.000 C 
ATOM     15  C   UNL     1      53.953   3.237  20.569  0.00  0.00    +0.000 C 
ATOM     16  C   UNL     1      52.872   4.259  20.693  0.00  0.00    +0.000 C 
BRANCH  14  17
ATOM     17  C   UNL     1      54.460   5.118  18.829  0.00  0.00    +0.000 C 
ATOM     18  C   UNL     1      54.113   6.512  19.358  0.00  0.00    +0.000 C 
ATOM     19  C   UNL     1      53.003   7.197  18.565  0.00  0.00    +0.000 C 
ATOM     20  N   UNL     1      53.281   7.239  17.126  0.00  0.00    +0.000 NA
ATOM     21  C   UNL     1      53.546   5.920  16.562  0.00  0.00    +0.000 C 
ATOM     22  C   UNL     1      54.638   5.155  17.304  0.00  0.00    +0.000 C 
ATOM     23  H   UNL     1      54.091   7.837  16.971  0.00  0.00    +0.000 HD
ENDBRANCH  14  17
ENDBRANCH   5  14
TORSDOF 3
ENDMDL
MODEL 9
REMARK VINA RESULT:    -4.220      4.431      6.608
REMARK INTER + INTRA:          -5.355
REMARK INTER:                  -5.916
REMARK INTRA:                   0.560
REMARK UNBOUND:                -0.396
REMARK  Name = 
REMARK  3 active torsions:
REMARK  status: ('A' for Active; 'I' for Inactive)
REMARK    1  A    between atoms: C_2  and  C_4
REMARK    2  A    between atoms: N_8  and  C_9
REMARK    3  A    between atoms: C_9  and  C_10
REMARK                            x       y       z     vdW  Elec       q    Type
REMARK                         _______ _______ _______ _____ _____    ______ ____
ROOT
ATOM      1  C   UNL     1      46.019   5.257  12.568  0.00  0.00    +0.000 A 
ATOM      2  C   UNL     1      47.064   6.160  12.728  0.00  0.00    +0.000 A 
ATOM      3  C   UNL     1      47.769   6.162  13.928  0.00  0.00    +0.000 A 
ATOM      4  C   UNL     1      47.431   5.256  14.936  0.00  0.00    +0.000 A 
ATOM      5  N   UNL     1      48.232   5.286  16.101  0.00  0.00    +0.000 N 
ATOM      6  N   UNL     1      46.412   4.386  14.795  0.00  0.00    +0.000 NA
ATOM      7  C   UNL     1      45.716   4.417  13.629  0.00  0.00    +0.000 A 
ATOM      8  H   UNL     1      48.254   6.235  16.454  0.00  0.00    +0.000 HD
ENDROOT
BRANCH   1  10
ATOM      9  N   UNL     1      44.524   6.281  10.953  0.00  0.00    +0.000 N 
ATOM     10  C   UNL     1      45.228   5.169  11.323  0.00  0.00    +0.000 C 
ATOM     11  O   UNL     1      45.230   4.158  10.635  0.00  0.00    +0.000 OA
ATOM     12  H   UNL     1      44.077   6.243  10.047  0.00  0.00    +0.000 HD
ATOM     13  H   UNL     1      44.709   7.192  11.345  0.00  0.00    +0.000 HD
ENDBRANCH   1  10
BRANCH   5  14
ATOM     14  C   UNL     1      48.262   4.192  17.092  0.00  0.00    +0.000 C 
ATOM     15  C   UNL     1      49.558   3.388  17.052  0.00  0.00    +0.000 C 
ATOM     16  C   UNL     1      48.279   2.742  16.636  0.00  0.00    +0.000 C 
BRANCH  14  17
ATOM     17  C   UNL     1      47.650   4.453  18.483  0.00  0.00    +0.000 C 
ATOM     18  C   UNL     1      46.920   5.795  18.585  0.00  0.00    +0.000 C 
ATOM     19  C   UNL     1      47.858   6.970  18.850  0.00  0.00    +0.000 C 
ATOM     20  N   UNL     1      48.720   6.754  20.016  0.00  0.00    +0.000 NA
ATOM     21  C   UNL     1      49.492   5.519  19.929  0.00  0.00    +0.000 C 
ATOM     22  C   UNL     1      48.632   4.289  19.652  0.00  0.00    +0.000 C 
ATOM     23  H   UNL     1      48.133   6.722  20.848  0.00  0.00    +0.000 HD
ENDBRANCH  14  17
ENDBRANCH   5  14
TORSDOF 3
ENDMDL
