MODEL 1
REMARK VINA RESULT:    -8.162      0.000      0.000
REMARK INTER + INTRA:         -12.872
REMARK INTER:                 -12.457
REMARK INTRA:                  -0.415
REMARK UNBOUND:                -0.415
REMARK  Name = 
REMARK  9 active torsions:
REMARK  status: ('A' for Active; 'I' for Inactive)
REMARK    1  A    between atoms: C_2  and  C_3
REMARK    2  A    between atoms: C_3  and  N_4
REMARK    3  A    between atoms: C_3  and  C_20
REMARK    4  A    between atoms: N_4  and  C_5
REMARK    5  A    between atoms: C_5  and  C_6
REMARK    6  A    between atoms: C_9  and  C_10
REMARK    7  A    between atoms: C_10  and  N_11
REMARK    8  A    between atoms: N_11  and  C_12
REMARK    9  A    between atoms: C_12  and  C_13
REMARK                            x       y       z     vdW  Elec       q    Type
REMARK                         _______ _______ _______ _____ _____    ______ ____
ROOT
ATOM      1  N   UNL     1      48.321   4.678  15.249  0.00  0.00    +0.000 NA
ATOM      2  H   UNL     1      49.326   4.589  15.093  0.00  0.00    +0.000 HD
ENDROOT
BRANCH   1   3
ATOM      3  C   UNL     1      48.088   4.754  16.707  0.00  0.00    +0.000 C 
BRANCH   3   4
ATOM      4  C   UNL     1      49.454   4.658  17.364  0.00  0.00    +0.000 A 
ATOM      5  C   UNL     1      50.057   5.684  18.079  0.00  0.00    +0.000 A 
ATOM      6  S   UNL     1      51.579   5.256  18.725  0.00  0.00    +0.000 S 
ATOM      7  C   UNL     1      51.481   3.687  18.071  0.00  0.00    +0.000 A 
ATOM      8  N   UNL     1      52.469   2.778  18.271  0.00  0.00    +0.000 NA
ATOM      9  C   UNL     1      52.256   1.626  17.723  0.00  0.00    +0.000 A 
ATOM     10  N   UNL     1      51.147   1.312  16.976  0.00  0.00    +0.000 N 
ATOM     11  C   UNL     1      50.131   2.205  16.726  0.00  0.00    +0.000 A 
ATOM     12  O   UNL     1      49.162   1.918  16.026  0.00  0.00    +0.000 OA
ATOM     13  C   UNL     1      50.319   3.501  17.351  0.00  0.00    +0.000 A 
ATOM     14  H   UNL     1      51.047   0.395  16.560  0.00  0.00    +0.000 HD
ENDBRANCH   3   4
BRANCH   3  16
ATOM     15  N   UNL     1      46.488   2.856  17.631  0.00  0.00    +0.000 NA
ATOM     16  C   UNL     1      47.208   3.678  17.242  0.00  0.00    +0.000 C 
ENDBRANCH   3  16
ENDBRANCH   1   3
BRANCH   1  17
ATOM     17  C   UNL     1      47.848   5.875  14.552  0.00  0.00    +0.000 C 
BRANCH  17  18
ATOM     18  C   UNL     1      46.837   5.520  13.499  0.00  0.00    +0.000 A 
ATOM     19  C   UNL     1      46.608   6.345  12.393  0.00  0.00    +0.000 A 
ATOM     20  C   UNL     1      45.655   5.987  11.445  0.00  0.00    +0.000 A 
ATOM     21  C   UNL     1      44.951   4.803  11.623  0.00  0.00    +0.000 A 
ATOM     22  N   UNL     1      45.193   3.957  12.662  0.00  0.00    +0.000 NA
ATOM     23  C   UNL     1      46.109   4.340  13.576  0.00  0.00    +0.000 A 
BRANCH  21  24
ATOM     24  C   UNL     1      43.855   4.415  10.647  0.00  0.00    +0.000 C 
BRANCH  24  25
ATOM     25  N   UNL     1      44.309   4.328   9.248  0.00  0.00    +0.000 NA
ATOM     26  H   UNL     1      45.241   4.753   9.237  0.00  0.00    +0.000 HD
BRANCH  25  27
ATOM     27  C   UNL     1      44.464   2.930   8.812  0.00  0.00    +0.000 C 
BRANCH  27  28
ATOM     28  C   UNL     1      45.930   2.617   8.498  0.00  0.00    +0.000 C 
ATOM     29  C   UNL     1      46.385   3.169   7.157  0.00  0.00    +0.000 C 
ATOM     30  C   UNL     1      47.514   2.238   6.803  0.00  0.00    +0.000 C 
ATOM     31  C   UNL     1      47.038   0.912   7.357  0.00  0.00    +0.000 C 
ATOM     32  O   UNL     1      46.140   1.193   8.439  0.00  0.00    +0.000 OA
ENDBRANCH  27  28
ENDBRANCH  25  27
ENDBRANCH  24  25
ENDBRANCH  21  24
ENDBRANCH  17  18
ENDBRANCH   1  17
TORSDOF 9
ENDMDL
MODEL 2
REMARK VINA RESULT:    -7.670      2.073      2.900
REMARK INTER + INTRA:         -12.121
REMARK INTER:                 -11.253
REMARK INTRA:                  -0.868
REMARK UNBOUND:                -0.415
REMARK  Name = 
REMARK  9 active torsions:
REMARK  status: ('A' for Active; 'I' for Inactive)
REMARK    1  A    between atoms: C_2  and  C_3
REMARK    2  A    between atoms: C_3  and  N_4
REMARK    3  A    between atoms: C_3  and  C_20
REMARK    4  A    between atoms: N_4  and  C_5
REMARK    5  A    between atoms: C_5  and  C_6
REMARK    6  A    between atoms: C_9  and  C_10
REMARK    7  A    between atoms: C_10  and  N_11
REMARK    8  A    between atoms: N_11  and  C_12
REMARK    9  A    between atoms: C_12  and  C_13
REMARK                            x       y       z     vdW  Elec       q    Type
REMARK                         _______ _______ _______ _____ _____    ______ ____
ROOT
ATOM      1  N   UNL     1      47.798   6.369  14.977  0.00  0.00    +0.000 NA
ATOM      2  H   UNL     1      47.419   5.446  15.193  0.00  0.00    +0.000 HD
ENDROOT
BRANCH   1   3
ATOM      3  C   UNL     1      49.154   6.456  15.560  0.00  0.00    +0.000 C 
BRANCH   3   4
ATOM      4  C   UNL     1      48.966   6.764  17.035  0.00  0.00    +0.000 A 
ATOM      5  C   UNL     1      48.747   8.033  17.553  0.00  0.00    +0.000 A 
ATOM      6  S   UNL     1      48.541   8.048  19.248  0.00  0.00    +0.000 S 
ATOM      7  C   UNL     1      48.737   6.360  19.345  0.00  0.00    +0.000 A 
ATOM      8  N   UNL     1      48.654   5.708  20.533  0.00  0.00    +0.000 NA
ATOM      9  C   UNL     1      48.815   4.427  20.454  0.00  0.00    +0.000 A 
ATOM     10  N   UNL     1      49.070   3.744  19.290  0.00  0.00    +0.000 N 
ATOM     11  C   UNL     1      49.186   4.362  18.066  0.00  0.00    +0.000 A 
ATOM     12  O   UNL     1      49.450   3.739  17.039  0.00  0.00    +0.000 OA
ATOM     13  C   UNL     1      48.981   5.797  18.109  0.00  0.00    +0.000 A 
ATOM     14  H   UNL     1      49.202   2.741  19.298  0.00  0.00    +0.000 HD
ENDBRANCH   3   4
BRANCH   3  16
ATOM     15  N   UNL     1      50.706   8.327  14.508  0.00  0.00    +0.000 NA
ATOM     16  C   UNL     1      50.017   7.501  14.945  0.00  0.00    +0.000 C 
ENDBRANCH   3  16
ENDBRANCH   1   3
BRANCH   1  17
ATOM     17  C   UNL     1      47.809   6.537  13.524  0.00  0.00    +0.000 C 
BRANCH  17  18
ATOM     18  C   UNL     1      46.761   5.679  12.874  0.00  0.00    +0.000 A 
ATOM     19  C   UNL     1      46.043   6.117  11.756  0.00  0.00    +0.000 A 
ATOM     20  C   UNL     1      45.073   5.297  11.189  0.00  0.00    +0.000 A 
ATOM     21  C   UNL     1      44.845   4.048  11.753  0.00  0.00    +0.000 A 
ATOM     22  N   UNL     1      45.567   3.578  12.807  0.00  0.00    +0.000 NA
ATOM     23  C   UNL     1      46.487   4.403  13.348  0.00  0.00    +0.000 A 
BRANCH  21  24
ATOM     24  C   UNL     1      43.746   3.155  11.204  0.00  0.00    +0.000 C 
BRANCH  24  25
ATOM     25  N   UNL     1      44.243   2.039  10.380  0.00  0.00    +0.000 NA
ATOM     26  H   UNL     1      43.483   1.352  10.366  0.00  0.00    +0.000 HD
BRANCH  25  27
ATOM     27  C   UNL     1      44.480   2.454   8.988  0.00  0.00    +0.000 C 
BRANCH  27  28
ATOM     28  C   UNL     1      45.949   2.252   8.603  0.00  0.00    +0.000 C 
ATOM     29  C   UNL     1      46.351   3.023   7.357  0.00  0.00    +0.000 C 
ATOM     30  C   UNL     1      47.505   2.204   6.841  0.00  0.00    +0.000 C 
ATOM     31  C   UNL     1      47.092   0.790   7.191  0.00  0.00    +0.000 C 
ATOM     32  O   UNL     1      46.210   0.864   8.320  0.00  0.00    +0.000 OA
ENDBRANCH  27  28
ENDBRANCH  25  27
ENDBRANCH  24  25
ENDBRANCH  21  24
ENDBRANCH  17  18
ENDBRANCH   1  17
TORSDOF 9
ENDMDL
MODEL 3
REMARK VINA RESULT:    -7.398      2.074      2.913
REMARK INTER + INTRA:         -11.706
REMARK INTER:                 -10.724
REMARK INTRA:                  -0.982
REMARK UNBOUND:                -0.415
REMARK  Name = 
REMARK  9 active torsions:
REMARK  status: ('A' for Active; 'I' for Inactive)
REMARK    1  A    between atoms: C_2  and  C_3
REMARK    2  A    between atoms: C_3  and  N_4
REMARK    3  A    between atoms: C_3  and  C_20
REMARK    4  A    between atoms: N_4  and  C_5
REMARK    5  A    between atoms: C_5  and  C_6
REMARK    6  A    between atoms: C_9  and  C_10
REMARK    7  A    between atoms: C_10  and  N_11
REMARK    8  A    between atoms: N_11  and  C_12
REMARK    9  A    between atoms: C_12  and  C_13
REMARK                            x       y       z     vdW  Elec       q    Type
REMARK                         _______ _______ _______ _____ _____    ______ ____
ROOT
ATOM      1  N   UNL     1      48.352   5.139  15.137  0.00  0.00    +0.000 NA
ATOM      2  H   UNL     1      49.351   5.318  15.031  0.00  0.00    +0.000 HD
ENDROOT
BRANCH   1   3
ATOM      3  C   UNL     1      48.028   5.187  16.578  0.00  0.00    +0.000 C 
BRANCH   3   4
ATOM      4  C   UNL     1      49.356   5.227  17.314  0.00  0.00    +0.000 A 
ATOM      5  C   UNL     1      50.161   4.120  17.547  0.00  0.00    +0.000 A 
ATOM      6  S   UNL     1      51.609   4.496  18.371  0.00  0.00    +0.000 S 
ATOM      7  C   UNL     1      51.208   6.149  18.443  0.00  0.00    +0.000 A 
ATOM      8  N   UNL     1      52.044   7.052  19.014  0.00  0.00    +0.000 NA
ATOM      9  C   UNL     1      51.613   8.272  18.990  0.00  0.00    +0.000 A 
ATOM     10  N   UNL     1      50.408   8.662  18.459  0.00  0.00    +0.000 N 
ATOM     11  C   UNL     1      49.517   7.781  17.890  0.00  0.00    +0.000 A 
ATOM     12  O   UNL     1      48.427   8.143  17.451  0.00  0.00    +0.000 OA
ATOM     13  C   UNL     1      49.979   6.406  17.870  0.00  0.00    +0.000 A 
ATOM     14  H   UNL     1      50.122   9.632  18.485  0.00  0.00    +0.000 HD
ENDBRANCH   3   4
BRANCH   3  16
ATOM     15  N   UNL     1      46.632   3.095  17.412  0.00  0.00    +0.000 NA
ATOM     16  C   UNL     1      47.231   4.027  17.064  0.00  0.00    +0.000 C 
ENDBRANCH   3  16
ENDBRANCH   1   3
BRANCH   1  17
ATOM     17  C   UNL     1      47.617   6.147  14.372  0.00  0.00    +0.000 C 
BRANCH  17  18
ATOM     18  C   UNL     1      46.665   5.500  13.406  0.00  0.00    +0.000 A 
ATOM     19  C   UNL     1      46.366   4.135  13.472  0.00  0.00    +0.000 A 
ATOM     20  C   UNL     1      45.487   3.571  12.553  0.00  0.00    +0.000 A 
ATOM     21  C   UNL     1      44.919   4.391  11.585  0.00  0.00    +0.000 A 
ATOM     22  N   UNL     1      45.152   5.731  11.534  0.00  0.00    +0.000 NA
ATOM     23  C   UNL     1      46.024   6.246  12.426  0.00  0.00    +0.000 A 
BRANCH  21  24
ATOM     24  C   UNL     1      44.011   3.798  10.523  0.00  0.00    +0.000 C 
BRANCH  24  25
ATOM     25  N   UNL     1      44.188   2.347  10.333  0.00  0.00    +0.000 NA
ATOM     26  H   UNL     1      43.290   1.927  10.589  0.00  0.00    +0.000 HD
BRANCH  25  27
ATOM     27  C   UNL     1      44.439   2.010   8.922  0.00  0.00    +0.000 C 
BRANCH  27  28
ATOM     28  C   UNL     1      45.922   2.182   8.577  0.00  0.00    +0.000 C 
ATOM     29  C   UNL     1      46.160   3.159   7.438  0.00  0.00    +0.000 C 
ATOM     30  C   UNL     1      47.475   2.679   6.884  0.00  0.00    +0.000 C 
ATOM     31  C   UNL     1      47.383   1.179   7.062  0.00  0.00    +0.000 C 
ATOM     32  O   UNL     1      46.490   0.927   8.156  0.00  0.00    +0.000 OA
ENDBRANCH  27  28
ENDBRANCH  25  27
ENDBRANCH  24  25
ENDBRANCH  21  24
ENDBRANCH  17  18
ENDBRANCH   1  17
TORSDOF 9
ENDMDL
MODEL 4
REMARK VINA RESULT:    -6.913      1.569      2.125
REMARK INTER + INTRA:         -10.965
REMARK INTER:                 -10.364
REMARK INTRA:                  -0.601
REMARK UNBOUND:                -0.415
REMARK  Name = 
REMARK  9 active torsions:
REMARK  status: ('A' for Active; 'I' for Inactive)
REMARK    1  A    between atoms: C_2  and  C_3
REMARK    2  A    between atoms: C_3  and  N_4
REMARK    3  A    between atoms: C_3  and  C_20
REMARK    4  A    between atoms: N_4  and  C_5
REMARK    5  A    between atoms: C_5  and  C_6
REMARK    6  A    between atoms: C_9  and  C_10
REMARK    7  A    between atoms: C_10  and  N_11
REMARK    8  A    between atoms: N_11  and  C_12
REMARK    9  A    between atoms: C_12  and  C_13
REMARK                            x       y       z     vdW  Elec       q    Type
REMARK                         _______ _______ _______ _____ _____    ______ ____
ROOT
ATOM      1  N   UNL     1      49.361   5.545  16.206  0.00  0.00    +0.000 NA
ATOM      2  H   UNL     1      50.130   5.056  15.748  0.00  0.00    +0.000 HD
ENDROOT
BRANCH   1   3
ATOM      3  C   UNL     1      49.761   5.826  17.601  0.00  0.00    +0.000 C 
BRANCH   3   4
ATOM      4  C   UNL     1      51.047   5.055  17.840  0.00  0.00    +0.000 A 
ATOM      5  C   UNL     1      52.233   5.621  18.288  0.00  0.00    +0.000 A 
ATOM      6  S   UNL     1      53.493   4.486  18.491  0.00  0.00    +0.000 S 
ATOM      7  C   UNL     1      52.495   3.202  17.988  0.00  0.00    +0.000 A 
ATOM      8  N   UNL     1      52.956   1.926  17.948  0.00  0.00    +0.000 NA
ATOM      9  C   UNL     1      52.086   1.053  17.554  0.00  0.00    +0.000 A 
ATOM     10  N   UNL     1      50.799   1.351  17.179  0.00  0.00    +0.000 N 
ATOM     11  C   UNL     1      50.292   2.631  17.181  0.00  0.00    +0.000 A 
ATOM     12  O   UNL     1      49.148   2.884  16.809  0.00  0.00    +0.000 OA
ATOM     13  C   UNL     1      51.230   3.635  17.647  0.00  0.00    +0.000 A 
ATOM     14  H   UNL     1      50.171   0.623  16.866  0.00  0.00    +0.000 HD
ENDBRANCH   3   4
BRANCH   3  16
ATOM     15  N   UNL     1      47.994   5.123  19.446  0.00  0.00    +0.000 NA
ATOM     16  C   UNL     1      48.751   5.425  18.619  0.00  0.00    +0.000 C 
ENDBRANCH   3  16
ENDBRANCH   1   3
BRANCH   1  17
ATOM     17  C   UNL     1      49.078   6.770  15.456  0.00  0.00    +0.000 C 
BRANCH  17  18
ATOM     18  C   UNL     1      48.112   6.505  14.337  0.00  0.00    +0.000 A 
ATOM     19  C   UNL     1      47.473   5.268  14.195  0.00  0.00    +0.000 A 
ATOM     20  C   UNL     1      46.593   5.058  13.139  0.00  0.00    +0.000 A 
ATOM     21  C   UNL     1      46.365   6.098  12.245  0.00  0.00    +0.000 A 
ATOM     22  N   UNL     1      46.932   7.326  12.393  0.00  0.00    +0.000 NA
ATOM     23  C   UNL     1      47.797   7.494  13.415  0.00  0.00    +0.000 A 
BRANCH  21  24
ATOM     24  C   UNL     1      45.465   5.882  11.042  0.00  0.00    +0.000 C 
BRANCH  24  25
ATOM     25  N   UNL     1      45.056   4.480  10.849  0.00  0.00    +0.000 NA
ATOM     26  H   UNL     1      44.629   4.197  11.736  0.00  0.00    +0.000 HD
BRANCH  25  27
ATOM     27  C   UNL     1      44.023   4.352   9.808  0.00  0.00    +0.000 C 
BRANCH  27  28
ATOM     28  C   UNL     1      44.556   3.566   8.606  0.00  0.00    +0.000 C 
ATOM     29  C   UNL     1      45.338   2.325   9.003  0.00  0.00    +0.000 C 
ATOM     30  C   UNL     1      46.245   2.135   7.817  0.00  0.00    +0.000 C 
ATOM     31  C   UNL     1      46.551   3.558   7.401  0.00  0.00    +0.000 C 
ATOM     32  O   UNL     1      45.457   4.379   7.831  0.00  0.00    +0.000 OA
ENDBRANCH  27  28
ENDBRANCH  25  27
ENDBRANCH  24  25
ENDBRANCH  21  24
ENDBRANCH  17  18
ENDBRANCH   1  17
TORSDOF 9
ENDMDL
MODEL 5
REMARK VINA RESULT:    -6.885      2.134      2.973
REMARK INTER + INTRA:         -10.923
REMARK INTER:                 -10.191
REMARK INTRA:                  -0.732
REMARK UNBOUND:                -0.415
REMARK  Name = 
REMARK  9 active torsions:
REMARK  status: ('A' for Active; 'I' for Inactive)
REMARK    1  A    between atoms: C_2  and  C_3
REMARK    2  A    between atoms: C_3  and  N_4
REMARK    3  A    between atoms: C_3  and  C_20
REMARK    4  A    between atoms: N_4  and  C_5
REMARK    5  A    between atoms: C_5  and  C_6
REMARK    6  A    between atoms: C_9  and  C_10
REMARK    7  A    between atoms: C_10  and  N_11
REMARK    8  A    between atoms: N_11  and  C_12
REMARK    9  A    between atoms: C_12  and  C_13
REMARK                            x       y       z     vdW  Elec       q    Type
REMARK                         _______ _______ _______ _____ _____    ______ ____
ROOT
ATOM      1  N   UNL     1      48.187   4.959  15.003  0.00  0.00    +0.000 NA
ATOM      2  H   UNL     1      49.008   5.563  14.965  0.00  0.00    +0.000 HD
ENDROOT
BRANCH   1   3
ATOM      3  C   UNL     1      48.175   4.282  16.318  0.00  0.00    +0.000 C 
BRANCH   3   4
ATOM      4  C   UNL     1      49.092   5.089  17.221  0.00  0.00    +0.000 A 
ATOM      5  C   UNL     1      50.451   5.269  17.005  0.00  0.00    +0.000 A 
ATOM      6  S   UNL     1      51.199   6.256  18.181  0.00  0.00    +0.000 S 
ATOM      7  C   UNL     1      49.732   6.475  19.016  0.00  0.00    +0.000 A 
ATOM      8  N   UNL     1      49.664   7.246  20.130  0.00  0.00    +0.000 NA
ATOM      9  C   UNL     1      48.485   7.329  20.654  0.00  0.00    +0.000 A 
ATOM     10  N   UNL     1      47.370   6.689  20.169  0.00  0.00    +0.000 N 
ATOM     11  C   UNL     1      47.393   5.879  19.057  0.00  0.00    +0.000 A 
ATOM     12  O   UNL     1      46.393   5.286  18.657  0.00  0.00    +0.000 OA
ATOM     13  C   UNL     1      48.694   5.786  18.422  0.00  0.00    +0.000 A 
ATOM     14  H   UNL     1      46.477   6.782  20.635  0.00  0.00    +0.000 HD
ENDBRANCH   3   4
BRANCH   3  16
ATOM     15  N   UNL     1      49.042   1.779  16.273  0.00  0.00    +0.000 NA
ATOM     16  C   UNL     1      48.640   2.868  16.281  0.00  0.00    +0.000 C 
ENDBRANCH   3  16
ENDBRANCH   1   3
BRANCH   1  17
ATOM     17  C   UNL     1      46.995   5.783  14.796  0.00  0.00    +0.000 C 
BRANCH  17  18
ATOM     18  C   UNL     1      46.190   5.283  13.630  0.00  0.00    +0.000 A 
ATOM     19  C   UNL     1      45.418   6.147  12.847  0.00  0.00    +0.000 A 
ATOM     20  C   UNL     1      44.679   5.644  11.781  0.00  0.00    +0.000 A 
ATOM     21  C   UNL     1      44.732   4.280  11.519  0.00  0.00    +0.000 A 
ATOM     22  N   UNL     1      45.517   3.428  12.233  0.00  0.00    +0.000 NA
ATOM     23  C   UNL     1      46.208   3.941  13.272  0.00  0.00    +0.000 A 
BRANCH  21  24
ATOM     24  C   UNL     1      43.883   3.686  10.409  0.00  0.00    +0.000 C 
BRANCH  24  25
ATOM     25  N   UNL     1      44.085   4.328   9.098  0.00  0.00    +0.000 NA
ATOM     26  H   UNL     1      43.787   5.299   9.222  0.00  0.00    +0.000 HD
BRANCH  25  27
ATOM     27  C   UNL     1      45.507   4.355   8.718  0.00  0.00    +0.000 C 
BRANCH  27  28
ATOM     28  C   UNL     1      45.823   3.241   7.714  0.00  0.00    +0.000 C 
ATOM     29  C   UNL     1      46.047   1.890   8.371  0.00  0.00    +0.000 C 
ATOM     30  C   UNL     1      46.930   1.197   7.368  0.00  0.00    +0.000 C 
ATOM     31  C   UNL     1      47.780   2.330   6.834  0.00  0.00    +0.000 C 
ATOM     32  O   UNL     1      47.032   3.543   6.991  0.00  0.00    +0.000 OA
ENDBRANCH  27  28
ENDBRANCH  25  27
ENDBRANCH  24  25
ENDBRANCH  21  24
ENDBRANCH  17  18
ENDBRANCH   1  17
TORSDOF 9
ENDMDL
MODEL 6
REMARK VINA RESULT:    -6.640      3.911      8.747
REMARK INTER + INTRA:         -10.548
REMARK INTER:                  -8.831
REMARK INTRA:                  -1.717
REMARK UNBOUND:                -0.415
REMARK  Name = 
REMARK  9 active torsions:
REMARK  status: ('A' for Active; 'I' for Inactive)
REMARK    1  A    between atoms: C_2  and  C_3
REMARK    2  A    between atoms: C_3  and  N_4
REMARK    3  A    between atoms: C_3  and  C_20
REMARK    4  A    between atoms: N_4  and  C_5
REMARK    5  A    between atoms: C_5  and  C_6
REMARK    6  A    between atoms: C_9  and  C_10
REMARK    7  A    between atoms: C_10  and  N_11
REMARK    8  A    between atoms: N_11  and  C_12
REMARK    9  A    between atoms: C_12  and  C_13
REMARK                            x       y       z     vdW  Elec       q    Type
REMARK                         _______ _______ _______ _____ _____    ______ ____
ROOT
ATOM      1  N   UNL     1      47.007   8.674  13.972  0.00  0.00    +0.000 NA
ATOM      2  H   UNL     1      46.328   9.434  14.027  0.00  0.00    +0.000 HD
ENDROOT
BRANCH   1   3
ATOM      3  C   UNL     1      46.999   8.151  12.589  0.00  0.00    +0.000 C 
BRANCH   3   4
ATOM      4  C   UNL     1      46.296   6.805  12.646  0.00  0.00    +0.000 A 
ATOM      5  C   UNL     1      46.845   5.653  13.191  0.00  0.00    +0.000 A 
ATOM      6  S   UNL     1      45.793   4.309  13.136  0.00  0.00    +0.000 S 
ATOM      7  C   UNL     1      44.570   5.223  12.383  0.00  0.00    +0.000 A 
ATOM      8  N   UNL     1      43.370   4.672  12.070  0.00  0.00    +0.000 NA
ATOM      9  C   UNL     1      42.536   5.486  11.509  0.00  0.00    +0.000 A 
ATOM     10  N   UNL     1      42.806   6.801  11.220  0.00  0.00    +0.000 N 
ATOM     11  C   UNL     1      44.014   7.399  11.498  0.00  0.00    +0.000 A 
ATOM     12  O   UNL     1      44.250   8.568  11.199  0.00  0.00    +0.000 OA
ATOM     13  C   UNL     1      44.967   6.525  12.155  0.00  0.00    +0.000 A 
ATOM     14  H   UNL     1      42.114   7.383  10.766  0.00  0.00    +0.000 HD
ENDBRANCH   3   4
BRANCH   3  16
ATOM     15  N   UNL     1      49.398   7.791  11.527  0.00  0.00    +0.000 NA
ATOM     16  C   UNL     1      48.352   7.975  11.995  0.00  0.00    +0.000 C 
ENDBRANCH   3  16
ENDBRANCH   1   3
BRANCH   1  17
ATOM     17  C   UNL     1      48.319   9.196  14.357  0.00  0.00    +0.000 C 
BRANCH  17  18
ATOM     18  C   UNL     1      48.839   8.496  15.580  0.00  0.00    +0.000 A 
ATOM     19  C   UNL     1      49.472   7.251  15.500  0.00  0.00    +0.000 A 
ATOM     20  C   UNL     1      49.931   6.630  16.656  0.00  0.00    +0.000 A 
ATOM     21  C   UNL     1      49.750   7.274  17.875  0.00  0.00    +0.000 A 
ATOM     22  N   UNL     1      49.187   8.509  17.973  0.00  0.00    +0.000 NA
ATOM     23  C   UNL     1      48.734   9.078  16.836  0.00  0.00    +0.000 A 
BRANCH  21  24
ATOM     24  C   UNL     1      50.176   6.594  19.164  0.00  0.00    +0.000 C 
BRANCH  24  25
ATOM     25  N   UNL     1      50.238   5.125  19.069  0.00  0.00    +0.000 NA
ATOM     26  H   UNL     1      51.063   4.852  19.611  0.00  0.00    +0.000 HD
BRANCH  25  27
ATOM     27  C   UNL     1      49.072   4.488  19.703  0.00  0.00    +0.000 C 
BRANCH  27  28
ATOM     28  C   UNL     1      48.284   3.659  18.684  0.00  0.00    +0.000 C 
ATOM     29  C   UNL     1      49.156   3.085  17.579  0.00  0.00    +0.000 C 
ATOM     30  C   UNL     1      48.168   2.923  16.454  0.00  0.00    +0.000 C 
ATOM     31  C   UNL     1      47.249   4.111  16.644  0.00  0.00    +0.000 C 
ATOM     32  O   UNL     1      47.290   4.472  18.032  0.00  0.00    +0.000 OA
ENDBRANCH  27  28
ENDBRANCH  25  27
ENDBRANCH  24  25
ENDBRANCH  21  24
ENDBRANCH  17  18
ENDBRANCH   1  17
TORSDOF 9
ENDMDL
MODEL 7
REMARK VINA RESULT:    -6.502      4.054      4.955
REMARK INTER + INTRA:         -10.337
REMARK INTER:                  -9.547
REMARK INTRA:                  -0.791
REMARK UNBOUND:                -0.415
REMARK  Name = 
REMARK  9 active torsions:
REMARK  status: ('A' for Active; 'I' for Inactive)
REMARK    1  A    between atoms: C_2  and  C_3
REMARK    2  A    between atoms: C_3  and  N_4
REMARK    3  A    between atoms: C_3  and  C_20
REMARK    4  A    between atoms: N_4  and  C_5
REMARK    5  A    between atoms: C_5  and  C_6
REMARK    6  A    between atoms: C_9  and  C_10
REMARK    7  A    between atoms: C_10  and  N_11
REMARK    8  A    between atoms: N_11  and  C_12
REMARK    9  A    between atoms: C_12  and  C_13
REMARK                            x       y       z     vdW  Elec       q    Type
REMARK                         _______ _______ _______ _____ _____    ______ ____
ROOT
ATOM      1  N   UNL     1      49.220   6.692  13.552  0.00  0.00    +0.000 NA
ATOM      2  H   UNL     1      49.138   6.515  12.550  0.00  0.00    +0.000 HD
ENDROOT
BRANCH   1   3
ATOM      3  C   UNL     1      49.582   8.113  13.738  0.00  0.00    +0.000 C 
BRANCH   3   4
ATOM      4  C   UNL     1      51.058   8.134  14.097  0.00  0.00    +0.000 A 
ATOM      5  C   UNL     1      51.579   7.709  15.312  0.00  0.00    +0.000 A 
ATOM      6  S   UNL     1      53.281   7.825  15.398  0.00  0.00    +0.000 S 
ATOM      7  C   UNL     1      53.376   8.447  13.816  0.00  0.00    +0.000 A 
ATOM      8  N   UNL     1      54.572   8.751  13.250  0.00  0.00    +0.000 NA
ATOM      9  C   UNL     1      54.493   9.207  12.042  0.00  0.00    +0.000 A 
ATOM     10  N   UNL     1      53.318   9.401  11.358  0.00  0.00    +0.000 N 
ATOM     11  C   UNL     1      52.081   9.129  11.897  0.00  0.00    +0.000 A 
ATOM     12  O   UNL     1      51.037   9.343  11.283  0.00  0.00    +0.000 OA
ATOM     13  C   UNL     1      52.130   8.587  13.241  0.00  0.00    +0.000 A 
ATOM     14  H   UNL     1      53.323   9.775  10.419  0.00  0.00    +0.000 HD
ENDBRANCH   3   4
BRANCH   3  16
ATOM     15  N   UNL     1      48.231   9.385  15.628  0.00  0.00    +0.000 NA
ATOM     16  C   UNL     1      48.807   8.807  14.803  0.00  0.00    +0.000 C 
ENDBRANCH   3  16
ENDBRANCH   1   3
BRANCH   1  17
ATOM     17  C   UNL     1      47.944   6.359  14.187  0.00  0.00    +0.000 C 
BRANCH  17  18
ATOM     18  C   UNL     1      47.001   5.728  13.203  0.00  0.00    +0.000 A 
ATOM     19  C   UNL     1      46.342   4.527  13.484  0.00  0.00    +0.000 A 
ATOM     20  C   UNL     1      45.484   3.968  12.543  0.00  0.00    +0.000 A 
ATOM     21  C   UNL     1      45.299   4.631  11.335  0.00  0.00    +0.000 A 
ATOM     22  N   UNL     1      45.886   5.827  11.059  0.00  0.00    +0.000 NA
ATOM     23  C   UNL     1      46.728   6.334  11.984  0.00  0.00    +0.000 A 
BRANCH  21  24
ATOM     24  C   UNL     1      44.425   4.016  10.256  0.00  0.00    +0.000 C 
BRANCH  24  25
ATOM     25  N   UNL     1      44.618   4.612   8.923  0.00  0.00    +0.000 NA
ATOM     26  H   UNL     1      45.527   5.082   8.964  0.00  0.00    +0.000 HD
BRANCH  25  27
ATOM     27  C   UNL     1      44.707   3.583   7.874  0.00  0.00    +0.000 C 
BRANCH  27  28
ATOM     28  C   UNL     1      46.153   3.109   7.698  0.00  0.00    +0.000 C 
ATOM     29  C   UNL     1      46.617   3.131   6.251  0.00  0.00    +0.000 C 
ATOM     30  C   UNL     1      47.696   2.082   6.252  0.00  0.00    +0.000 C 
ATOM     31  C   UNL     1      47.166   1.060   7.236  0.00  0.00    +0.000 C 
ATOM     32  O   UNL     1      46.295   1.747   8.145  0.00  0.00    +0.000 OA
ENDBRANCH  27  28
ENDBRANCH  25  27
ENDBRANCH  24  25
ENDBRANCH  21  24
ENDBRANCH  17  18
ENDBRANCH   1  17
TORSDOF 9
ENDMDL
MODEL 8
REMARK VINA RESULT:    -6.297      2.084      2.581
REMARK INTER + INTRA:         -10.026
REMARK INTER:                  -9.227
REMARK INTRA:                  -0.798
REMARK UNBOUND:                -0.415
REMARK  Name = 
REMARK  9 active torsions:
REMARK  status: ('A' for Active; 'I' for Inactive)
REMARK    1  A    between atoms: C_2  and  C_3
REMARK    2  A    between atoms: C_3  and  N_4
REMARK    3  A    between atoms: C_3  and  C_20
REMARK    4  A    between atoms: N_4  and  C_5
REMARK    5  A    between atoms: C_5  and  C_6
REMARK    6  A    between atoms: C_9  and  C_10
REMARK    7  A    between atoms: C_10  and  N_11
REMARK    8  A    between atoms: N_11  and  C_12
REMARK    9  A    between atoms: C_12  and  C_13
REMARK                            x       y       z     vdW  Elec       q    Type
REMARK                         _______ _______ _______ _____ _____    ______ ____
ROOT
ATOM      1  N   UNL     1      48.982   5.319  15.707  0.00  0.00    +0.000 NA
ATOM      2  H   UNL     1      49.816   5.139  15.147  0.00  0.00    +0.000 HD
ENDROOT
BRANCH   1   3
ATOM      3  C   UNL     1      49.417   5.703  17.067  0.00  0.00    +0.000 C 
BRANCH   3   4
ATOM      4  C   UNL     1      50.508   4.722  17.459  0.00  0.00    +0.000 A 
ATOM      5  C   UNL     1      50.391   3.341  17.379  0.00  0.00    +0.000 A 
ATOM      6  S   UNL     1      51.804   2.512  17.861  0.00  0.00    +0.000 S 
ATOM      7  C   UNL     1      52.617   3.970  18.192  0.00  0.00    +0.000 A 
ATOM      8  N   UNL     1      53.901   3.976  18.631  0.00  0.00    +0.000 NA
ATOM      9  C   UNL     1      54.393   5.155  18.834  0.00  0.00    +0.000 A 
ATOM     10  N   UNL     1      53.704   6.329  18.652  0.00  0.00    +0.000 N 
ATOM     11  C   UNL     1      52.394   6.374  18.231  0.00  0.00    +0.000 A 
ATOM     12  O   UNL     1      51.781   7.432  18.107  0.00  0.00    +0.000 OA
ATOM     13  C   UNL     1      51.816   5.070  17.963  0.00  0.00    +0.000 A 
ATOM     14  H   UNL     1      54.142   7.220  18.843  0.00  0.00    +0.000 HD
ENDBRANCH   3   4
BRANCH   3  16
ATOM     15  N   UNL     1      47.513   5.610  18.906  0.00  0.00    +0.000 NA
ATOM     16  C   UNL     1      48.334   5.669  18.087  0.00  0.00    +0.000 C 
ENDBRANCH   3  16
ENDBRANCH   1   3
BRANCH   1  17
ATOM     17  C   UNL     1      48.206   6.376  15.056  0.00  0.00    +0.000 C 
BRANCH  17  18
ATOM     18  C   UNL     1      47.227   5.798  14.074  0.00  0.00    +0.000 A 
ATOM     19  C   UNL     1      46.916   6.451  12.877  0.00  0.00    +0.000 A 
ATOM     20  C   UNL     1      45.996   5.889  11.998  0.00  0.00    +0.000 A 
ATOM     21  C   UNL     1      45.407   4.677  12.337  0.00  0.00    +0.000 A 
ATOM     22  N   UNL     1      45.732   3.996  13.470  0.00  0.00    +0.000 NA
ATOM     23  C   UNL     1      46.613   4.576  14.312  0.00  0.00    +0.000 A 
BRANCH  21  24
ATOM     24  C   UNL     1      44.346   4.069  11.436  0.00  0.00    +0.000 C 
BRANCH  24  25
ATOM     25  N   UNL     1      44.896   3.286  10.315  0.00  0.00    +0.000 NA
ATOM     26  H   UNL     1      44.424   2.379  10.359  0.00  0.00    +0.000 HD
BRANCH  25  27
ATOM     27  C   UNL     1      44.562   3.889   9.015  0.00  0.00    +0.000 C 
BRANCH  27  28
ATOM     28  C   UNL     1      45.227   3.117   7.870  0.00  0.00    +0.000 C 
ATOM     29  C   UNL     1      45.933   1.853   8.332  0.00  0.00    +0.000 C 
ATOM     30  C   UNL     1      46.978   1.671   7.265  0.00  0.00    +0.000 C 
ATOM     31  C   UNL     1      47.357   3.096   6.923  0.00  0.00    +0.000 C 
ATOM     32  O   UNL     1      46.231   3.929   7.233  0.00  0.00    +0.000 OA
ENDBRANCH  27  28
ENDBRANCH  25  27
ENDBRANCH  24  25
ENDBRANCH  21  24
ENDBRANCH  17  18
ENDBRANCH   1  17
TORSDOF 9
ENDMDL
MODEL 9
REMARK VINA RESULT:    -6.050      6.071      8.066
REMARK INTER + INTRA:          -9.648
REMARK INTER:                  -8.781
REMARK INTRA:                  -0.867
REMARK UNBOUND:                -0.415
REMARK  Name = 
REMARK  9 active torsions:
REMARK  status: ('A' for Active; 'I' for Inactive)
REMARK    1  A    between atoms: C_2  and  C_3
REMARK    2  A    between atoms: C_3  and  N_4
REMARK    3  A    between atoms: C_3  and  C_20
REMARK    4  A    between atoms: N_4  and  C_5
REMARK    5  A    between atoms: C_5  and  C_6
REMARK    6  A    between atoms: C_9  and  C_10
REMARK    7  A    between atoms: C_10  and  N_11
REMARK    8  A    between atoms: N_11  and  C_12
REMARK    9  A    between atoms: C_12  and  C_13
REMARK                            x       y       z     vdW  Elec       q    Type
REMARK                         _______ _______ _______ _____ _____    ______ ____
ROOT
ATOM      1  N   UNL     1      51.248   7.363  11.310  0.00  0.00    +0.000 NA
ATOM      2  H   UNL     1      50.846   6.806  10.555  0.00  0.00    +0.000 HD
ENDROOT
BRANCH   1   3
ATOM      3  C   UNL     1      52.391   8.123  10.760  0.00  0.00    +0.000 C 
BRANCH   3   4
ATOM      4  C   UNL     1      52.891   7.336   9.561  0.00  0.00    +0.000 A 
ATOM      5  C   UNL     1      53.263   6.000   9.597  0.00  0.00    +0.000 A 
ATOM      6  S   UNL     1      53.749   5.390   8.077  0.00  0.00    +0.000 S 
ATOM      7  C   UNL     1      53.477   6.892   7.323  0.00  0.00    +0.000 A 
ATOM      8  N   UNL     1      53.683   7.059   5.992  0.00  0.00    +0.000 NA
ATOM      9  C   UNL     1      53.428   8.250   5.555  0.00  0.00    +0.000 A 
ATOM     10  N   UNL     1      53.002   9.293   6.340  0.00  0.00    +0.000 N 
ATOM     11  C   UNL     1      52.801   9.179   7.697  0.00  0.00    +0.000 A 
ATOM     12  O   UNL     1      52.454  10.133   8.391  0.00  0.00    +0.000 OA
ATOM     13  C   UNL     1      53.047   7.849   8.220  0.00  0.00    +0.000 A 
ATOM     14  H   UNL     1      52.835  10.206   5.939  0.00  0.00    +0.000 HD
ENDBRANCH   3   4
BRANCH   3  16
ATOM     15  N   UNL     1      54.358   8.507  12.492  0.00  0.00    +0.000 NA
ATOM     16  C   UNL     1      53.511   8.322  11.720  0.00  0.00    +0.000 C 
ENDBRANCH   3  16
ENDBRANCH   1   3
BRANCH   1  17
ATOM     17  C   UNL     1      50.206   8.242  11.843  0.00  0.00    +0.000 C 
BRANCH  17  18
ATOM     18  C   UNL     1      48.984   7.456  12.226  0.00  0.00    +0.000 A 
ATOM     19  C   UNL     1      47.847   7.424  11.412  0.00  0.00    +0.000 A 
ATOM     20  C   UNL     1      46.731   6.694  11.807  0.00  0.00    +0.000 A 
ATOM     21  C   UNL     1      46.779   6.004  13.013  0.00  0.00    +0.000 A 
ATOM     22  N   UNL     1      47.892   5.976  13.795  0.00  0.00    +0.000 NA
ATOM     23  C   UNL     1      48.952   6.709  13.396  0.00  0.00    +0.000 A 
BRANCH  21  24
ATOM     24  C   UNL     1      45.556   5.254  13.509  0.00  0.00    +0.000 C 
BRANCH  24  25
ATOM     25  N   UNL     1      44.279   5.877  13.121  0.00  0.00    +0.000 NA
ATOM     26  H   UNL     1      44.426   6.231  12.171  0.00  0.00    +0.000 HD
BRANCH  25  27
ATOM     27  C   UNL     1      43.189   4.890  13.052  0.00  0.00    +0.000 C 
BRANCH  27  28
ATOM     28  C   UNL     1      43.078   4.298  11.643  0.00  0.00    +0.000 C 
ATOM     29  C   UNL     1      43.749   2.941  11.511  0.00  0.00    +0.000 C 
ATOM     30  C   UNL     1      44.078   2.897  10.042  0.00  0.00    +0.000 C 
ATOM     31  C   UNL     1      44.414   4.341   9.733  0.00  0.00    +0.000 C 
ATOM     32  O   UNL     1      43.718   5.160  10.683  0.00  0.00    +0.000 OA
ENDBRANCH  27  28
ENDBRANCH  25  27
ENDBRANCH  24  25
ENDBRANCH  21  24
ENDBRANCH  17  18
ENDBRANCH   1  17
TORSDOF 9
ENDMDL
