MODEL 1
REMARK VINA RESULT:    -8.618      0.000      0.000
REMARK INTER + INTRA:         -13.091
REMARK INTER:                 -12.145
REMARK INTRA:                  -0.946
REMARK UNBOUND:                -0.946
REMARK  Name = 
REMARK  8 active torsions:
REMARK  status: ('A' for Active; 'I' for Inactive)
REMARK    1  A    between atoms: C_1  and  C_2
REMARK    2  A    between atoms: C_2  and  N_3
REMARK    3  A    between atoms: C_2  and  C_25
REMARK    4  A    between atoms: N_3  and  C_4
REMARK    5  A    between atoms: C_4  and  C_5
REMARK    6  A    between atoms: C_8  and  C_9
REMARK    7  A    between atoms: C_9  and  N_10
REMARK    8  A    between atoms: C_11  and  C_13
REMARK                            x       y       z     vdW  Elec       q    Type
REMARK                         _______ _______ _______ _____ _____    ______ ____
ROOT
ATOM      1  C   UNL     1      45.345   4.128  12.452  0.00  0.00    +0.000 A 
ATOM      2  C   UNL     1      45.413   5.492  12.201  0.00  0.00    +0.000 A 
ATOM      3  C   UNL     1      46.401   6.246  12.831  0.00  0.00    +0.000 A 
ATOM      4  C   UNL     1      47.294   5.609  13.682  0.00  0.00    +0.000 A 
ATOM      5  N   UNL     1      47.183   4.287  13.934  0.00  0.00    +0.000 NA
ATOM      6  N   UNL     1      46.210   3.542  13.310  0.00  0.00    +0.000 NA
ENDROOT
BRANCH   1   7
ATOM      7  C   UNL     1      44.358   3.240  11.720  0.00  0.00    +0.000 C 
BRANCH   7   8
ATOM      8  N   UNL     1      44.964   2.506  10.609  0.00  0.00    +0.000 NA
ATOM      9  H   UNL     1      44.806   1.507  10.732  0.00  0.00    +0.000 HD
BRANCH   8  11
ATOM     10  C   UNL     1      44.108   4.385   9.164  0.00  0.00    +0.000 C 
ATOM     11  C   UNL     1      44.485   2.899   9.278  0.00  0.00    +0.000 C 
BRANCH  11  12
ATOM     12  C   UNL     1      45.561   2.578   8.251  0.00  0.00    +0.000 A 
ATOM     13  C   UNL     1      46.173   1.317   8.217  0.00  0.00    +0.000 A 
ATOM     14  C   UNL     1      47.144   1.024   7.257  0.00  0.00    +0.000 A 
ATOM     15  C   UNL     1      47.516   1.988   6.320  0.00  0.00    +0.000 A 
ATOM     16  C   UNL     1      46.926   3.247   6.344  0.00  0.00    +0.000 A 
ATOM     17  C   UNL     1      45.958   3.542   7.307  0.00  0.00    +0.000 A 
ENDBRANCH  11  12
ENDBRANCH   8  11
ENDBRANCH   7   8
ENDBRANCH   1   7
BRANCH   4  18
ATOM     18  C   UNL     1      48.392   6.367  14.381  0.00  0.00    +0.000 C 
BRANCH  18  19
ATOM     19  N   UNL     1      48.074   6.591  15.773  0.00  0.00    +0.000 N 
ATOM     20  C   UNL     1      48.859   6.123  16.791  0.00  0.00    +0.000 C 
ATOM     21  O   UNL     1      49.918   5.536  16.587  0.00  0.00    +0.000 OA
ATOM     22  H   UNL     1      47.104   6.822  15.962  0.00  0.00    +0.000 HD
BRANCH  20  23
ATOM     23  C   UNL     1      48.406   6.437  18.152  0.00  0.00    +0.000 A 
ATOM     24  C   UNL     1      48.315   5.427  19.102  0.00  0.00    +0.000 A 
ATOM     25  S   UNL     1      47.823   5.978  20.639  0.00  0.00    +0.000 S 
ATOM     26  C   UNL     1      47.663   7.576  20.078  0.00  0.00    +0.000 A 
ATOM     27  N   UNL     1      47.236   8.572  20.900  0.00  0.00    +0.000 NA
ATOM     28  C   UNL     1      47.136   9.726  20.331  0.00  0.00    +0.000 A 
ATOM     29  N   UNL     1      47.433   9.981  19.018  0.00  0.00    +0.000 N 
ATOM     30  C   UNL     1      47.901   9.014  18.163  0.00  0.00    +0.000 A 
ATOM     31  O   UNL     1      48.221   9.285  17.006  0.00  0.00    +0.000 OA
ATOM     32  C   UNL     1      48.009   7.695  18.743  0.00  0.00    +0.000 A 
ATOM     33  H   UNL     1      47.352  10.911  18.637  0.00  0.00    +0.000 HD
ENDBRANCH  20  23
ENDBRANCH  18  19
ENDBRANCH   4  18
TORSDOF 7
ENDMDL
MODEL 2
REMARK VINA RESULT:    -8.596      1.616      2.493
REMARK INTER + INTRA:         -13.060
REMARK INTER:                 -12.299
REMARK INTRA:                  -0.761
REMARK UNBOUND:                -0.946
REMARK  Name = 
REMARK  8 active torsions:
REMARK  status: ('A' for Active; 'I' for Inactive)
REMARK    1  A    between atoms: C_1  and  C_2
REMARK    2  A    between atoms: C_2  and  N_3
REMARK    3  A    between atoms: C_2  and  C_25
REMARK    4  A    between atoms: N_3  and  C_4
REMARK    5  A    between atoms: C_4  and  C_5
REMARK    6  A    between atoms: C_8  and  C_9
REMARK    7  A    between atoms: C_9  and  N_10
REMARK    8  A    between atoms: C_11  and  C_13
REMARK                            x       y       z     vdW  Elec       q    Type
REMARK                         _______ _______ _______ _____ _____    ______ ____
ROOT
ATOM      1  C   UNL     1      45.340   4.289  12.557  0.00  0.00    +0.000 A 
ATOM      2  C   UNL     1      45.209   5.653  12.334  0.00  0.00    +0.000 A 
ATOM      3  C   UNL     1      46.190   6.515  12.821  0.00  0.00    +0.000 A 
ATOM      4  C   UNL     1      47.274   5.982  13.504  0.00  0.00    +0.000 A 
ATOM      5  N   UNL     1      47.359   4.655  13.735  0.00  0.00    +0.000 NA
ATOM      6  N   UNL     1      46.392   3.804  13.253  0.00  0.00    +0.000 NA
ENDROOT
BRANCH   1   7
ATOM      7  C   UNL     1      44.358   3.296  11.966  0.00  0.00    +0.000 C 
BRANCH   7   8
ATOM      8  N   UNL     1      44.917   2.536  10.848  0.00  0.00    +0.000 NA
ATOM      9  H   UNL     1      44.753   1.541  10.995  0.00  0.00    +0.000 HD
BRANCH   8  11
ATOM     10  C   UNL     1      43.990   4.389   9.415  0.00  0.00    +0.000 C 
ATOM     11  C   UNL     1      44.396   2.911   9.528  0.00  0.00    +0.000 C 
BRANCH  11  12
ATOM     12  C   UNL     1      45.450   2.603   8.475  0.00  0.00    +0.000 A 
ATOM     13  C   UNL     1      45.872   3.584   7.566  0.00  0.00    +0.000 A 
ATOM     14  C   UNL     1      46.856   3.298   6.617  0.00  0.00    +0.000 A 
ATOM     15  C   UNL     1      47.429   2.028   6.564  0.00  0.00    +0.000 A 
ATOM     16  C   UNL     1      47.017   1.040   7.451  0.00  0.00    +0.000 A 
ATOM     17  C   UNL     1      46.030   1.323   8.397  0.00  0.00    +0.000 A 
ENDBRANCH  11  12
ENDBRANCH   8  11
ENDBRANCH   7   8
ENDBRANCH   1   7
BRANCH   4  18
ATOM     18  C   UNL     1      48.375   6.860  14.041  0.00  0.00    +0.000 C 
BRANCH  18  19
ATOM     19  N   UNL     1      48.325   6.942  15.483  0.00  0.00    +0.000 N 
ATOM     20  C   UNL     1      49.424   6.723  16.269  0.00  0.00    +0.000 C 
ATOM     21  O   UNL     1      50.536   6.503  15.798  0.00  0.00    +0.000 OA
ATOM     22  H   UNL     1      47.400   6.852  15.890  0.00  0.00    +0.000 HD
BRANCH  20  23
ATOM     23  C   UNL     1      49.216   6.849  17.717  0.00  0.00    +0.000 A 
ATOM     24  C   UNL     1      49.239   8.104  18.314  0.00  0.00    +0.000 A 
ATOM     25  S   UNL     1      48.928   8.069  19.991  0.00  0.00    +0.000 S 
ATOM     26  C   UNL     1      48.804   6.372  19.990  0.00  0.00    +0.000 A 
ATOM     27  N   UNL     1      48.573   5.682  21.139  0.00  0.00    +0.000 NA
ATOM     28  C   UNL     1      48.530   4.400  20.991  0.00  0.00    +0.000 A 
ATOM     29  N   UNL     1      48.689   3.744  19.798  0.00  0.00    +0.000 N 
ATOM     30  C   UNL     1      48.887   4.402  18.611  0.00  0.00    +0.000 A 
ATOM     31  O   UNL     1      48.961   3.790  17.546  0.00  0.00    +0.000 OA
ATOM     32  C   UNL     1      48.967   5.840  18.722  0.00  0.00    +0.000 A 
ATOM     33  H   UNL     1      48.625   2.739  19.746  0.00  0.00    +0.000 HD
ENDBRANCH  20  23
ENDBRANCH  18  19
ENDBRANCH   4  18
TORSDOF 7
ENDMDL
MODEL 3
REMARK VINA RESULT:    -8.337      2.700      4.047
REMARK INTER + INTRA:         -12.694
REMARK INTER:                 -11.705
REMARK INTRA:                  -0.989
REMARK UNBOUND:                -0.946
REMARK  Name = 
REMARK  8 active torsions:
REMARK  status: ('A' for Active; 'I' for Inactive)
REMARK    1  A    between atoms: C_1  and  C_2
REMARK    2  A    between atoms: C_2  and  N_3
REMARK    3  A    between atoms: C_2  and  C_25
REMARK    4  A    between atoms: N_3  and  C_4
REMARK    5  A    between atoms: C_4  and  C_5
REMARK    6  A    between atoms: C_8  and  C_9
REMARK    7  A    between atoms: C_9  and  N_10
REMARK    8  A    between atoms: C_11  and  C_13
REMARK                            x       y       z     vdW  Elec       q    Type
REMARK                         _______ _______ _______ _____ _____    ______ ____
ROOT
ATOM      1  C   UNL     1      45.616   4.239  12.925  0.00  0.00    +0.000 A 
ATOM      2  C   UNL     1      45.538   5.604  12.683  0.00  0.00    +0.000 A 
ATOM      3  C   UNL     1      46.416   6.459  13.344  0.00  0.00    +0.000 A 
ATOM      4  C   UNL     1      47.350   5.921  14.217  0.00  0.00    +0.000 A 
ATOM      5  N   UNL     1      47.382   4.593  14.460  0.00  0.00    +0.000 NA
ATOM      6  N   UNL     1      46.517   3.748  13.806  0.00  0.00    +0.000 NA
ENDROOT
BRANCH   1   7
ATOM      7  C   UNL     1      44.756   3.251  12.162  0.00  0.00    +0.000 C 
BRANCH   7   8
ATOM      8  N   UNL     1      45.412   2.731  10.962  0.00  0.00    +0.000 NA
ATOM      9  H   UNL     1      45.623   1.741  11.090  0.00  0.00    +0.000 HD
BRANCH   8  11
ATOM     10  C   UNL     1      44.022   4.289   9.551  0.00  0.00    +0.000 C 
ATOM     11  C   UNL     1      44.644   2.894   9.722  0.00  0.00    +0.000 C 
BRANCH  11  12
ATOM     12  C   UNL     1      45.553   2.606   8.536  0.00  0.00    +0.000 A 
ATOM     13  C   UNL     1      46.137   1.342   8.365  0.00  0.00    +0.000 A 
ATOM     14  C   UNL     1      46.953   1.081   7.262  0.00  0.00    +0.000 A 
ATOM     15  C   UNL     1      47.196   2.078   6.318  0.00  0.00    +0.000 A 
ATOM     16  C   UNL     1      46.633   3.340   6.477  0.00  0.00    +0.000 A 
ATOM     17  C   UNL     1      45.821   3.604   7.582  0.00  0.00    +0.000 A 
ENDBRANCH  11  12
ENDBRANCH   8  11
ENDBRANCH   7   8
ENDBRANCH   1   7
BRANCH   4  18
ATOM     18  C   UNL     1      48.336   6.792  14.951  0.00  0.00    +0.000 C 
BRANCH  18  19
ATOM     19  N   UNL     1      49.402   6.007  15.533  0.00  0.00    +0.000 N 
ATOM     20  C   UNL     1      49.692   6.040  16.870  0.00  0.00    +0.000 C 
ATOM     21  O   UNL     1      49.028   6.692  17.670  0.00  0.00    +0.000 OA
ATOM     22  H   UNL     1      50.110   5.689  14.880  0.00  0.00    +0.000 HD
BRANCH  20  23
ATOM     23  C   UNL     1      50.799   5.182  17.310  0.00  0.00    +0.000 A 
ATOM     24  C   UNL     1      51.973   5.754  17.783  0.00  0.00    +0.000 A 
ATOM     25  S   UNL     1      53.130   4.611  18.300  0.00  0.00    +0.000 S 
ATOM     26  C   UNL     1      52.124   3.311  17.861  0.00  0.00    +0.000 A 
ATOM     27  N   UNL     1      52.532   2.023  18.014  0.00  0.00    +0.000 NA
ATOM     28  C   UNL     1      51.677   1.142  17.613  0.00  0.00    +0.000 A 
ATOM     29  N   UNL     1      50.448   1.430  17.082  0.00  0.00    +0.000 N 
ATOM     30  C   UNL     1      49.982   2.713  16.944  0.00  0.00    +0.000 A 
ATOM     31  O   UNL     1      48.847   2.939  16.524  0.00  0.00    +0.000 OA
ATOM     32  C   UNL     1      50.909   3.741  17.355  0.00  0.00    +0.000 A 
ATOM     33  H   UNL     1      49.816   0.694  16.805  0.00  0.00    +0.000 HD
ENDBRANCH  20  23
ENDBRANCH  18  19
ENDBRANCH   4  18
TORSDOF 7
ENDMDL
MODEL 4
REMARK VINA RESULT:    -8.311      2.534      3.194
REMARK INTER + INTRA:         -12.658
REMARK INTER:                 -11.794
REMARK INTRA:                  -0.865
REMARK UNBOUND:                -0.946
REMARK  Name = 
REMARK  8 active torsions:
REMARK  status: ('A' for Active; 'I' for Inactive)
REMARK    1  A    between atoms: C_1  and  C_2
REMARK    2  A    between atoms: C_2  and  N_3
REMARK    3  A    between atoms: C_2  and  C_25
REMARK    4  A    between atoms: N_3  and  C_4
REMARK    5  A    between atoms: C_4  and  C_5
REMARK    6  A    between atoms: C_8  and  C_9
REMARK    7  A    between atoms: C_9  and  N_10
REMARK    8  A    between atoms: C_11  and  C_13
REMARK                            x       y       z     vdW  Elec       q    Type
REMARK                         _______ _______ _______ _____ _____    ______ ____
ROOT
ATOM      1  C   UNL     1      44.414   5.693  11.175  0.00  0.00    +0.000 A 
ATOM      2  C   UNL     1      44.186   7.061  11.237  0.00  0.00    +0.000 A 
ATOM      3  C   UNL     1      45.080   7.864  11.943  0.00  0.00    +0.000 A 
ATOM      4  C   UNL     1      46.178   7.273  12.553  0.00  0.00    +0.000 A 
ATOM      5  N   UNL     1      46.356   5.935  12.505  0.00  0.00    +0.000 NA
ATOM      6  N   UNL     1      45.475   5.143  11.807  0.00  0.00    +0.000 NA
ENDROOT
BRANCH   1   7
ATOM      7  C   UNL     1      43.533   4.783  10.341  0.00  0.00    +0.000 C 
BRANCH   7   8
ATOM      8  N   UNL     1      44.213   4.259   9.157  0.00  0.00    +0.000 NA
ATOM      9  H   UNL     1      44.838   4.971   8.779  0.00  0.00    +0.000 HD
BRANCH   8  11
ATOM     10  C   UNL     1      44.107   1.791   9.651  0.00  0.00    +0.000 C 
ATOM     11  C   UNL     1      44.979   3.028   9.381  0.00  0.00    +0.000 C 
BRANCH  11  12
ATOM     12  C   UNL     1      45.856   2.763   8.166  0.00  0.00    +0.000 A 
ATOM     13  C   UNL     1      46.454   1.510   7.967  0.00  0.00    +0.000 A 
ATOM     14  C   UNL     1      47.239   1.270   6.838  0.00  0.00    +0.000 A 
ATOM     15  C   UNL     1      47.439   2.278   5.895  0.00  0.00    +0.000 A 
ATOM     16  C   UNL     1      46.862   3.529   6.081  0.00  0.00    +0.000 A 
ATOM     17  C   UNL     1      46.080   3.772   7.212  0.00  0.00    +0.000 A 
ENDBRANCH  11  12
ENDBRANCH   8  11
ENDBRANCH   7   8
ENDBRANCH   1   7
BRANCH   4  18
ATOM     18  C   UNL     1      47.188   8.088  13.317  0.00  0.00    +0.000 C 
BRANCH  18  19
ATOM     19  N   UNL     1      47.544   7.451  14.565  0.00  0.00    +0.000 N 
ATOM     20  C   UNL     1      48.773   6.889  14.778  0.00  0.00    +0.000 C 
ATOM     21  O   UNL     1      49.674   6.945  13.945  0.00  0.00    +0.000 OA
ATOM     22  H   UNL     1      46.760   7.161  15.140  0.00  0.00    +0.000 HD
BRANCH  20  23
ATOM     23  C   UNL     1      48.985   6.285  16.099  0.00  0.00    +0.000 A 
ATOM     24  C   UNL     1      49.878   6.867  16.992  0.00  0.00    +0.000 A 
ATOM     25  S   UNL     1      49.961   6.064  18.495  0.00  0.00    +0.000 S 
ATOM     26  C   UNL     1      48.848   4.881  17.989  0.00  0.00    +0.000 A 
ATOM     27  N   UNL     1      48.493   3.854  18.806  0.00  0.00    +0.000 NA
ATOM     28  C   UNL     1      47.662   3.017  18.279  0.00  0.00    +0.000 A 
ATOM     29  N   UNL     1      47.146   3.118  17.013  0.00  0.00    +0.000 N 
ATOM     30  C   UNL     1      47.449   4.157  16.170  0.00  0.00    +0.000 A 
ATOM     31  O   UNL     1      46.921   4.256  15.063  0.00  0.00    +0.000 OA
ATOM     32  C   UNL     1      48.395   5.111  16.700  0.00  0.00    +0.000 A 
ATOM     33  H   UNL     1      46.484   2.441  16.666  0.00  0.00    +0.000 HD
ENDBRANCH  20  23
ENDBRANCH  18  19
ENDBRANCH   4  18
TORSDOF 7
ENDMDL
MODEL 5
REMARK VINA RESULT:    -8.131      3.170      4.676
REMARK INTER + INTRA:         -12.405
REMARK INTER:                 -11.813
REMARK INTRA:                  -0.591
REMARK UNBOUND:                -0.946
REMARK  Name = 
REMARK  8 active torsions:
REMARK  status: ('A' for Active; 'I' for Inactive)
REMARK    1  A    between atoms: C_1  and  C_2
REMARK    2  A    between atoms: C_2  and  N_3
REMARK    3  A    between atoms: C_2  and  C_25
REMARK    4  A    between atoms: N_3  and  C_4
REMARK    5  A    between atoms: C_4  and  C_5
REMARK    6  A    between atoms: C_8  and  C_9
REMARK    7  A    between atoms: C_9  and  N_10
REMARK    8  A    between atoms: C_11  and  C_13
REMARK                            x       y       z     vdW  Elec       q    Type
REMARK                         _______ _______ _______ _____ _____    ______ ____
ROOT
ATOM      1  C   UNL     1      46.359   4.147  13.273  0.00  0.00    +0.000 A 
ATOM      2  C   UNL     1      46.556   5.461  12.870  0.00  0.00    +0.000 A 
ATOM      3  C   UNL     1      47.339   6.300  13.661  0.00  0.00    +0.000 A 
ATOM      4  C   UNL     1      47.908   5.794  14.821  0.00  0.00    +0.000 A 
ATOM      5  N   UNL     1      47.671   4.522  15.206  0.00  0.00    +0.000 NA
ATOM      6  N   UNL     1      46.900   3.693  14.426  0.00  0.00    +0.000 NA
ENDROOT
BRANCH   1   7
ATOM      7  C   UNL     1      45.601   3.162  12.406  0.00  0.00    +0.000 C 
BRANCH   7   8
ATOM      8  N   UNL     1      44.153   3.226  12.600  0.00  0.00    +0.000 NA
ATOM      9  H   UNL     1      43.938   3.864  13.365  0.00  0.00    +0.000 HD
BRANCH   8  11
ATOM     10  C   UNL     1      42.879   5.085  11.473  0.00  0.00    +0.000 C 
ATOM     11  C   UNL     1      43.391   3.637  11.415  0.00  0.00    +0.000 C 
BRANCH  11  12
ATOM     12  C   UNL     1      44.266   3.467  10.181  0.00  0.00    +0.000 A 
ATOM     13  C   UNL     1      44.845   4.577   9.549  0.00  0.00    +0.000 A 
ATOM     14  C   UNL     1      45.665   4.410   8.431  0.00  0.00    +0.000 A 
ATOM     15  C   UNL     1      45.915   3.132   7.930  0.00  0.00    +0.000 A 
ATOM     16  C   UNL     1      45.342   2.021   8.538  0.00  0.00    +0.000 A 
ATOM     17  C   UNL     1      44.518   2.188   9.653  0.00  0.00    +0.000 A 
ENDBRANCH  11  12
ENDBRANCH   8  11
ENDBRANCH   7   8
ENDBRANCH   1   7
BRANCH   4  18
ATOM     18  C   UNL     1      48.776   6.646  15.709  0.00  0.00    +0.000 C 
BRANCH  18  19
ATOM     19  N   UNL     1      49.874   5.884  16.260  0.00  0.00    +0.000 N 
ATOM     20  C   UNL     1      49.863   5.399  17.539  0.00  0.00    +0.000 C 
ATOM     21  O   UNL     1      48.893   5.527  18.282  0.00  0.00    +0.000 OA
ATOM     22  H   UNL     1      50.762   5.999  15.782  0.00  0.00    +0.000 HD
BRANCH  20  23
ATOM     23  C   UNL     1      51.050   4.639  17.951  0.00  0.00    +0.000 A 
ATOM     24  C   UNL     1      52.092   5.284  18.606  0.00  0.00    +0.000 A 
ATOM     25  S   UNL     1      53.365   4.240  19.056  0.00  0.00    +0.000 S 
ATOM     26  C   UNL     1      52.593   2.900  18.346  0.00  0.00    +0.000 A 
ATOM     27  N   UNL     1      53.173   1.671  18.349  0.00  0.00    +0.000 NA
ATOM     28  C   UNL     1      52.486   0.756  17.750  0.00  0.00    +0.000 A 
ATOM     29  N   UNL     1      51.267   0.955  17.156  0.00  0.00    +0.000 N 
ATOM     30  C   UNL     1      50.630   2.170  17.161  0.00  0.00    +0.000 A 
ATOM     31  O   UNL     1      49.507   2.304  16.677  0.00  0.00    +0.000 OA
ATOM     32  C   UNL     1      51.366   3.237  17.799  0.00  0.00    +0.000 A 
ATOM     33  H   UNL     1      50.771   0.193  16.720  0.00  0.00    +0.000 HD
ENDBRANCH  20  23
ENDBRANCH  18  19
ENDBRANCH   4  18
TORSDOF 7
ENDMDL
MODEL 6
REMARK VINA RESULT:    -7.537      5.648      9.392
REMARK INTER + INTRA:         -11.568
REMARK INTER:                 -10.428
REMARK INTRA:                  -1.140
REMARK UNBOUND:                -0.946
REMARK  Name = 
REMARK  8 active torsions:
REMARK  status: ('A' for Active; 'I' for Inactive)
REMARK    1  A    between atoms: C_1  and  C_2
REMARK    2  A    between atoms: C_2  and  N_3
REMARK    3  A    between atoms: C_2  and  C_25
REMARK    4  A    between atoms: N_3  and  C_4
REMARK    5  A    between atoms: C_4  and  C_5
REMARK    6  A    between atoms: C_8  and  C_9
REMARK    7  A    between atoms: C_9  and  N_10
REMARK    8  A    between atoms: C_11  and  C_13
REMARK                            x       y       z     vdW  Elec       q    Type
REMARK                         _______ _______ _______ _____ _____    ______ ____
ROOT
ATOM      1  C   UNL     1      50.831   2.518  17.399  0.00  0.00    +0.000 A 
ATOM      2  C   UNL     1      49.443   2.509  17.374  0.00  0.00    +0.000 A 
ATOM      3  C   UNL     1      48.763   3.710  17.182  0.00  0.00    +0.000 A 
ATOM      4  C   UNL     1      49.494   4.877  17.011  0.00  0.00    +0.000 A 
ATOM      5  N   UNL     1      50.842   4.862  17.073  0.00  0.00    +0.000 NA
ATOM      6  N   UNL     1      51.514   3.677  17.261  0.00  0.00    +0.000 NA
ENDROOT
BRANCH   1   7
ATOM      7  C   UNL     1      51.626   1.231  17.504  0.00  0.00    +0.000 C 
BRANCH   7   8
ATOM      8  N   UNL     1      52.743   1.326  18.444  0.00  0.00    +0.000 NA
ATOM      9  H   UNL     1      52.672   0.580  19.136  0.00  0.00    +0.000 HD
BRANCH   8  11
ATOM     10  C   UNL     1      55.185   1.898  18.681  0.00  0.00    +0.000 C 
ATOM     11  C   UNL     1      54.073   1.271  17.826  0.00  0.00    +0.000 C 
BRANCH  11  12
ATOM     12  C   UNL     1      54.425  -0.182  17.539  0.00  0.00    +0.000 A 
ATOM     13  C   UNL     1      54.372  -1.151  18.552  0.00  0.00    +0.000 A 
ATOM     14  C   UNL     1      54.676  -2.485  18.275  0.00  0.00    +0.000 A 
ATOM     15  C   UNL     1      55.037  -2.868  16.984  0.00  0.00    +0.000 A 
ATOM     16  C   UNL     1      55.104  -1.920  15.969  0.00  0.00    +0.000 A 
ATOM     17  C   UNL     1      54.805  -0.584  16.246  0.00  0.00    +0.000 A 
ENDBRANCH  11  12
ENDBRANCH   8  11
ENDBRANCH   7   8
ENDBRANCH   1   7
BRANCH   4  18
ATOM     18  C   UNL     1      48.817   6.204  16.784  0.00  0.00    +0.000 C 
BRANCH  18  19
ATOM     19  N   UNL     1      47.864   6.131  15.700  0.00  0.00    +0.000 N 
ATOM     20  C   UNL     1      48.206   6.397  14.402  0.00  0.00    +0.000 C 
ATOM     21  O   UNL     1      49.359   6.656  14.067  0.00  0.00    +0.000 OA
ATOM     22  H   UNL     1      46.889   6.188  15.976  0.00  0.00    +0.000 HD
BRANCH  20  23
ATOM     23  C   UNL     1      47.129   6.274  13.413  0.00  0.00    +0.000 A 
ATOM     24  C   UNL     1      46.655   7.406  12.760  0.00  0.00    +0.000 A 
ATOM     25  S   UNL     1      45.441   7.073  11.609  0.00  0.00    +0.000 S 
ATOM     26  C   UNL     1      45.467   5.412  11.978  0.00  0.00    +0.000 A 
ATOM     27  N   UNL     1      44.629   4.539  11.358  0.00  0.00    +0.000 NA
ATOM     28  C   UNL     1      44.742   3.317  11.758  0.00  0.00    +0.000 A 
ATOM     29  N   UNL     1      45.622   2.884  12.715  0.00  0.00    +0.000 N 
ATOM     30  C   UNL     1      46.510   3.723  13.338  0.00  0.00    +0.000 A 
ATOM     31  O   UNL     1      47.334   3.295  14.146  0.00  0.00    +0.000 OA
ATOM     32  C   UNL     1      46.411   5.110  12.945  0.00  0.00    +0.000 A 
ATOM     33  H   UNL     1      45.675   1.910  12.970  0.00  0.00    +0.000 HD
ENDBRANCH  20  23
ENDBRANCH  18  19
ENDBRANCH   4  18
TORSDOF 7
ENDMDL
MODEL 7
REMARK VINA RESULT:    -7.527      3.388      9.197
REMARK INTER + INTRA:         -11.554
REMARK INTER:                 -10.229
REMARK INTRA:                  -1.325
REMARK UNBOUND:                -0.946
REMARK  Name = 
REMARK  8 active torsions:
REMARK  status: ('A' for Active; 'I' for Inactive)
REMARK    1  A    between atoms: C_1  and  C_2
REMARK    2  A    between atoms: C_2  and  N_3
REMARK    3  A    between atoms: C_2  and  C_25
REMARK    4  A    between atoms: N_3  and  C_4
REMARK    5  A    between atoms: C_4  and  C_5
REMARK    6  A    between atoms: C_8  and  C_9
REMARK    7  A    between atoms: C_9  and  N_10
REMARK    8  A    between atoms: C_11  and  C_13
REMARK                            x       y       z     vdW  Elec       q    Type
REMARK                         _______ _______ _______ _____ _____    ______ ____
ROOT
ATOM      1  C   UNL     1      48.988   7.652  16.217  0.00  0.00    +0.000 A 
ATOM      2  C   UNL     1      48.430   8.816  15.705  0.00  0.00    +0.000 A 
ATOM      3  C   UNL     1      47.997   8.834  14.382  0.00  0.00    +0.000 A 
ATOM      4  C   UNL     1      48.125   7.683  13.616  0.00  0.00    +0.000 A 
ATOM      5  N   UNL     1      48.702   6.575  14.129  0.00  0.00    +0.000 NA
ATOM      6  N   UNL     1      49.128   6.557  15.436  0.00  0.00    +0.000 NA
ENDROOT
BRANCH   1   7
ATOM      7  C   UNL     1      49.385   7.541  17.675  0.00  0.00    +0.000 C 
BRANCH   7   8
ATOM      8  N   UNL     1      48.506   6.659  18.442  0.00  0.00    +0.000 NA
ATOM      9  H   UNL     1      47.803   6.255  17.823  0.00  0.00    +0.000 HD
BRANCH   8  11
ATOM     10  C   UNL     1      48.575   5.234  20.518  0.00  0.00    +0.000 C 
ATOM     11  C   UNL     1      49.191   5.572  19.151  0.00  0.00    +0.000 C 
BRANCH  11  12
ATOM     12  C   UNL     1      49.177   4.326  18.278  0.00  0.00    +0.000 A 
ATOM     13  C   UNL     1      47.988   3.872  17.688  0.00  0.00    +0.000 A 
ATOM     14  C   UNL     1      47.989   2.740  16.870  0.00  0.00    +0.000 A 
ATOM     15  C   UNL     1      49.177   2.048  16.632  0.00  0.00    +0.000 A 
ATOM     16  C   UNL     1      50.363   2.479  17.216  0.00  0.00    +0.000 A 
ATOM     17  C   UNL     1      50.362   3.608  18.038  0.00  0.00    +0.000 A 
ENDBRANCH  11  12
ENDBRANCH   8  11
ENDBRANCH   7   8
ENDBRANCH   1   7
BRANCH   4  18
ATOM     18  C   UNL     1      47.662   7.634  12.184  0.00  0.00    +0.000 C 
BRANCH  18  19
ATOM     19  N   UNL     1      46.914   6.427  11.913  0.00  0.00    +0.000 N 
ATOM     20  C   UNL     1      45.548   6.411  11.836  0.00  0.00    +0.000 C 
ATOM     21  O   UNL     1      44.873   7.432  11.931  0.00  0.00    +0.000 OA
ATOM     22  H   UNL     1      47.410   5.562  12.098  0.00  0.00    +0.000 HD
BRANCH  20  23
ATOM     23  C   UNL     1      44.934   5.109  11.548  0.00  0.00    +0.000 A 
ATOM     24  C   UNL     1      44.219   4.446  12.539  0.00  0.00    +0.000 A 
ATOM     25  S   UNL     1      43.532   2.975  12.017  0.00  0.00    +0.000 S 
ATOM     26  C   UNL     1      44.208   3.144  10.464  0.00  0.00    +0.000 A 
ATOM     27  N   UNL     1      44.029   2.192   9.510  0.00  0.00    +0.000 NA
ATOM     28  C   UNL     1      44.622   2.442   8.391  0.00  0.00    +0.000 A 
ATOM     29  N   UNL     1      45.372   3.560   8.134  0.00  0.00    +0.000 N 
ATOM     30  C   UNL     1      45.548   4.561   9.055  0.00  0.00    +0.000 A 
ATOM     31  O   UNL     1      46.172   5.584   8.775  0.00  0.00    +0.000 OA
ATOM     32  C   UNL     1      44.924   4.323  10.336  0.00  0.00    +0.000 A 
ATOM     33  H   UNL     1      45.795   3.705   7.230  0.00  0.00    +0.000 HD
ENDBRANCH  20  23
ENDBRANCH  18  19
ENDBRANCH   4  18
TORSDOF 7
ENDMDL
MODEL 8
REMARK VINA RESULT:    -7.442      3.278      4.193
REMARK INTER + INTRA:         -11.433
REMARK INTER:                 -10.092
REMARK INTRA:                  -1.342
REMARK UNBOUND:                -0.946
REMARK  Name = 
REMARK  8 active torsions:
REMARK  status: ('A' for Active; 'I' for Inactive)
REMARK    1  A    between atoms: C_1  and  C_2
REMARK    2  A    between atoms: C_2  and  N_3
REMARK    3  A    between atoms: C_2  and  C_25
REMARK    4  A    between atoms: N_3  and  C_4
REMARK    5  A    between atoms: C_4  and  C_5
REMARK    6  A    between atoms: C_8  and  C_9
REMARK    7  A    between atoms: C_9  and  N_10
REMARK    8  A    between atoms: C_11  and  C_13
REMARK                            x       y       z     vdW  Elec       q    Type
REMARK                         _______ _______ _______ _____ _____    ______ ____
ROOT
ATOM      1  C   UNL     1      46.122   5.373  13.144  0.00  0.00    +0.000 A 
ATOM      2  C   UNL     1      45.931   6.646  12.622  0.00  0.00    +0.000 A 
ATOM      3  C   UNL     1      47.032   7.484  12.463  0.00  0.00    +0.000 A 
ATOM      4  C   UNL     1      48.289   7.018  12.821  0.00  0.00    +0.000 A 
ATOM      5  N   UNL     1      48.442   5.789  13.357  0.00  0.00    +0.000 NA
ATOM      6  N   UNL     1      47.356   4.960  13.512  0.00  0.00    +0.000 NA
ENDROOT
BRANCH   1   7
ATOM      7  C   UNL     1      44.980   4.382  13.246  0.00  0.00    +0.000 C 
BRANCH   7   8
ATOM      8  N   UNL     1      45.160   3.212  12.387  0.00  0.00    +0.000 NA
ATOM      9  H   UNL     1      45.122   2.364  12.953  0.00  0.00    +0.000 HD
BRANCH   8  11
ATOM     10  C   UNL     1      43.040   4.114  11.368  0.00  0.00    +0.000 C 
ATOM     11  C   UNL     1      44.187   3.094  11.295  0.00  0.00    +0.000 C 
BRANCH  11  12
ATOM     12  C   UNL     1      44.913   3.257   9.967  0.00  0.00    +0.000 A 
ATOM     13  C   UNL     1      45.266   4.527   9.488  0.00  0.00    +0.000 A 
ATOM     14  C   UNL     1      45.951   4.665   8.279  0.00  0.00    +0.000 A 
ATOM     15  C   UNL     1      46.292   3.536   7.534  0.00  0.00    +0.000 A 
ATOM     16  C   UNL     1      45.942   2.270   7.989  0.00  0.00    +0.000 A 
ATOM     17  C   UNL     1      45.253   2.131   9.195  0.00  0.00    +0.000 A 
ENDBRANCH  11  12
ENDBRANCH   8  11
ENDBRANCH   7   8
ENDBRANCH   1   7
BRANCH   4  18
ATOM     18  C   UNL     1      49.520   7.871  12.659  0.00  0.00    +0.000 C 
BRANCH  18  19
ATOM     19  N   UNL     1      50.585   7.429  13.531  0.00  0.00    +0.000 N 
ATOM     20  C   UNL     1      50.858   8.040  14.725  0.00  0.00    +0.000 C 
ATOM     21  O   UNL     1      50.178   8.965  15.161  0.00  0.00    +0.000 OA
ATOM     22  H   UNL     1      51.305   6.871  13.085  0.00  0.00    +0.000 HD
BRANCH  20  23
ATOM     23  C   UNL     1      51.968   7.472  15.501  0.00  0.00    +0.000 A 
ATOM     24  C   UNL     1      53.253   7.977  15.345  0.00  0.00    +0.000 A 
ATOM     25  S   UNL     1      54.406   7.236  16.361  0.00  0.00    +0.000 S 
ATOM     26  C   UNL     1      53.240   6.178  17.007  0.00  0.00    +0.000 A 
ATOM     27  N   UNL     1      53.577   5.238  17.930  0.00  0.00    +0.000 NA
ATOM     28  C   UNL     1      52.597   4.488  18.309  0.00  0.00    +0.000 A 
ATOM     29  N   UNL     1      51.308   4.597  17.857  0.00  0.00    +0.000 N 
ATOM     30  C   UNL     1      50.917   5.553  16.954  0.00  0.00    +0.000 A 
ATOM     31  O   UNL     1      49.740   5.669  16.615  0.00  0.00    +0.000 OA
ATOM     32  C   UNL     1      51.981   6.406  16.477  0.00  0.00    +0.000 A 
ATOM     33  H   UNL     1      50.581   3.992  18.208  0.00  0.00    +0.000 HD
ENDBRANCH  20  23
ENDBRANCH  18  19
ENDBRANCH   4  18
TORSDOF 7
ENDMDL
MODEL 9
REMARK VINA RESULT:    -7.190      1.968      2.273
REMARK INTER + INTRA:         -11.079
REMARK INTER:                 -10.239
REMARK INTRA:                  -0.840
REMARK UNBOUND:                -0.946
REMARK  Name = 
REMARK  8 active torsions:
REMARK  status: ('A' for Active; 'I' for Inactive)
REMARK    1  A    between atoms: C_1  and  C_2
REMARK    2  A    between atoms: C_2  and  N_3
REMARK    3  A    between atoms: C_2  and  C_25
REMARK    4  A    between atoms: N_3  and  C_4
REMARK    5  A    between atoms: C_4  and  C_5
REMARK    6  A    between atoms: C_8  and  C_9
REMARK    7  A    between atoms: C_9  and  N_10
REMARK    8  A    between atoms: C_11  and  C_13
REMARK                            x       y       z     vdW  Elec       q    Type
REMARK                         _______ _______ _______ _____ _____    ______ ____
ROOT
ATOM      1  C   UNL     1      45.608   4.409  12.413  0.00  0.00    +0.000 A 
ATOM      2  C   UNL     1      46.211   3.974  13.587  0.00  0.00    +0.000 A 
ATOM      3  C   UNL     1      47.122   4.810  14.229  0.00  0.00    +0.000 A 
ATOM      4  C   UNL     1      47.391   6.058  13.683  0.00  0.00    +0.000 A 
ATOM      5  N   UNL     1      46.816   6.441  12.523  0.00  0.00    +0.000 NA
ATOM      6  N   UNL     1      45.916   5.617  11.890  0.00  0.00    +0.000 NA
ENDROOT
BRANCH   1   7
ATOM      7  C   UNL     1      44.537   3.587  11.725  0.00  0.00    +0.000 C 
BRANCH   7   8
ATOM      8  N   UNL     1      45.073   2.697  10.696  0.00  0.00    +0.000 NA
ATOM      9  H   UNL     1      44.892   1.727  10.954  0.00  0.00    +0.000 HD
BRANCH   8  11
ATOM     10  C   UNL     1      44.084   4.375   9.099  0.00  0.00    +0.000 C 
ATOM     11  C   UNL     1      44.549   2.932   9.345  0.00  0.00    +0.000 C 
BRANCH  11  12
ATOM     12  C   UNL     1      45.624   2.575   8.329  0.00  0.00    +0.000 A 
ATOM     13  C   UNL     1      46.143   1.273   8.254  0.00  0.00    +0.000 A 
ATOM     14  C   UNL     1      47.113   0.950   7.303  0.00  0.00    +0.000 A 
ATOM     15  C   UNL     1      47.578   1.921   6.417  0.00  0.00    +0.000 A 
ATOM     16  C   UNL     1      47.082   3.219   6.483  0.00  0.00    +0.000 A 
ATOM     17  C   UNL     1      46.115   3.545   7.436  0.00  0.00    +0.000 A 
ENDBRANCH  11  12
ENDBRANCH   8  11
ENDBRANCH   7   8
ENDBRANCH   1   7
BRANCH   4  18
ATOM     18  C   UNL     1      48.355   7.012  14.338  0.00  0.00    +0.000 C 
BRANCH  18  19
ATOM     19  N   UNL     1      48.586   6.660  15.721  0.00  0.00    +0.000 N 
ATOM     20  C   UNL     1      48.647   7.597  16.717  0.00  0.00    +0.000 C 
ATOM     21  O   UNL     1      48.447   8.791  16.509  0.00  0.00    +0.000 OA
ATOM     22  H   UNL     1      49.011   5.751  15.870  0.00  0.00    +0.000 HD
BRANCH  20  23
ATOM     23  C   UNL     1      48.882   7.083  18.072  0.00  0.00    +0.000 A 
ATOM     24  C   UNL     1      47.873   6.398  18.738  0.00  0.00    +0.000 A 
ATOM     25  S   UNL     1      48.336   5.828  20.278  0.00  0.00    +0.000 S 
ATOM     26  C   UNL     1      49.884   6.520  20.131  0.00  0.00    +0.000 A 
ATOM     27  N   UNL     1      50.795   6.427  21.137  0.00  0.00    +0.000 NA
ATOM     28  C   UNL     1      51.915   7.023  20.897  0.00  0.00    +0.000 A 
ATOM     29  N   UNL     1      52.213   7.695  19.740  0.00  0.00    +0.000 N 
ATOM     30  C   UNL     1      51.337   7.782  18.687  0.00  0.00    +0.000 A 
ATOM     31  O   UNL     1      51.656   8.336  17.636  0.00  0.00    +0.000 OA
ATOM     32  C   UNL     1      50.056   7.152  18.911  0.00  0.00    +0.000 A 
ATOM     33  H   UNL     1      53.115   8.124  19.606  0.00  0.00    +0.000 HD
ENDBRANCH  20  23
ENDBRANCH  18  19
ENDBRANCH   4  18
TORSDOF 7
ENDMDL
