MODEL 1
REMARK VINA RESULT:    -7.354      0.000      0.000
REMARK INTER + INTRA:          -8.892
REMARK INTER:                  -9.074
REMARK INTRA:                   0.181
REMARK UNBOUND:                 0.181
REMARK  Name = 
REMARK  5 active torsions:
REMARK  status: ('A' for Active; 'I' for Inactive)
REMARK    1  A    between atoms: C_1  and  C_2
REMARK    2  A    between atoms: C_2  and  C_3
REMARK    3  A    between atoms: C_2  and  N_10
REMARK    4  A    between atoms: C_3  and  C_4
REMARK    5  A    between atoms: C_13  and  C_14
REMARK                            x       y       z     vdW  Elec       q    Type
REMARK                         _______ _______ _______ _____ _____    ______ ____
ROOT
ATOM      1  N   UNL     1      44.112   4.601  10.346  0.00  0.00    +0.000 NA
ATOM      2  C   UNL     1      44.186   3.396  11.183  0.00  0.00    +0.000 C 
ATOM      3  C   UNL     1      43.599   3.628  12.578  0.00  0.00    +0.000 C 
ATOM      4  C   UNL     1      44.297   4.782  13.294  0.00  0.00    +0.000 C 
ATOM      5  C   UNL     1      44.203   6.024  12.414  0.00  0.00    +0.000 C 
ATOM      6  C   UNL     1      44.735   5.768  11.004  0.00  0.00    +0.000 C 
ENDROOT
BRANCH   4   7
ATOM      7  C   UNL     1      45.745   4.448  13.645  0.00  0.00    +0.000 C 
ATOM      8  N   UNL     1      46.462   5.471  14.188  0.00  0.00    +0.000 N 
ATOM      9  O   UNL     1      46.276   3.359  13.458  0.00  0.00    +0.000 OA
ATOM     10  H   UNL     1      46.134   6.426  14.195  0.00  0.00    +0.000 HD
ATOM     11  H   UNL     1      47.439   5.293  14.383  0.00  0.00    +0.000 HD
ENDBRANCH   4   7
BRANCH   1  13
ATOM     12  C   UNL     1      46.003   5.104   8.724  0.00  0.00    +0.000 C 
ATOM     13  C   UNL     1      44.659   4.387   8.975  0.00  0.00    +0.000 C 
BRANCH  13  14
ATOM     14  C   UNL     1      44.841   2.886   8.589  0.00  0.00    +0.000 C 
BRANCH  14  15
ATOM     15  C   UNL     1      45.946   2.532   7.616  0.00  0.00    +0.000 A 
ATOM     16  C   UNL     1      46.070   3.259   6.426  0.00  0.00    +0.000 A 
ATOM     17  C   UNL     1      47.078   2.946   5.518  0.00  0.00    +0.000 A 
ATOM     18  C   UNL     1      47.931   1.895   5.819  0.00  0.00    +0.000 A 
ATOM     19  N   UNL     1      47.837   1.155   6.935  0.00  0.00    +0.000 NA
ATOM     20  C   UNL     1      46.849   1.487   7.801  0.00  0.00    +0.000 A 
ENDBRANCH  14  15
ENDBRANCH  13  14
ENDBRANCH   1  13
TORSDOF 4
ENDMDL
MODEL 2
REMARK VINA RESULT:    -7.234      1.536      2.132
REMARK INTER + INTRA:          -8.744
REMARK INTER:                  -8.352
REMARK INTRA:                  -0.392
REMARK UNBOUND:                 0.181
REMARK  Name = 
REMARK  5 active torsions:
REMARK  status: ('A' for Active; 'I' for Inactive)
REMARK    1  A    between atoms: C_1  and  C_2
REMARK    2  A    between atoms: C_2  and  C_3
REMARK    3  A    between atoms: C_2  and  N_10
REMARK    4  A    between atoms: C_3  and  C_4
REMARK    5  A    between atoms: C_13  and  C_14
REMARK                            x       y       z     vdW  Elec       q    Type
REMARK                         _______ _______ _______ _____ _____    ______ ____
ROOT
ATOM      1  N   UNL     1      44.791   4.822  11.239  0.00  0.00    +0.000 NA
ATOM      2  C   UNL     1      44.723   4.837  12.707  0.00  0.00    +0.000 C 
ATOM      3  C   UNL     1      44.899   6.248  13.275  0.00  0.00    +0.000 C 
ATOM      4  C   UNL     1      46.216   6.874  12.824  0.00  0.00    +0.000 C 
ATOM      5  C   UNL     1      46.264   6.856  11.300  0.00  0.00    +0.000 C 
ATOM      6  C   UNL     1      46.028   5.454  10.737  0.00  0.00    +0.000 C 
ENDROOT
BRANCH   4   7
ATOM      7  C   UNL     1      47.425   6.168  13.435  0.00  0.00    +0.000 C 
ATOM      8  N   UNL     1      47.259   5.736  14.716  0.00  0.00    +0.000 N 
ATOM      9  O   UNL     1      48.494   5.991  12.863  0.00  0.00    +0.000 OA
ATOM     10  H   UNL     1      46.475   6.013  15.290  0.00  0.00    +0.000 HD
ATOM     11  H   UNL     1      48.061   5.310  15.164  0.00  0.00    +0.000 HD
ENDBRANCH   4   7
BRANCH   1  13
ATOM     12  C   UNL     1      43.381   2.707  11.242  0.00  0.00    +0.000 C 
ATOM     13  C   UNL     1      44.600   3.458  10.666  0.00  0.00    +0.000 C 
BRANCH  13  14
ATOM     14  C   UNL     1      44.483   3.432   9.109  0.00  0.00    +0.000 C 
BRANCH  14  15
ATOM     15  C   UNL     1      45.559   2.706   8.330  0.00  0.00    +0.000 A 
ATOM     16  C   UNL     1      46.312   3.410   7.383  0.00  0.00    +0.000 A 
ATOM     17  C   UNL     1      47.304   2.757   6.654  0.00  0.00    +0.000 A 
ATOM     18  C   UNL     1      47.504   1.404   6.882  0.00  0.00    +0.000 A 
ATOM     19  N   UNL     1      46.792   0.683   7.761  0.00  0.00    +0.000 NA
ATOM     20  C   UNL     1      45.838   1.347   8.458  0.00  0.00    +0.000 A 
ENDBRANCH  14  15
ENDBRANCH  13  14
ENDBRANCH   1  13
TORSDOF 4
ENDMDL
MODEL 3
REMARK VINA RESULT:    -7.218      2.096      2.791
REMARK INTER + INTRA:          -8.724
REMARK INTER:                  -8.628
REMARK INTRA:                  -0.096
REMARK UNBOUND:                 0.181
REMARK  Name = 
REMARK  5 active torsions:
REMARK  status: ('A' for Active; 'I' for Inactive)
REMARK    1  A    between atoms: C_1  and  C_2
REMARK    2  A    between atoms: C_2  and  C_3
REMARK    3  A    between atoms: C_2  and  N_10
REMARK    4  A    between atoms: C_3  and  C_4
REMARK    5  A    between atoms: C_13  and  C_14
REMARK                            x       y       z     vdW  Elec       q    Type
REMARK                         _______ _______ _______ _____ _____    ______ ____
ROOT
ATOM      1  N   UNL     1      45.558   4.682  11.319  0.00  0.00    +0.000 NA
ATOM      2  C   UNL     1      45.974   5.918  10.644  0.00  0.00    +0.000 C 
ATOM      3  C   UNL     1      47.183   6.566  11.325  0.00  0.00    +0.000 C 
ATOM      4  C   UNL     1      46.904   6.864  12.796  0.00  0.00    +0.000 C 
ATOM      5  C   UNL     1      46.481   5.569  13.481  0.00  0.00    +0.000 C 
ATOM      6  C   UNL     1      45.312   4.897  12.760  0.00  0.00    +0.000 C 
ENDROOT
BRANCH   4   7
ATOM      7  C   UNL     1      45.857   7.962  12.969  0.00  0.00    +0.000 C 
ATOM      8  N   UNL     1      46.225   8.992  13.782  0.00  0.00    +0.000 N 
ATOM      9  O   UNL     1      44.747   7.958  12.451  0.00  0.00    +0.000 OA
ATOM     10  H   UNL     1      47.043   8.958  14.373  0.00  0.00    +0.000 HD
ATOM     11  H   UNL     1      45.531   9.709  13.957  0.00  0.00    +0.000 HD
ENDBRANCH   4   7
BRANCH   1  13
ATOM     12  C   UNL     1      43.029   4.612  11.072  0.00  0.00    +0.000 C 
ATOM     13  C   UNL     1      44.395   4.025  10.656  0.00  0.00    +0.000 C 
BRANCH  13  14
ATOM     14  C   UNL     1      44.462   4.034   9.096  0.00  0.00    +0.000 C 
BRANCH  14  15
ATOM     15  C   UNL     1      45.429   3.085   8.423  0.00  0.00    +0.000 A 
ATOM     16  C   UNL     1      46.265   3.564   7.407  0.00  0.00    +0.000 A 
ATOM     17  C   UNL     1      47.159   2.703   6.774  0.00  0.00    +0.000 A 
ATOM     18  C   UNL     1      47.180   1.373   7.166  0.00  0.00    +0.000 A 
ATOM     19  N   UNL     1      46.383   0.864   8.117  0.00  0.00    +0.000 NA
ATOM     20  C   UNL     1      45.527   1.726   8.718  0.00  0.00    +0.000 A 
ENDBRANCH  14  15
ENDBRANCH  13  14
ENDBRANCH   1  13
TORSDOF 4
ENDMDL
MODEL 4
REMARK VINA RESULT:    -6.576      2.623      3.631
REMARK INTER + INTRA:          -7.933
REMARK INTER:                  -7.540
REMARK INTRA:                  -0.393
REMARK UNBOUND:                 0.181
REMARK  Name = 
REMARK  5 active torsions:
REMARK  status: ('A' for Active; 'I' for Inactive)
REMARK    1  A    between atoms: C_1  and  C_2
REMARK    2  A    between atoms: C_2  and  C_3
REMARK    3  A    between atoms: C_2  and  N_10
REMARK    4  A    between atoms: C_3  and  C_4
REMARK    5  A    between atoms: C_13  and  C_14
REMARK                            x       y       z     vdW  Elec       q    Type
REMARK                         _______ _______ _______ _____ _____    ______ ____
ROOT
ATOM      1  N   UNL     1      45.512   6.500  11.702  0.00  0.00    +0.000 NA
ATOM      2  C   UNL     1      45.087   7.499  12.691  0.00  0.00    +0.000 C 
ATOM      3  C   UNL     1      45.875   8.806  12.563  0.00  0.00    +0.000 C 
ATOM      4  C   UNL     1      47.378   8.570  12.698  0.00  0.00    +0.000 C 
ATOM      5  C   UNL     1      47.801   7.536  11.660  0.00  0.00    +0.000 C 
ATOM      6  C   UNL     1      46.968   6.257  11.754  0.00  0.00    +0.000 C 
ENDROOT
BRANCH   4   7
ATOM      7  C   UNL     1      47.766   8.140  14.111  0.00  0.00    +0.000 C 
ATOM      8  N   UNL     1      47.362   8.980  15.105  0.00  0.00    +0.000 N 
ATOM      9  O   UNL     1      48.406   7.131  14.385  0.00  0.00    +0.000 OA
ATOM     10  H   UNL     1      46.997   9.904  14.926  0.00  0.00    +0.000 HD
ATOM     11  H   UNL     1      47.649   8.747  16.047  0.00  0.00    +0.000 HD
ENDBRANCH   4   7
BRANCH   1  13
ATOM     12  C   UNL     1      43.652   5.242  12.892  0.00  0.00    +0.000 C 
ATOM     13  C   UNL     1      44.740   5.227  11.798  0.00  0.00    +0.000 C 
BRANCH  13  14
ATOM     14  C   UNL     1      44.064   4.791  10.460  0.00  0.00    +0.000 C 
BRANCH  14  15
ATOM     15  C   UNL     1      44.864   3.923   9.512  0.00  0.00    +0.000 A 
ATOM     16  C   UNL     1      45.586   4.525   8.475  0.00  0.00    +0.000 A 
ATOM     17  C   UNL     1      46.325   3.742   7.591  0.00  0.00    +0.000 A 
ATOM     18  C   UNL     1      46.307   2.366   7.760  0.00  0.00    +0.000 A 
ATOM     19  N   UNL     1      45.612   1.742   8.724  0.00  0.00    +0.000 NA
ATOM     20  C   UNL     1      44.907   2.531   9.571  0.00  0.00    +0.000 A 
ENDBRANCH  14  15
ENDBRANCH  13  14
ENDBRANCH   1  13
TORSDOF 4
ENDMDL
MODEL 5
REMARK VINA RESULT:    -6.341      2.664      3.958
REMARK INTER + INTRA:          -7.642
REMARK INTER:                  -7.165
REMARK INTRA:                  -0.477
REMARK UNBOUND:                 0.181
REMARK  Name = 
REMARK  5 active torsions:
REMARK  status: ('A' for Active; 'I' for Inactive)
REMARK    1  A    between atoms: C_1  and  C_2
REMARK    2  A    between atoms: C_2  and  C_3
REMARK    3  A    between atoms: C_2  and  N_10
REMARK    4  A    between atoms: C_3  and  C_4
REMARK    5  A    between atoms: C_13  and  C_14
REMARK                            x       y       z     vdW  Elec       q    Type
REMARK                         _______ _______ _______ _____ _____    ______ ____
ROOT
ATOM      1  N   UNL     1      45.627   5.781  13.188  0.00  0.00    +0.000 NA
ATOM      2  C   UNL     1      46.988   5.319  13.492  0.00  0.00    +0.000 C 
ATOM      3  C   UNL     1      47.773   6.344  14.315  0.00  0.00    +0.000 C 
ATOM      4  C   UNL     1      47.845   7.695  13.606  0.00  0.00    +0.000 C 
ATOM      5  C   UNL     1      46.424   8.160  13.306  0.00  0.00    +0.000 C 
ATOM      6  C   UNL     1      45.627   7.106  12.536  0.00  0.00    +0.000 C 
ENDROOT
BRANCH   4   7
ATOM      7  C   UNL     1      48.697   7.633  12.340  0.00  0.00    +0.000 C 
ATOM      8  N   UNL     1      49.861   6.936  12.458  0.00  0.00    +0.000 N 
ATOM      9  O   UNL     1      48.407   8.165  11.275  0.00  0.00    +0.000 OA
ATOM     10  H   UNL     1      50.233   6.636  13.348  0.00  0.00    +0.000 HD
ATOM     11  H   UNL     1      50.471   6.921  11.649  0.00  0.00    +0.000 HD
ENDBRANCH   4   7
BRANCH   1  13
ATOM     12  C   UNL     1      43.510   4.378  13.076  0.00  0.00    +0.000 C 
ATOM     13  C   UNL     1      44.840   4.785  12.406  0.00  0.00    +0.000 C 
BRANCH  13  14
ATOM     14  C   UNL     1      44.520   5.232  10.945  0.00  0.00    +0.000 C 
BRANCH  14  15
ATOM     15  C   UNL     1      45.033   4.371   9.811  0.00  0.00    +0.000 A 
ATOM     16  C   UNL     1      44.809   2.990   9.843  0.00  0.00    +0.000 A 
ATOM     17  C   UNL     1      45.277   2.182   8.809  0.00  0.00    +0.000 A 
ATOM     18  C   UNL     1      45.977   2.780   7.772  0.00  0.00    +0.000 A 
ATOM     19  N   UNL     1      46.236   4.095   7.710  0.00  0.00    +0.000 NA
ATOM     20  C   UNL     1      45.764   4.856   8.727  0.00  0.00    +0.000 A 
ENDBRANCH  14  15
ENDBRANCH  13  14
ENDBRANCH   1  13
TORSDOF 4
ENDMDL
MODEL 6
REMARK VINA RESULT:    -6.325      3.270      6.229
REMARK INTER + INTRA:          -7.623
REMARK INTER:                  -7.179
REMARK INTRA:                  -0.444
REMARK UNBOUND:                 0.181
REMARK  Name = 
REMARK  5 active torsions:
REMARK  status: ('A' for Active; 'I' for Inactive)
REMARK    1  A    between atoms: C_1  and  C_2
REMARK    2  A    between atoms: C_2  and  C_3
REMARK    3  A    between atoms: C_2  and  N_10
REMARK    4  A    between atoms: C_3  and  C_4
REMARK    5  A    between atoms: C_13  and  C_14
REMARK                            x       y       z     vdW  Elec       q    Type
REMARK                         _______ _______ _______ _____ _____    ______ ____
ROOT
ATOM      1  N   UNL     1      45.025   5.264  12.841  0.00  0.00    +0.000 NA
ATOM      2  C   UNL     1      44.426   5.864  11.641  0.00  0.00    +0.000 C 
ATOM      3  C   UNL     1      43.151   5.133  11.209  0.00  0.00    +0.000 C 
ATOM      4  C   UNL     1      43.414   3.650  10.954  0.00  0.00    +0.000 C 
ATOM      5  C   UNL     1      44.029   3.045  12.212  0.00  0.00    +0.000 C 
ATOM      6  C   UNL     1      45.267   3.816  12.672  0.00  0.00    +0.000 C 
ENDROOT
BRANCH   4   7
ATOM      7  C   UNL     1      44.299   3.428   9.731  0.00  0.00    +0.000 C 
ATOM      8  N   UNL     1      44.106   4.305   8.706  0.00  0.00    +0.000 N 
ATOM      9  O   UNL     1      45.128   2.531   9.620  0.00  0.00    +0.000 OA
ATOM     10  H   UNL     1      43.321   4.940   8.670  0.00  0.00    +0.000 HD
ATOM     11  H   UNL     1      44.642   4.150   7.862  0.00  0.00    +0.000 HD
ENDBRANCH   4   7
BRANCH   1  13
ATOM     12  C   UNL     1      47.126   5.159  14.267  0.00  0.00    +0.000 C 
ATOM     13  C   UNL     1      46.257   5.976  13.289  0.00  0.00    +0.000 C 
BRANCH  13  14
ATOM     14  C   UNL     1      47.176   6.456  12.122  0.00  0.00    +0.000 C 
BRANCH  14  15
ATOM     15  C   UNL     1      47.478   7.935  12.019  0.00  0.00    +0.000 A 
ATOM     16  C   UNL     1      48.771   8.349  11.677  0.00  0.00    +0.000 A 
ATOM     17  C   UNL     1      49.068   9.707  11.581  0.00  0.00    +0.000 A 
ATOM     18  C   UNL     1      48.061  10.620  11.850  0.00  0.00    +0.000 A 
ATOM     19  N   UNL     1      46.814  10.272  12.205  0.00  0.00    +0.000 NA
ATOM     20  C   UNL     1      46.555   8.945  12.285  0.00  0.00    +0.000 A 
ENDBRANCH  14  15
ENDBRANCH  13  14
ENDBRANCH   1  13
TORSDOF 4
ENDMDL
MODEL 7
REMARK VINA RESULT:    -6.321      3.251      5.922
REMARK INTER + INTRA:          -7.617
REMARK INTER:                  -7.181
REMARK INTRA:                  -0.436
REMARK UNBOUND:                 0.181
REMARK  Name = 
REMARK  5 active torsions:
REMARK  status: ('A' for Active; 'I' for Inactive)
REMARK    1  A    between atoms: C_1  and  C_2
REMARK    2  A    between atoms: C_2  and  C_3
REMARK    3  A    between atoms: C_2  and  N_10
REMARK    4  A    between atoms: C_3  and  C_4
REMARK    5  A    between atoms: C_13  and  C_14
REMARK                            x       y       z     vdW  Elec       q    Type
REMARK                         _______ _______ _______ _____ _____    ______ ____
ROOT
ATOM      1  N   UNL     1      45.086   6.766  11.210  0.00  0.00    +0.000 NA
ATOM      2  C   UNL     1      45.548   5.545  10.536  0.00  0.00    +0.000 C 
ATOM      3  C   UNL     1      44.386   4.733   9.957  0.00  0.00    +0.000 C 
ATOM      4  C   UNL     1      43.371   4.360  11.036  0.00  0.00    +0.000 C 
ATOM      5  C   UNL     1      42.899   5.639  11.719  0.00  0.00    +0.000 C 
ATOM      6  C   UNL     1      44.068   6.474  12.241  0.00  0.00    +0.000 C 
ENDROOT
BRANCH   4   7
ATOM      7  C   UNL     1      43.944   3.363  12.041  0.00  0.00    +0.000 C 
ATOM      8  N   UNL     1      44.946   2.572  11.566  0.00  0.00    +0.000 N 
ATOM      9  O   UNL     1      43.556   3.233  13.196  0.00  0.00    +0.000 OA
ATOM     10  H   UNL     1      45.177   2.509  10.585  0.00  0.00    +0.000 HD
ATOM     11  H   UNL     1      45.309   1.866  12.195  0.00  0.00    +0.000 HD
ENDBRANCH   4   7
BRANCH   1  13
ATOM     12  C   UNL     1      45.841   8.350  13.048  0.00  0.00    +0.000 C 
ATOM     13  C   UNL     1      46.207   7.581  11.761  0.00  0.00    +0.000 C 
BRANCH  13  14
ATOM     14  C   UNL     1      47.507   6.765  12.048  0.00  0.00    +0.000 C 
BRANCH  14  15
ATOM     15  C   UNL     1      47.658   6.127  13.412  0.00  0.00    +0.000 A 
ATOM     16  C   UNL     1      46.916   4.980  13.719  0.00  0.00    +0.000 A 
ATOM     17  C   UNL     1      47.040   4.382  14.971  0.00  0.00    +0.000 A 
ATOM     18  C   UNL     1      47.896   4.963  15.895  0.00  0.00    +0.000 A 
ATOM     19  N   UNL     1      48.609   6.074  15.655  0.00  0.00    +0.000 NA
ATOM     20  C   UNL     1      48.471   6.630  14.427  0.00  0.00    +0.000 A 
ENDBRANCH  14  15
ENDBRANCH  13  14
ENDBRANCH   1  13
TORSDOF 4
ENDMDL
MODEL 8
REMARK VINA RESULT:    -6.030      4.702      6.895
REMARK INTER + INTRA:          -7.258
REMARK INTER:                  -6.910
REMARK INTRA:                  -0.348
REMARK UNBOUND:                 0.181
REMARK  Name = 
REMARK  5 active torsions:
REMARK  status: ('A' for Active; 'I' for Inactive)
REMARK    1  A    between atoms: C_1  and  C_2
REMARK    2  A    between atoms: C_2  and  C_3
REMARK    3  A    between atoms: C_2  and  N_10
REMARK    4  A    between atoms: C_3  and  C_4
REMARK    5  A    between atoms: C_13  and  C_14
REMARK                            x       y       z     vdW  Elec       q    Type
REMARK                         _______ _______ _______ _____ _____    ______ ____
ROOT
ATOM      1  N   UNL     1      47.959   5.197  16.345  0.00  0.00    +0.000 NA
ATOM      2  C   UNL     1      47.485   3.828  16.102  0.00  0.00    +0.000 C 
ATOM      3  C   UNL     1      47.499   2.980  17.377  0.00  0.00    +0.000 C 
ATOM      4  C   UNL     1      48.892   2.928  18.001  0.00  0.00    +0.000 C 
ATOM      5  C   UNL     1      49.363   4.356  18.252  0.00  0.00    +0.000 C 
ATOM      6  C   UNL     1      49.289   5.214  16.988  0.00  0.00    +0.000 C 
ENDROOT
BRANCH   4   7
ATOM      7  C   UNL     1      49.880   2.153  17.132  0.00  0.00    +0.000 C 
ATOM      8  N   UNL     1      51.121   1.988  17.670  0.00  0.00    +0.000 N 
ATOM      9  O   UNL     1      49.630   1.704  16.019  0.00  0.00    +0.000 OA
ATOM     10  H   UNL     1      51.433   2.487  18.490  0.00  0.00    +0.000 HD
ATOM     11  H   UNL     1      51.812   1.523  17.094  0.00  0.00    +0.000 HD
ENDBRANCH   4   7
BRANCH   1  13
ATOM     12  C   UNL     1      49.241   6.823  14.872  0.00  0.00    +0.000 C 
ATOM     13  C   UNL     1      47.932   6.044  15.118  0.00  0.00    +0.000 C 
BRANCH  13  14
ATOM     14  C   UNL     1      47.591   5.261  13.811  0.00  0.00    +0.000 C 
BRANCH  14  15
ATOM     15  C   UNL     1      46.337   5.651  13.059  0.00  0.00    +0.000 A 
ATOM     16  C   UNL     1      46.413   6.623  12.055  0.00  0.00    +0.000 A 
ATOM     17  C   UNL     1      45.268   6.995  11.354  0.00  0.00    +0.000 A 
ATOM     18  C   UNL     1      44.066   6.393  11.692  0.00  0.00    +0.000 A 
ATOM     19  N   UNL     1      43.939   5.475  12.662  0.00  0.00    +0.000 NA
ATOM     20  C   UNL     1      45.071   5.129  13.322  0.00  0.00    +0.000 A 
ENDBRANCH  14  15
ENDBRANCH  13  14
ENDBRANCH   1  13
TORSDOF 4
ENDMDL
MODEL 9
REMARK VINA RESULT:    -5.918      4.149      6.376
REMARK INTER + INTRA:          -7.121
REMARK INTER:                  -6.825
REMARK INTRA:                  -0.296
REMARK UNBOUND:                 0.181
REMARK  Name = 
REMARK  5 active torsions:
REMARK  status: ('A' for Active; 'I' for Inactive)
REMARK    1  A    between atoms: C_1  and  C_2
REMARK    2  A    between atoms: C_2  and  C_3
REMARK    3  A    between atoms: C_2  and  N_10
REMARK    4  A    between atoms: C_3  and  C_4
REMARK    5  A    between atoms: C_13  and  C_14
REMARK                            x       y       z     vdW  Elec       q    Type
REMARK                         _______ _______ _______ _____ _____    ______ ____
ROOT
ATOM      1  N   UNL     1      47.992   5.121  15.085  0.00  0.00    +0.000 NA
ATOM      2  C   UNL     1      48.693   6.248  15.715  0.00  0.00    +0.000 C 
ATOM      3  C   UNL     1      49.533   5.803  16.915  0.00  0.00    +0.000 C 
ATOM      4  C   UNL     1      48.680   5.091  17.963  0.00  0.00    +0.000 C 
ATOM      5  C   UNL     1      47.967   3.922  17.293  0.00  0.00    +0.000 C 
ATOM      6  C   UNL     1      47.179   4.364  16.059  0.00  0.00    +0.000 C 
ENDROOT
BRANCH   4   7
ATOM      7  C   UNL     1      47.694   6.040  18.640  0.00  0.00    +0.000 C 
ATOM      8  N   UNL     1      46.473   5.506  18.919  0.00  0.00    +0.000 N 
ATOM      9  O   UNL     1      47.929   7.210  18.921  0.00  0.00    +0.000 OA
ATOM     10  H   UNL     1      46.166   4.617  18.551  0.00  0.00    +0.000 HD
ATOM     11  H   UNL     1      45.781   6.127  19.321  0.00  0.00    +0.000 HD
ENDBRANCH   4   7
BRANCH   1  13
ATOM     12  C   UNL     1      47.990   6.319  12.844  0.00  0.00    +0.000 C 
ATOM     13  C   UNL     1      47.185   5.532  13.900  0.00  0.00    +0.000 C 
BRANCH  13  14
ATOM     14  C   UNL     1      46.475   4.348  13.172  0.00  0.00    +0.000 C 
BRANCH  14  15
ATOM     15  C   UNL     1      45.126   4.612  12.538  0.00  0.00    +0.000 A 
ATOM     16  C   UNL     1      44.988   4.506  11.149  0.00  0.00    +0.000 A 
ATOM     17  C   UNL     1      43.754   4.749  10.549  0.00  0.00    +0.000 A 
ATOM     18  C   UNL     1      42.689   5.112  11.359  0.00  0.00    +0.000 A 
ATOM     19  N   UNL     1      42.779   5.249  12.690  0.00  0.00    +0.000 NA
ATOM     20  C   UNL     1      43.990   5.001  13.246  0.00  0.00    +0.000 A 
ENDBRANCH  14  15
ENDBRANCH  13  14
ENDBRANCH   1  13
TORSDOF 4
ENDMDL
