MODEL 1
REMARK VINA RESULT:    -9.537      0.000      0.000
REMARK INTER + INTRA:         -12.445
REMARK INTER:                 -11.767
REMARK INTRA:                  -0.678
REMARK UNBOUND:                -0.678
REMARK  Name = 
REMARK  4 active torsions:
REMARK  status: ('A' for Active; 'I' for Inactive)
REMARK    1  A    between atoms: C_2  and  C_4
REMARK    2  A    between atoms: N_8  and  C_9
REMARK    3  A    between atoms: C_9  and  C_10
REMARK    4  A    between atoms: C_15  and  C_16
REMARK                            x       y       z     vdW  Elec       q    Type
REMARK                         _______ _______ _______ _____ _____    ______ ____
ROOT
ATOM      1  C   UNL     1      44.789   4.831  11.915  0.00  0.00    +0.000 A 
ATOM      2  C   UNL     1      45.434   3.966  12.798  0.00  0.00    +0.000 A 
ATOM      3  C   UNL     1      46.542   4.417  13.501  0.00  0.00    +0.000 A 
ATOM      4  F   UNL     1      47.160   3.585  14.350  0.00  0.00    +0.000 F 
ATOM      5  C   UNL     1      47.032   5.712  13.339  0.00  0.00    +0.000 A 
ATOM      6  C   UNL     1      46.402   6.617  12.470  0.00  0.00    +0.000 A 
ATOM      7  C   UNL     1      45.265   6.151  11.784  0.00  0.00    +0.000 A 
ENDROOT
BRANCH   6   8
ATOM      8  C   UNL     1      46.908   7.996  12.266  0.00  0.00    +0.000 A 
ATOM      9  C   UNL     1      48.255   8.247  11.977  0.00  0.00    +0.000 A 
ATOM     10  C   UNL     1      48.679   9.552  11.783  0.00  0.00    +0.000 A 
ATOM     11  N   UNL     1      47.869  10.624  11.868  0.00  0.00    +0.000 NA
ATOM     12  C   UNL     1      46.580  10.391  12.156  0.00  0.00    +0.000 A 
ATOM     13  N   UNL     1      45.747  11.505  12.212  0.00  0.00    +0.000 N 
ATOM     14  C   UNL     1      46.065   9.115  12.346  0.00  0.00    +0.000 A 
ATOM     15  H   UNL     1      46.344  12.322  12.101  0.00  0.00    +0.000 HD
ATOM     16  H   UNL     1      45.220  11.537  13.077  0.00  0.00    +0.000 HD
ENDBRANCH   6   8
BRANCH   1  17
ATOM     17  C   UNL     1      43.579   4.396  11.124  0.00  0.00    +0.000 C 
BRANCH  17  22
ATOM     18  C   UNL     1      46.403   2.288   7.675  0.00  0.00    +0.000 A 
ATOM     19  C   UNL     1      45.632   1.816   8.707  0.00  0.00    +0.000 A 
ATOM     20  N   UNL     1      44.777   2.587   9.407  0.00  0.00    +0.000 NA
ATOM     21  C   UNL     1      44.698   3.884   9.074  0.00  0.00    +0.000 A 
ATOM     22  N   UNL     1      43.796   4.702   9.724  0.00  0.00    +0.000 N 
ATOM     23  N   UNL     1      45.427   4.446   8.101  0.00  0.00    +0.000 NA
ATOM     24  C   UNL     1      46.275   3.634   7.421  0.00  0.00    +0.000 A 
ATOM     25  H   UNL     1      44.040   5.664   9.522  0.00  0.00    +0.000 HD
BRANCH  18  27
ATOM     26  N   UNL     1      48.459   2.044   6.420  0.00  0.00    +0.000 N 
ATOM     27  C   UNL     1      47.331   1.448   6.909  0.00  0.00    +0.000 C 
ATOM     28  O   UNL     1      47.112   0.258   6.741  0.00  0.00    +0.000 OA
ATOM     29  H   UNL     1      49.129   1.433   5.962  0.00  0.00    +0.000 HD
ATOM     30  H   UNL     1      48.803   2.942   6.731  0.00  0.00    +0.000 HD
ENDBRANCH  18  27
ENDBRANCH  17  22
ENDBRANCH   1  17
TORSDOF 4
ENDMDL
MODEL 2
REMARK VINA RESULT:    -8.947      2.836      3.900
REMARK INTER + INTRA:         -11.716
REMARK INTER:                 -11.000
REMARK INTRA:                  -0.717
REMARK UNBOUND:                -0.678
REMARK  Name = 
REMARK  4 active torsions:
REMARK  status: ('A' for Active; 'I' for Inactive)
REMARK    1  A    between atoms: C_2  and  C_4
REMARK    2  A    between atoms: N_8  and  C_9
REMARK    3  A    between atoms: C_9  and  C_10
REMARK    4  A    between atoms: C_15  and  C_16
REMARK                            x       y       z     vdW  Elec       q    Type
REMARK                         _______ _______ _______ _____ _____    ______ ____
ROOT
ATOM      1  C   UNL     1      44.614   5.690  11.723  0.00  0.00    +0.000 A 
ATOM      2  C   UNL     1      44.649   7.027  11.330  0.00  0.00    +0.000 A 
ATOM      3  C   UNL     1      45.511   7.901  11.977  0.00  0.00    +0.000 A 
ATOM      4  F   UNL     1      45.546   9.185  11.597  0.00  0.00    +0.000 F 
ATOM      5  C   UNL     1      46.337   7.476  13.017  0.00  0.00    +0.000 A 
ATOM      6  C   UNL     1      46.340   6.135  13.432  0.00  0.00    +0.000 A 
ATOM      7  C   UNL     1      45.477   5.257  12.749  0.00  0.00    +0.000 A 
ENDROOT
BRANCH   6   8
ATOM      8  C   UNL     1      47.195   5.656  14.544  0.00  0.00    +0.000 A 
ATOM      9  C   UNL     1      48.289   6.402  15.001  0.00  0.00    +0.000 A 
ATOM     10  C   UNL     1      49.052   5.918  16.052  0.00  0.00    +0.000 A 
ATOM     11  N   UNL     1      48.820   4.744  16.670  0.00  0.00    +0.000 NA
ATOM     12  C   UNL     1      47.782   4.020  16.229  0.00  0.00    +0.000 A 
ATOM     13  N   UNL     1      47.534   2.823  16.896  0.00  0.00    +0.000 N 
ATOM     14  C   UNL     1      46.951   4.437  15.196  0.00  0.00    +0.000 A 
ATOM     15  H   UNL     1      48.291   2.699  17.563  0.00  0.00    +0.000 HD
ATOM     16  H   UNL     1      47.465   2.043  16.253  0.00  0.00    +0.000 HD
ENDBRANCH   6   8
BRANCH   1  17
ATOM     17  C   UNL     1      43.696   4.694  11.054  0.00  0.00    +0.000 C 
BRANCH  17  22
ATOM     18  C   UNL     1      46.404   2.289   7.709  0.00  0.00    +0.000 A 
ATOM     19  C   UNL     1      45.718   1.918   8.837  0.00  0.00    +0.000 A 
ATOM     20  N   UNL     1      44.871   2.735   9.493  0.00  0.00    +0.000 NA
ATOM     21  C   UNL     1      44.715   3.978   9.013  0.00  0.00    +0.000 A 
ATOM     22  N   UNL     1      43.817   4.834   9.617  0.00  0.00    +0.000 N 
ATOM     23  N   UNL     1      45.359   4.443   7.935  0.00  0.00    +0.000 NA
ATOM     24  C   UNL     1      46.201   3.587   7.304  0.00  0.00    +0.000 A 
ATOM     25  H   UNL     1      44.004   5.773   9.285  0.00  0.00    +0.000 HD
BRANCH  18  27
ATOM     26  N   UNL     1      48.400   1.969   6.375  0.00  0.00    +0.000 N 
ATOM     27  C   UNL     1      47.323   1.396   6.991  0.00  0.00    +0.000 C 
ATOM     28  O   UNL     1      47.141   0.188   6.970  0.00  0.00    +0.000 OA
ATOM     29  H   UNL     1      49.068   1.331   5.953  0.00  0.00    +0.000 HD
ATOM     30  H   UNL     1      48.725   2.907   6.564  0.00  0.00    +0.000 HD
ENDBRANCH  18  27
ENDBRANCH  17  22
ENDBRANCH   1  17
TORSDOF 4
ENDMDL
MODEL 3
REMARK VINA RESULT:    -7.899      2.493      3.274
REMARK INTER + INTRA:         -10.424
REMARK INTER:                  -9.796
REMARK INTRA:                  -0.628
REMARK UNBOUND:                -0.678
REMARK  Name = 
REMARK  4 active torsions:
REMARK  status: ('A' for Active; 'I' for Inactive)
REMARK    1  A    between atoms: C_2  and  C_4
REMARK    2  A    between atoms: N_8  and  C_9
REMARK    3  A    between atoms: C_9  and  C_10
REMARK    4  A    between atoms: C_15  and  C_16
REMARK                            x       y       z     vdW  Elec       q    Type
REMARK                         _______ _______ _______ _____ _____    ______ ____
ROOT
ATOM      1  C   UNL     1      44.709   6.334  11.659  0.00  0.00    +0.000 A 
ATOM      2  C   UNL     1      44.207   7.607  11.393  0.00  0.00    +0.000 A 
ATOM      3  C   UNL     1      44.882   8.718  11.880  0.00  0.00    +0.000 A 
ATOM      4  F   UNL     1      44.399   9.941  11.622  0.00  0.00    +0.000 F 
ATOM      5  C   UNL     1      46.046   8.590  12.636  0.00  0.00    +0.000 A 
ATOM      6  C   UNL     1      46.591   7.326  12.913  0.00  0.00    +0.000 A 
ATOM      7  C   UNL     1      45.906   6.213  12.391  0.00  0.00    +0.000 A 
ENDROOT
BRANCH   6   8
ATOM      8  C   UNL     1      47.818   7.158  13.727  0.00  0.00    +0.000 A 
ATOM      9  C   UNL     1      47.806   6.446  14.933  0.00  0.00    +0.000 A 
ATOM     10  C   UNL     1      48.982   6.306  15.653  0.00  0.00    +0.000 A 
ATOM     11  N   UNL     1      50.162   6.831  15.273  0.00  0.00    +0.000 NA
ATOM     12  C   UNL     1      50.178   7.524  14.125  0.00  0.00    +0.000 A 
ATOM     13  N   UNL     1      51.410   8.037  13.728  0.00  0.00    +0.000 N 
ATOM     14  C   UNL     1      49.051   7.698  13.329  0.00  0.00    +0.000 A 
ATOM     15  H   UNL     1      52.064   7.840  14.482  0.00  0.00    +0.000 HD
ATOM     16  H   UNL     1      51.355   9.028  13.523  0.00  0.00    +0.000 HD
ENDBRANCH   6   8
BRANCH   1  17
ATOM     17  C   UNL     1      44.017   5.090  11.154  0.00  0.00    +0.000 C 
BRANCH  17  22
ATOM     18  C   UNL     1      46.327   2.223   7.875  0.00  0.00    +0.000 A 
ATOM     19  C   UNL     1      45.704   2.000   9.076  0.00  0.00    +0.000 A 
ATOM     20  N   UNL     1      44.957   2.927   9.708  0.00  0.00    +0.000 NA
ATOM     21  C   UNL     1      44.841   4.130   9.125  0.00  0.00    +0.000 A 
ATOM     22  N   UNL     1      44.041   5.094   9.705  0.00  0.00    +0.000 N 
ATOM     23  N   UNL     1      45.431   4.454   7.968  0.00  0.00    +0.000 NA
ATOM     24  C   UNL     1      46.173   3.491   7.364  0.00  0.00    +0.000 A 
ATOM     25  H   UNL     1      44.260   5.985   9.275  0.00  0.00    +0.000 HD
BRANCH  18  27
ATOM     26  N   UNL     1      48.193   1.656   6.438  0.00  0.00    +0.000 N 
ATOM     27  C   UNL     1      47.137   1.212   7.184  0.00  0.00    +0.000 C 
ATOM     28  O   UNL     1      46.888   0.021   7.295  0.00  0.00    +0.000 OA
ATOM     29  H   UNL     1      48.790   0.941   6.034  0.00  0.00    +0.000 HD
ATOM     30  H   UNL     1      48.583   2.585   6.510  0.00  0.00    +0.000 HD
ENDBRANCH  18  27
ENDBRANCH  17  22
ENDBRANCH   1  17
TORSDOF 4
ENDMDL
MODEL 4
REMARK VINA RESULT:    -7.818      5.313      7.873
REMARK INTER + INTRA:         -10.324
REMARK INTER:                  -9.657
REMARK INTRA:                  -0.667
REMARK UNBOUND:                -0.678
REMARK  Name = 
REMARK  4 active torsions:
REMARK  status: ('A' for Active; 'I' for Inactive)
REMARK    1  A    between atoms: C_2  and  C_4
REMARK    2  A    between atoms: N_8  and  C_9
REMARK    3  A    between atoms: C_9  and  C_10
REMARK    4  A    between atoms: C_15  and  C_16
REMARK                            x       y       z     vdW  Elec       q    Type
REMARK                         _______ _______ _______ _____ _____    ______ ____
ROOT
ATOM      1  C   UNL     1      48.174   6.653  14.380  0.00  0.00    +0.000 A 
ATOM      2  C   UNL     1      48.889   7.496  13.531  0.00  0.00    +0.000 A 
ATOM      3  C   UNL     1      48.523   7.580  12.194  0.00  0.00    +0.000 A 
ATOM      4  F   UNL     1      49.210   8.392  11.379  0.00  0.00    +0.000 F 
ATOM      5  C   UNL     1      47.463   6.835  11.680  0.00  0.00    +0.000 A 
ATOM      6  C   UNL     1      46.710   5.987  12.506  0.00  0.00    +0.000 A 
ATOM      7  C   UNL     1      47.080   5.932  13.864  0.00  0.00    +0.000 A 
ENDROOT
BRANCH   6   8
ATOM      8  C   UNL     1      45.587   5.171  11.985  0.00  0.00    +0.000 A 
ATOM      9  C   UNL     1      44.767   4.423  12.840  0.00  0.00    +0.000 A 
ATOM     10  C   UNL     1      43.722   3.686  12.307  0.00  0.00    +0.000 A 
ATOM     11  N   UNL     1      43.441   3.623  10.991  0.00  0.00    +0.000 NA
ATOM     12  C   UNL     1      44.230   4.327  10.168  0.00  0.00    +0.000 A 
ATOM     13  N   UNL     1      43.911   4.279   8.813  0.00  0.00    +0.000 N 
ATOM     14  C   UNL     1      45.287   5.110  10.616  0.00  0.00    +0.000 A 
ATOM     15  H   UNL     1      43.152   3.609   8.716  0.00  0.00    +0.000 HD
ATOM     16  H   UNL     1      44.713   4.026   8.247  0.00  0.00    +0.000 HD
ENDBRANCH   6   8
BRANCH   1  17
ATOM     17  C   UNL     1      48.527   6.522  15.843  0.00  0.00    +0.000 C 
BRANCH  17  22
ATOM     18  C   UNL     1      50.933   2.495  17.360  0.00  0.00    +0.000 A 
ATOM     19  C   UNL     1      51.129   3.844  17.506  0.00  0.00    +0.000 A 
ATOM     20  N   UNL     1      50.212   4.769  17.163  0.00  0.00    +0.000 NA
ATOM     21  C   UNL     1      49.057   4.331  16.640  0.00  0.00    +0.000 A 
ATOM     22  N   UNL     1      48.064   5.235  16.325  0.00  0.00    +0.000 N 
ATOM     23  N   UNL     1      48.781   3.036  16.433  0.00  0.00    +0.000 NA
ATOM     24  C   UNL     1      49.732   2.138  16.793  0.00  0.00    +0.000 A 
ATOM     25  H   UNL     1      47.387   4.767  15.735  0.00  0.00    +0.000 HD
BRANCH  18  27
ATOM     26  N   UNL     1      51.469   0.257  18.115  0.00  0.00    +0.000 N 
ATOM     27  C   UNL     1      51.931   1.486  17.738  0.00  0.00    +0.000 C 
ATOM     28  O   UNL     1      53.127   1.734  17.691  0.00  0.00    +0.000 OA
ATOM     29  H   UNL     1      52.173  -0.453  18.295  0.00  0.00    +0.000 HD
ATOM     30  H   UNL     1      50.530  -0.071  17.940  0.00  0.00    +0.000 HD
ENDBRANCH  18  27
ENDBRANCH  17  22
ENDBRANCH   1  17
TORSDOF 4
ENDMDL
MODEL 5
REMARK VINA RESULT:    -7.621      4.852      7.952
REMARK INTER + INTRA:         -10.081
REMARK INTER:                  -9.597
REMARK INTRA:                  -0.484
REMARK UNBOUND:                -0.678
REMARK  Name = 
REMARK  4 active torsions:
REMARK  status: ('A' for Active; 'I' for Inactive)
REMARK    1  A    between atoms: C_2  and  C_4
REMARK    2  A    between atoms: N_8  and  C_9
REMARK    3  A    between atoms: C_9  and  C_10
REMARK    4  A    between atoms: C_15  and  C_16
REMARK                            x       y       z     vdW  Elec       q    Type
REMARK                         _______ _______ _______ _____ _____    ______ ____
ROOT
ATOM      1  C   UNL     1      45.277   5.035  12.629  0.00  0.00    +0.000 A 
ATOM      2  C   UNL     1      43.964   5.501  12.646  0.00  0.00    +0.000 A 
ATOM      3  C   UNL     1      43.141   5.249  11.557  0.00  0.00    +0.000 A 
ATOM      4  F   UNL     1      41.878   5.696  11.575  0.00  0.00    +0.000 F 
ATOM      5  C   UNL     1      43.599   4.548  10.442  0.00  0.00    +0.000 A 
ATOM      6  C   UNL     1      44.911   4.051  10.393  0.00  0.00    +0.000 A 
ATOM      7  C   UNL     1      45.724   4.294  11.516  0.00  0.00    +0.000 A 
ENDROOT
BRANCH   6   8
ATOM      8  C   UNL     1      45.432   3.316   9.216  0.00  0.00    +0.000 A 
ATOM      9  C   UNL     1      45.446   1.915   9.174  0.00  0.00    +0.000 A 
ATOM     10  C   UNL     1      45.933   1.273   8.047  0.00  0.00    +0.000 A 
ATOM     11  N   UNL     1      46.419   1.915   6.968  0.00  0.00    +0.000 NA
ATOM     12  C   UNL     1      46.419   3.254   7.007  0.00  0.00    +0.000 A 
ATOM     13  N   UNL     1      46.896   3.907   5.873  0.00  0.00    +0.000 N 
ATOM     14  C   UNL     1      45.932   3.982   8.087  0.00  0.00    +0.000 A 
ATOM     15  H   UNL     1      47.247   3.186   5.248  0.00  0.00    +0.000 HD
ATOM     16  H   UNL     1      47.611   4.587   6.105  0.00  0.00    +0.000 HD
ENDBRANCH   6   8
BRANCH   1  17
ATOM     17  C   UNL     1      46.217   5.278  13.785  0.00  0.00    +0.000 C 
BRANCH  17  22
ATOM     18  C   UNL     1      49.375   3.854  17.294  0.00  0.00    +0.000 A 
ATOM     19  C   UNL     1      48.779   5.045  16.962  0.00  0.00    +0.000 A 
ATOM     20  N   UNL     1      47.779   5.149  16.065  0.00  0.00    +0.000 NA
ATOM     21  C   UNL     1      47.367   4.023  15.464  0.00  0.00    +0.000 A 
ATOM     22  N   UNL     1      46.308   4.069  14.580  0.00  0.00    +0.000 N 
ATOM     23  N   UNL     1      47.902   2.818  15.700  0.00  0.00    +0.000 NA
ATOM     24  C   UNL     1      48.906   2.757  16.611  0.00  0.00    +0.000 A 
ATOM     25  H   UNL     1      46.296   3.202  14.056  0.00  0.00    +0.000 HD
BRANCH  18  27
ATOM     26  N   UNL     1      51.373   2.738  18.088  0.00  0.00    +0.000 N 
ATOM     27  C   UNL     1      50.461   3.740  18.275  0.00  0.00    +0.000 C 
ATOM     28  O   UNL     1      50.557   4.526  19.205  0.00  0.00    +0.000 OA
ATOM     29  H   UNL     1      52.161   2.723  18.727  0.00  0.00    +0.000 HD
ATOM     30  H   UNL     1      51.480   2.229  17.222  0.00  0.00    +0.000 HD
ENDBRANCH  18  27
ENDBRANCH  17  22
ENDBRANCH   1  17
TORSDOF 4
ENDMDL
MODEL 6
REMARK VINA RESULT:    -7.521      3.526      7.484
REMARK INTER + INTRA:          -9.957
REMARK INTER:                  -9.814
REMARK INTRA:                  -0.143
REMARK UNBOUND:                -0.678
REMARK  Name = 
REMARK  4 active torsions:
REMARK  status: ('A' for Active; 'I' for Inactive)
REMARK    1  A    between atoms: C_2  and  C_4
REMARK    2  A    between atoms: N_8  and  C_9
REMARK    3  A    between atoms: C_9  and  C_10
REMARK    4  A    between atoms: C_15  and  C_16
REMARK                            x       y       z     vdW  Elec       q    Type
REMARK                         _______ _______ _______ _____ _____    ______ ____
ROOT
ATOM      1  C   UNL     1      44.927   5.230  10.716  0.00  0.00    +0.000 A 
ATOM      2  C   UNL     1      43.883   4.608  11.399  0.00  0.00    +0.000 A 
ATOM      3  C   UNL     1      43.549   3.299  11.079  0.00  0.00    +0.000 A 
ATOM      4  F   UNL     1      42.546   2.702  11.738  0.00  0.00    +0.000 F 
ATOM      5  C   UNL     1      44.226   2.595  10.085  0.00  0.00    +0.000 A 
ATOM      6  C   UNL     1      45.292   3.182   9.385  0.00  0.00    +0.000 A 
ATOM      7  C   UNL     1      45.633   4.501   9.739  0.00  0.00    +0.000 A 
ENDROOT
BRANCH   6   8
ATOM      8  C   UNL     1      46.021   2.464   8.312  0.00  0.00    +0.000 A 
ATOM      9  C   UNL     1      46.172   1.072   8.334  0.00  0.00    +0.000 A 
ATOM     10  C   UNL     1      46.852   0.444   7.303  0.00  0.00    +0.000 A 
ATOM     11  N   UNL     1      47.406   1.096   6.263  0.00  0.00    +0.000 NA
ATOM     12  C   UNL     1      47.275   2.430   6.243  0.00  0.00    +0.000 A 
ATOM     13  N   UNL     1      47.826   3.089   5.147  0.00  0.00    +0.000 N 
ATOM     14  C   UNL     1      46.592   3.140   7.223  0.00  0.00    +0.000 A 
ATOM     15  H   UNL     1      48.318   2.386   4.600  0.00  0.00    +0.000 HD
ATOM     16  H   UNL     1      48.439   3.844   5.432  0.00  0.00    +0.000 HD
ENDBRANCH   6   8
BRANCH   1  17
ATOM     17  C   UNL     1      45.335   6.651  11.022  0.00  0.00    +0.000 C 
BRANCH  17  22
ATOM     18  C   UNL     1      47.957   5.726  15.094  0.00  0.00    +0.000 A 
ATOM     19  C   UNL     1      46.844   5.166  14.518  0.00  0.00    +0.000 A 
ATOM     20  N   UNL     1      46.419   5.470  13.277  0.00  0.00    +0.000 NA
ATOM     21  C   UNL     1      47.122   6.380  12.587  0.00  0.00    +0.000 A 
ATOM     22  N   UNL     1      46.759   6.684  11.291  0.00  0.00    +0.000 N 
ATOM     23  N   UNL     1      48.206   7.002  13.070  0.00  0.00    +0.000 NA
ATOM     24  C   UNL     1      48.601   6.666  14.324  0.00  0.00    +0.000 A 
ATOM     25  H   UNL     1      47.234   7.538  11.022  0.00  0.00    +0.000 HD
BRANCH  18  27
ATOM     26  N   UNL     1      47.477   5.267  17.423  0.00  0.00    +0.000 N 
ATOM     27  C   UNL     1      48.424   5.391  16.446  0.00  0.00    +0.000 C 
ATOM     28  O   UNL     1      49.609   5.207  16.675  0.00  0.00    +0.000 OA
ATOM     29  H   UNL     1      47.807   4.957  18.332  0.00  0.00    +0.000 HD
ATOM     30  H   UNL     1      46.488   5.167  17.241  0.00  0.00    +0.000 HD
ENDBRANCH  18  27
ENDBRANCH  17  22
ENDBRANCH   1  17
TORSDOF 4
ENDMDL
MODEL 7
REMARK VINA RESULT:    -7.234      3.257      7.203
REMARK INTER + INTRA:          -9.603
REMARK INTER:                  -8.874
REMARK INTRA:                  -0.729
REMARK UNBOUND:                -0.678
REMARK  Name = 
REMARK  4 active torsions:
REMARK  status: ('A' for Active; 'I' for Inactive)
REMARK    1  A    between atoms: C_2  and  C_4
REMARK    2  A    between atoms: N_8  and  C_9
REMARK    3  A    between atoms: C_9  and  C_10
REMARK    4  A    between atoms: C_15  and  C_16
REMARK                            x       y       z     vdW  Elec       q    Type
REMARK                         _______ _______ _______ _____ _____    ______ ____
ROOT
ATOM      1  C   UNL     1      44.508   5.310  10.909  0.00  0.00    +0.000 A 
ATOM      2  C   UNL     1      43.751   4.521  11.773  0.00  0.00    +0.000 A 
ATOM      3  C   UNL     1      43.675   3.153  11.551  0.00  0.00    +0.000 A 
ATOM      4  F   UNL     1      42.948   2.395  12.383  0.00  0.00    +0.000 F 
ATOM      5  C   UNL     1      44.333   2.550  10.479  0.00  0.00    +0.000 A 
ATOM      6  C   UNL     1      45.116   3.309   9.595  0.00  0.00    +0.000 A 
ATOM      7  C   UNL     1      45.201   4.691   9.850  0.00  0.00    +0.000 A 
ENDROOT
BRANCH   6   8
ATOM      8  C   UNL     1      45.815   2.700   8.438  0.00  0.00    +0.000 A 
ATOM      9  C   UNL     1      46.150   1.340   8.418  0.00  0.00    +0.000 A 
ATOM     10  C   UNL     1      46.792   0.813   7.309  0.00  0.00    +0.000 A 
ATOM     11  N   UNL     1      47.139   1.537   6.228  0.00  0.00    +0.000 NA
ATOM     12  C   UNL     1      46.832   2.842   6.247  0.00  0.00    +0.000 A 
ATOM     13  N   UNL     1      47.169   3.574   5.111  0.00  0.00    +0.000 N 
ATOM     14  C   UNL     1      46.171   3.450   7.307  0.00  0.00    +0.000 A 
ATOM     15  H   UNL     1      47.688   2.945   4.503  0.00  0.00    +0.000 HD
ATOM     16  H   UNL     1      47.705   4.402   5.344  0.00  0.00    +0.000 HD
ENDBRANCH   6   8
BRANCH   1  17
ATOM     17  C   UNL     1      44.626   6.803  11.102  0.00  0.00    +0.000 C 
BRANCH  17  22
ATOM     18  C   UNL     1      49.002   7.548  13.248  0.00  0.00    +0.000 A 
ATOM     19  C   UNL     1      48.444   7.916  12.050  0.00  0.00    +0.000 A 
ATOM     20  N   UNL     1      47.137   7.760  11.762  0.00  0.00    +0.000 NA
ATOM     21  C   UNL     1      46.359   7.201  12.701  0.00  0.00    +0.000 A 
ATOM     22  N   UNL     1      45.003   7.072  12.475  0.00  0.00    +0.000 N 
ATOM     23  N   UNL     1      46.813   6.785  13.890  0.00  0.00    +0.000 NA
ATOM     24  C   UNL     1      48.136   6.961  14.140  0.00  0.00    +0.000 A 
ATOM     25  H   UNL     1      44.629   6.429  13.163  0.00  0.00    +0.000 HD
BRANCH  18  27
ATOM     26  N   UNL     1      51.259   8.067  12.537  0.00  0.00    +0.000 N 
ATOM     27  C   UNL     1      50.426   7.722  13.564  0.00  0.00    +0.000 C 
ATOM     28  O   UNL     1      50.839   7.588  14.706  0.00  0.00    +0.000 OA
ATOM     29  H   UNL     1      52.223   8.262  12.786  0.00  0.00    +0.000 HD
ATOM     30  H   UNL     1      50.939   8.424  11.647  0.00  0.00    +0.000 HD
ENDBRANCH  18  27
ENDBRANCH  17  22
ENDBRANCH   1  17
TORSDOF 4
ENDMDL
MODEL 8
REMARK VINA RESULT:    -6.758      6.079      7.749
REMARK INTER + INTRA:          -9.016
REMARK INTER:                  -8.528
REMARK INTRA:                  -0.488
REMARK UNBOUND:                -0.678
REMARK  Name = 
REMARK  4 active torsions:
REMARK  status: ('A' for Active; 'I' for Inactive)
REMARK    1  A    between atoms: C_2  and  C_4
REMARK    2  A    between atoms: N_8  and  C_9
REMARK    3  A    between atoms: C_9  and  C_10
REMARK    4  A    between atoms: C_15  and  C_16
REMARK                            x       y       z     vdW  Elec       q    Type
REMARK                         _______ _______ _______ _____ _____    ______ ____
ROOT
ATOM      1  C   UNL     1      47.994   4.047  16.942  0.00  0.00    +0.000 A 
ATOM      2  C   UNL     1      47.560   4.790  18.039  0.00  0.00    +0.000 A 
ATOM      3  C   UNL     1      48.417   4.971  19.116  0.00  0.00    +0.000 A 
ATOM      4  F   UNL     1      47.999   5.686  20.169  0.00  0.00    +0.000 F 
ATOM      5  C   UNL     1      49.698   4.422  19.130  0.00  0.00    +0.000 A 
ATOM      6  C   UNL     1      50.176   3.681  18.038  0.00  0.00    +0.000 A 
ATOM      7  C   UNL     1      49.303   3.527  16.945  0.00  0.00    +0.000 A 
ENDROOT
BRANCH   6   8
ATOM      8  C   UNL     1      51.528   3.072  18.030  0.00  0.00    +0.000 A 
ATOM      9  C   UNL     1      52.644   3.759  18.525  0.00  0.00    +0.000 A 
ATOM     10  C   UNL     1      53.885   3.144  18.506  0.00  0.00    +0.000 A 
ATOM     11  N   UNL     1      54.103   1.907  18.020  0.00  0.00    +0.000 NA
ATOM     12  C   UNL     1      53.041   1.249  17.534  0.00  0.00    +0.000 A 
ATOM     13  N   UNL     1      53.274  -0.040  17.062  0.00  0.00    +0.000 N 
ATOM     14  C   UNL     1      51.757   1.780  17.531  0.00  0.00    +0.000 A 
ATOM     15  H   UNL     1      54.279  -0.190  17.108  0.00  0.00    +0.000 HD
ATOM     16  H   UNL     1      52.915  -0.166  16.123  0.00  0.00    +0.000 HD
ENDBRANCH   6   8
BRANCH   1  17
ATOM     17  C   UNL     1      47.106   3.817  15.742  0.00  0.00    +0.000 C 
BRANCH  17  22
ATOM     18  C   UNL     1      45.530   4.994  11.221  0.00  0.00    +0.000 A 
ATOM     19  C   UNL     1      45.232   3.996  12.114  0.00  0.00    +0.000 A 
ATOM     20  N   UNL     1      45.656   3.993  13.392  0.00  0.00    +0.000 NA
ATOM     21  C   UNL     1      46.420   5.020  13.793  0.00  0.00    +0.000 A 
ATOM     22  N   UNL     1      46.832   5.092  15.108  0.00  0.00    +0.000 N 
ATOM     23  N   UNL     1      46.786   6.029  12.992  0.00  0.00    +0.000 NA
ATOM     24  C   UNL     1      46.337   5.993  11.712  0.00  0.00    +0.000 A 
ATOM     25  H   UNL     1      47.575   5.777  15.169  0.00  0.00    +0.000 HD
BRANCH  18  27
ATOM     26  N   UNL     1      43.729   4.802   9.613  0.00  0.00    +0.000 N 
ATOM     27  C   UNL     1      45.064   4.999   9.828  0.00  0.00    +0.000 C 
ATOM     28  O   UNL     1      45.839   5.198   8.905  0.00  0.00    +0.000 OA
ATOM     29  H   UNL     1      43.411   4.889   8.652  0.00  0.00    +0.000 HD
ATOM     30  H   UNL     1      43.024   4.878  10.333  0.00  0.00    +0.000 HD
ENDBRANCH  18  27
ENDBRANCH  17  22
ENDBRANCH   1  17
TORSDOF 4
ENDMDL
