MODEL 1
REMARK VINA RESULT:    -7.927      0.000      0.000
REMARK INTER + INTRA:         -11.589
REMARK INTER:                 -10.708
REMARK INTRA:                  -0.881
REMARK UNBOUND:                -0.881
REMARK  Name = 
REMARK  6 active torsions:
REMARK  status: ('A' for Active; 'I' for Inactive)
REMARK    1  A    between atoms: C_2  and  C_3
REMARK    2  A    between atoms: N_7  and  C_8
REMARK    3  A    between atoms: C_8  and  C_9
REMARK    4  A    between atoms: C_9  and  C_10
REMARK    5  A    between atoms: C_12  and  N_13
REMARK    6  A    between atoms: N_13  and  C_14
REMARK                            x       y       z     vdW  Elec       q    Type
REMARK                         _______ _______ _______ _____ _____    ______ ____
ROOT
ATOM      1  C   UNL     1      44.593   5.440  12.876  0.00  0.00    +0.000 A 
ATOM      2  C   UNL     1      45.170   4.495  13.698  0.00  0.00    +0.000 A 
ATOM      3  C   UNL     1      46.492   4.683  14.059  0.00  0.00    +0.000 A 
ATOM      4  N   UNL     1      47.202   5.743  13.652  0.00  0.00    +0.000 NA
ATOM      5  C   UNL     1      46.546   6.630  12.890  0.00  0.00    +0.000 A 
ATOM      6  N   UNL     1      45.273   6.533  12.474  0.00  0.00    +0.000 NA
ENDROOT
BRANCH   3   7
ATOM      7  N   UNL     1      47.082   3.693  14.870  0.00  0.00    +0.000 N 
ATOM      8  H   UNL     1      46.430   2.918  14.965  0.00  0.00    +0.000 HD
BRANCH   7   9
ATOM      9  C   UNL     1      47.810   3.971  16.074  0.00  0.00    +0.000 C 
ATOM     10  C   UNL     1      48.193   2.674  16.817  0.00  0.00    +0.000 C 
ATOM     11  N   UNL     1      47.782   3.297  18.090  0.00  0.00    +0.000 NA
ATOM     12  C   UNL     1      46.983   4.292  17.331  0.00  0.00    +0.000 C 
ATOM     13  H   UNL     1      48.563   3.713  18.597  0.00  0.00    +0.000 HD
ENDBRANCH   7   9
ENDBRANCH   3   7
BRANCH   1  14
ATOM     14  C   UNL     1      43.176   5.231  12.391  0.00  0.00    +0.000 C 
BRANCH  14  15
ATOM     15  C   UNL     1      43.118   4.451  11.083  0.00  0.00    +0.000 C 
BRANCH  15  20
ATOM     16  C   UNL     1      46.538   2.713   7.718  0.00  0.00    +0.000 A 
ATOM     17  C   UNL     1      45.738   2.060   8.644  0.00  0.00    +0.000 A 
ATOM     18  C   UNL     1      44.883   2.803   9.453  0.00  0.00    +0.000 A 
ATOM     19  C   UNL     1      44.842   4.190   9.326  0.00  0.00    +0.000 A 
ATOM     20  N   UNL     1      44.024   4.984  10.090  0.00  0.00    +0.000 N 
ATOM     21  N   UNL     1      45.617   4.835   8.434  0.00  0.00    +0.000 NA
ATOM     22  C   UNL     1      46.441   4.092   7.649  0.00  0.00    +0.000 A 
ATOM     23  H   UNL     1      44.118   5.978   9.915  0.00  0.00    +0.000 HD
BRANCH  16  25
ATOM     24  N   UNL     1      48.154   1.422   6.166  0.00  0.00    +0.000 NA
ATOM     25  C   UNL     1      47.430   1.994   6.867  0.00  0.00    +0.000 C 
ENDBRANCH  16  25
ENDBRANCH  15  20
ENDBRANCH  14  15
ENDBRANCH   1  14
TORSDOF 6
ENDMDL
MODEL 2
REMARK VINA RESULT:    -7.730      1.867      3.205
REMARK INTER + INTRA:         -11.322
REMARK INTER:                 -10.423
REMARK INTRA:                  -0.899
REMARK UNBOUND:                -0.881
REMARK  Name = 
REMARK  6 active torsions:
REMARK  status: ('A' for Active; 'I' for Inactive)
REMARK    1  A    between atoms: C_2  and  C_3
REMARK    2  A    between atoms: N_7  and  C_8
REMARK    3  A    between atoms: C_8  and  C_9
REMARK    4  A    between atoms: C_9  and  C_10
REMARK    5  A    between atoms: C_12  and  N_13
REMARK    6  A    between atoms: N_13  and  C_14
REMARK                            x       y       z     vdW  Elec       q    Type
REMARK                         _______ _______ _______ _____ _____    ______ ____
ROOT
ATOM      1  C   UNL     1      44.793   4.757  12.905  0.00  0.00    +0.000 A 
ATOM      2  C   UNL     1      45.476   5.917  13.206  0.00  0.00    +0.000 A 
ATOM      3  C   UNL     1      46.794   5.796  13.612  0.00  0.00    +0.000 A 
ATOM      4  N   UNL     1      47.409   4.610  13.702  0.00  0.00    +0.000 NA
ATOM      5  C   UNL     1      46.678   3.542  13.350  0.00  0.00    +0.000 A 
ATOM      6  N   UNL     1      45.394   3.552  12.959  0.00  0.00    +0.000 NA
ENDROOT
BRANCH   3   7
ATOM      7  N   UNL     1      47.471   6.984  13.950  0.00  0.00    +0.000 N 
ATOM      8  H   UNL     1      47.146   7.298  14.861  0.00  0.00    +0.000 HD
BRANCH   7   9
ATOM      9  C   UNL     1      47.710   8.061  13.033  0.00  0.00    +0.000 C 
ATOM     10  C   UNL     1      48.351   7.556  11.723  0.00  0.00    +0.000 C 
ATOM     11  N   UNL     1      49.295   8.691  11.765  0.00  0.00    +0.000 NA
ATOM     12  C   UNL     1      49.014   8.856  13.214  0.00  0.00    +0.000 C 
ATOM     13  H   UNL     1      48.985   9.484  11.203  0.00  0.00    +0.000 HD
ENDBRANCH   7   9
ENDBRANCH   3   7
BRANCH   1  14
ATOM     14  C   UNL     1      43.329   4.839  12.537  0.00  0.00    +0.000 C 
BRANCH  14  15
ATOM     15  C   UNL     1      43.041   4.249  11.161  0.00  0.00    +0.000 C 
BRANCH  15  20
ATOM     16  C   UNL     1      46.444   2.617   7.726  0.00  0.00    +0.000 A 
ATOM     17  C   UNL     1      45.696   1.941   8.679  0.00  0.00    +0.000 A 
ATOM     18  C   UNL     1      44.832   2.658   9.502  0.00  0.00    +0.000 A 
ATOM     19  C   UNL     1      44.730   4.040   9.363  0.00  0.00    +0.000 A 
ATOM     20  N   UNL     1      43.899   4.808  10.139  0.00  0.00    +0.000 N 
ATOM     21  N   UNL     1      45.454   4.707   8.443  0.00  0.00    +0.000 NA
ATOM     22  C   UNL     1      46.288   3.989   7.646  0.00  0.00    +0.000 A 
ATOM     23  H   UNL     1      43.947   5.803   9.951  0.00  0.00    +0.000 HD
BRANCH  16  25
ATOM     24  N   UNL     1      48.070   1.374   6.145  0.00  0.00    +0.000 NA
ATOM     25  C   UNL     1      47.343   1.925   6.859  0.00  0.00    +0.000 C 
ENDBRANCH  16  25
ENDBRANCH  15  20
ENDBRANCH  14  15
ENDBRANCH   1  14
TORSDOF 6
ENDMDL
MODEL 3
REMARK VINA RESULT:    -7.407      2.116      2.524
REMARK INTER + INTRA:         -10.887
REMARK INTER:                 -10.128
REMARK INTRA:                  -0.759
REMARK UNBOUND:                -0.881
REMARK  Name = 
REMARK  6 active torsions:
REMARK  status: ('A' for Active; 'I' for Inactive)
REMARK    1  A    between atoms: C_2  and  C_3
REMARK    2  A    between atoms: N_7  and  C_8
REMARK    3  A    between atoms: C_8  and  C_9
REMARK    4  A    between atoms: C_9  and  C_10
REMARK    5  A    between atoms: C_12  and  N_13
REMARK    6  A    between atoms: N_13  and  C_14
REMARK                            x       y       z     vdW  Elec       q    Type
REMARK                         _______ _______ _______ _____ _____    ______ ____
ROOT
ATOM      1  C   UNL     1      44.170   5.249  12.500  0.00  0.00    +0.000 A 
ATOM      2  C   UNL     1      45.319   5.181  13.260  0.00  0.00    +0.000 A 
ATOM      3  C   UNL     1      46.161   6.278  13.245  0.00  0.00    +0.000 A 
ATOM      4  N   UNL     1      45.886   7.383  12.540  0.00  0.00    +0.000 NA
ATOM      5  C   UNL     1      44.728   7.374  11.865  0.00  0.00    +0.000 A 
ATOM      6  N   UNL     1      43.851   6.358  11.803  0.00  0.00    +0.000 NA
ENDROOT
BRANCH   3   7
ATOM      7  N   UNL     1      47.349   6.184  13.997  0.00  0.00    +0.000 N 
ATOM      8  H   UNL     1      47.146   5.703  14.870  0.00  0.00    +0.000 HD
BRANCH   7   9
ATOM      9  C   UNL     1      48.291   7.256  14.147  0.00  0.00    +0.000 C 
ATOM     10  C   UNL     1      49.406   7.182  13.083  0.00  0.00    +0.000 C 
ATOM     11  N   UNL     1      50.405   7.472  14.131  0.00  0.00    +0.000 NA
ATOM     12  C   UNL     1      49.425   7.051  15.164  0.00  0.00    +0.000 C 
ATOM     13  H   UNL     1      50.645   8.462  14.185  0.00  0.00    +0.000 HD
ENDBRANCH   7   9
ENDBRANCH   3   7
BRANCH   1  14
ATOM     14  C   UNL     1      43.263   4.042  12.424  0.00  0.00    +0.000 C 
BRANCH  14  15
ATOM     15  C   UNL     1      43.420   3.277  11.115  0.00  0.00    +0.000 C 
BRANCH  15  20
ATOM     16  C   UNL     1      46.739   2.527   7.311  0.00  0.00    +0.000 A 
ATOM     17  C   UNL     1      46.174   1.655   8.231  0.00  0.00    +0.000 A 
ATOM     18  C   UNL     1      45.284   2.147   9.181  0.00  0.00    +0.000 A 
ATOM     19  C   UNL     1      44.973   3.506   9.200  0.00  0.00    +0.000 A 
ATOM     20  N   UNL     1      44.105   4.058  10.107  0.00  0.00    +0.000 N 
ATOM     21  N   UNL     1      45.518   4.361   8.314  0.00  0.00    +0.000 NA
ATOM     22  C   UNL     1      46.380   3.861   7.391  0.00  0.00    +0.000 A 
ATOM     23  H   UNL     1      43.993   5.062  10.026  0.00  0.00    +0.000 HD
BRANCH  16  25
ATOM     24  N   UNL     1      48.395   1.683   5.513  0.00  0.00    +0.000 NA
ATOM     25  C   UNL     1      47.656   2.069   6.318  0.00  0.00    +0.000 C 
ENDBRANCH  16  25
ENDBRANCH  15  20
ENDBRANCH  14  15
ENDBRANCH   1  14
TORSDOF 6
ENDMDL
MODEL 4
REMARK VINA RESULT:    -6.870      1.785      8.208
REMARK INTER + INTRA:         -10.161
REMARK INTER:                  -9.713
REMARK INTRA:                  -0.448
REMARK UNBOUND:                -0.881
REMARK  Name = 
REMARK  6 active torsions:
REMARK  status: ('A' for Active; 'I' for Inactive)
REMARK    1  A    between atoms: C_2  and  C_3
REMARK    2  A    between atoms: N_7  and  C_8
REMARK    3  A    between atoms: C_8  and  C_9
REMARK    4  A    between atoms: C_9  and  C_10
REMARK    5  A    between atoms: C_12  and  N_13
REMARK    6  A    between atoms: N_13  and  C_14
REMARK                            x       y       z     vdW  Elec       q    Type
REMARK                         _______ _______ _______ _____ _____    ______ ____
ROOT
ATOM      1  C   UNL     1      44.951   4.844  12.395  0.00  0.00    +0.000 A 
ATOM      2  C   UNL     1      44.909   5.007  11.026  0.00  0.00    +0.000 A 
ATOM      3  C   UNL     1      44.113   4.138  10.302  0.00  0.00    +0.000 A 
ATOM      4  N   UNL     1      43.389   3.175  10.887  0.00  0.00    +0.000 NA
ATOM      5  C   UNL     1      43.461   3.118  12.225  0.00  0.00    +0.000 A 
ATOM      6  N   UNL     1      44.211   3.903  13.015  0.00  0.00    +0.000 NA
ENDROOT
BRANCH   3   7
ATOM      7  N   UNL     1      44.105   4.291   8.902  0.00  0.00    +0.000 N 
ATOM      8  H   UNL     1      43.171   4.566   8.608  0.00  0.00    +0.000 HD
BRANCH   7   9
ATOM      9  C   UNL     1      44.740   3.382   7.992  0.00  0.00    +0.000 C 
ATOM     10  C   UNL     1      45.385   2.195   8.737  0.00  0.00    +0.000 C 
ATOM     11  N   UNL     1      46.586   2.333   7.889  0.00  0.00    +0.000 NA
ATOM     12  C   UNL     1      46.176   3.721   7.556  0.00  0.00    +0.000 C 
ATOM     13  H   UNL     1      46.576   1.708   7.084  0.00  0.00    +0.000 HD
ENDBRANCH   7   9
ENDBRANCH   3   7
BRANCH   1  14
ATOM     14  C   UNL     1      45.871   5.720  13.215  0.00  0.00    +0.000 C 
BRANCH  14  15
ATOM     15  C   UNL     1      47.150   5.000  13.624  0.00  0.00    +0.000 C 
BRANCH  15  20
ATOM     16  C   UNL     1      48.290   4.450  18.568  0.00  0.00    +0.000 A 
ATOM     17  C   UNL     1      48.608   5.441  17.650  0.00  0.00    +0.000 A 
ATOM     18  C   UNL     1      48.157   5.327  16.338  0.00  0.00    +0.000 A 
ATOM     19  C   UNL     1      47.398   4.221  15.961  0.00  0.00    +0.000 A 
ATOM     20  N   UNL     1      46.921   4.045  14.687  0.00  0.00    +0.000 N 
ATOM     21  N   UNL     1      47.086   3.252  16.842  0.00  0.00    +0.000 NA
ATOM     22  C   UNL     1      47.531   3.384  18.119  0.00  0.00    +0.000 A 
ATOM     23  H   UNL     1      46.409   3.182  14.544  0.00  0.00    +0.000 HD
BRANCH  16  25
ATOM     24  N   UNL     1      49.094   4.595  21.021  0.00  0.00    +0.000 NA
ATOM     25  C   UNL     1      48.729   4.524  19.924  0.00  0.00    +0.000 C 
ENDBRANCH  16  25
ENDBRANCH  15  20
ENDBRANCH  14  15
ENDBRANCH   1  14
TORSDOF 6
ENDMDL
MODEL 5
REMARK VINA RESULT:    -6.860      1.500      7.982
REMARK INTER + INTRA:         -10.147
REMARK INTER:                  -9.454
REMARK INTRA:                  -0.693
REMARK UNBOUND:                -0.881
REMARK  Name = 
REMARK  6 active torsions:
REMARK  status: ('A' for Active; 'I' for Inactive)
REMARK    1  A    between atoms: C_2  and  C_3
REMARK    2  A    between atoms: N_7  and  C_8
REMARK    3  A    between atoms: C_8  and  C_9
REMARK    4  A    between atoms: C_9  and  C_10
REMARK    5  A    between atoms: C_12  and  N_13
REMARK    6  A    between atoms: N_13  and  C_14
REMARK                            x       y       z     vdW  Elec       q    Type
REMARK                         _______ _______ _______ _____ _____    ______ ____
ROOT
ATOM      1  C   UNL     1      45.074   5.102  10.359  0.00  0.00    +0.000 A 
ATOM      2  C   UNL     1      45.728   5.046   9.146  0.00  0.00    +0.000 A 
ATOM      3  C   UNL     1      45.628   3.873   8.419  0.00  0.00    +0.000 A 
ATOM      4  N   UNL     1      44.917   2.823   8.850  0.00  0.00    +0.000 NA
ATOM      5  C   UNL     1      44.282   2.984  10.019  0.00  0.00    +0.000 A 
ATOM      6  N   UNL     1      44.326   4.073  10.804  0.00  0.00    +0.000 NA
ENDROOT
BRANCH   3   7
ATOM      7  N   UNL     1      46.329   3.813   7.199  0.00  0.00    +0.000 N 
ATOM      8  H   UNL     1      45.973   4.539   6.582  0.00  0.00    +0.000 HD
BRANCH   7   9
ATOM      9  C   UNL     1      46.645   2.593   6.514  0.00  0.00    +0.000 C 
ATOM     10  C   UNL     1      48.005   2.024   6.970  0.00  0.00    +0.000 C 
ATOM     11  N   UNL     1      48.347   1.750   5.560  0.00  0.00    +0.000 NA
ATOM     12  C   UNL     1      47.307   2.720   5.132  0.00  0.00    +0.000 C 
ATOM     13  H   UNL     1      48.139   0.791   5.282  0.00  0.00    +0.000 HD
ENDBRANCH   7   9
ENDBRANCH   3   7
BRANCH   1  14
ATOM     14  C   UNL     1      45.223   6.335  11.221  0.00  0.00    +0.000 C 
BRANCH  14  15
ATOM     15  C   UNL     1      46.436   6.259  12.140  0.00  0.00    +0.000 C 
BRANCH  15  20
ATOM     16  C   UNL     1      48.376   4.903  16.662  0.00  0.00    +0.000 A 
ATOM     17  C   UNL     1      48.576   6.024  15.868  0.00  0.00    +0.000 A 
ATOM     18  C   UNL     1      47.904   6.129  14.654  0.00  0.00    +0.000 A 
ATOM     19  C   UNL     1      47.044   5.111  14.248  0.00  0.00    +0.000 A 
ATOM     20  N   UNL     1      46.350   5.150  13.065  0.00  0.00    +0.000 N 
ATOM     21  N   UNL     1      46.845   4.018  15.008  0.00  0.00    +0.000 NA
ATOM     22  C   UNL     1      47.505   3.935  16.193  0.00  0.00    +0.000 A 
ATOM     23  H   UNL     1      45.784   4.330  12.881  0.00  0.00    +0.000 HD
BRANCH  16  25
ATOM     24  N   UNL     1      49.586   4.612  18.928  0.00  0.00    +0.000 NA
ATOM     25  C   UNL     1      49.042   4.751  17.915  0.00  0.00    +0.000 C 
ENDBRANCH  16  25
ENDBRANCH  15  20
ENDBRANCH  14  15
ENDBRANCH   1  14
TORSDOF 6
ENDMDL
MODEL 6
REMARK VINA RESULT:    -6.687      2.241      7.335
REMARK INTER + INTRA:          -9.914
REMARK INTER:                  -9.313
REMARK INTRA:                  -0.601
REMARK UNBOUND:                -0.881
REMARK  Name = 
REMARK  6 active torsions:
REMARK  status: ('A' for Active; 'I' for Inactive)
REMARK    1  A    between atoms: C_2  and  C_3
REMARK    2  A    between atoms: N_7  and  C_8
REMARK    3  A    between atoms: C_8  and  C_9
REMARK    4  A    between atoms: C_9  and  C_10
REMARK    5  A    between atoms: C_12  and  N_13
REMARK    6  A    between atoms: N_13  and  C_14
REMARK                            x       y       z     vdW  Elec       q    Type
REMARK                         _______ _______ _______ _____ _____    ______ ____
ROOT
ATOM      1  C   UNL     1      43.864   4.245  10.109  0.00  0.00    +0.000 A 
ATOM      2  C   UNL     1      44.510   4.328   8.894  0.00  0.00    +0.000 A 
ATOM      3  C   UNL     1      44.984   3.152   8.340  0.00  0.00    +0.000 A 
ATOM      4  N   UNL     1      44.819   1.963   8.935  0.00  0.00    +0.000 NA
ATOM      5  C   UNL     1      44.143   1.976  10.093  0.00  0.00    +0.000 A 
ATOM      6  N   UNL     1      43.657   3.060  10.718  0.00  0.00    +0.000 NA
ENDROOT
BRANCH   3   7
ATOM      7  N   UNL     1      45.673   3.252   7.115  0.00  0.00    +0.000 N 
ATOM      8  H   UNL     1      45.114   2.814   6.388  0.00  0.00    +0.000 HD
BRANCH   7   9
ATOM      9  C   UNL     1      47.081   3.018   6.966  0.00  0.00    +0.000 C 
ATOM     10  C   UNL     1      47.484   2.924   5.480  0.00  0.00    +0.000 C 
ATOM     11  N   UNL     1      48.323   1.751   5.796  0.00  0.00    +0.000 NA
ATOM     12  C   UNL     1      47.557   1.559   7.054  0.00  0.00    +0.000 C 
ATOM     13  H   UNL     1      49.300   1.995   5.955  0.00  0.00    +0.000 HD
ENDBRANCH   7   9
ENDBRANCH   3   7
BRANCH   1  14
ATOM     14  C   UNL     1      43.403   5.516  10.787  0.00  0.00    +0.000 C 
BRANCH  14  15
ATOM     15  C   UNL     1      43.385   5.391  12.306  0.00  0.00    +0.000 C 
BRANCH  15  20
ATOM     16  C   UNL     1      47.753   7.715  13.560  0.00  0.00    +0.000 A 
ATOM     17  C   UNL     1      46.568   8.199  13.026  0.00  0.00    +0.000 A 
ATOM     18  C   UNL     1      45.520   7.318  12.776  0.00  0.00    +0.000 A 
ATOM     19  C   UNL     1      45.673   5.962  13.060  0.00  0.00    +0.000 A 
ATOM     20  N   UNL     1      44.683   5.039  12.839  0.00  0.00    +0.000 N 
ATOM     21  N   UNL     1      46.820   5.480  13.576  0.00  0.00    +0.000 NA
ATOM     22  C   UNL     1      47.829   6.357  13.818  0.00  0.00    +0.000 A 
ATOM     23  H   UNL     1      44.940   4.084  13.063  0.00  0.00    +0.000 HD
BRANCH  16  25
ATOM     24  N   UNL     1      49.752   9.273  14.068  0.00  0.00    +0.000 NA
ATOM     25  C   UNL     1      48.854   8.580  13.834  0.00  0.00    +0.000 C 
ENDBRANCH  16  25
ENDBRANCH  15  20
ENDBRANCH  14  15
ENDBRANCH   1  14
TORSDOF 6
ENDMDL
MODEL 7
REMARK VINA RESULT:    -6.607      3.311      5.828
REMARK INTER + INTRA:          -9.805
REMARK INTER:                  -9.275
REMARK INTRA:                  -0.530
REMARK UNBOUND:                -0.881
REMARK  Name = 
REMARK  6 active torsions:
REMARK  status: ('A' for Active; 'I' for Inactive)
REMARK    1  A    between atoms: C_2  and  C_3
REMARK    2  A    between atoms: N_7  and  C_8
REMARK    3  A    between atoms: C_8  and  C_9
REMARK    4  A    between atoms: C_9  and  C_10
REMARK    5  A    between atoms: C_12  and  N_13
REMARK    6  A    between atoms: N_13  and  C_14
REMARK                            x       y       z     vdW  Elec       q    Type
REMARK                         _______ _______ _______ _____ _____    ______ ____
ROOT
ATOM      1  C   UNL     1      44.562   6.934  11.978  0.00  0.00    +0.000 A 
ATOM      2  C   UNL     1      43.987   7.757  11.031  0.00  0.00    +0.000 A 
ATOM      3  C   UNL     1      44.279   9.108  11.096  0.00  0.00    +0.000 A 
ATOM      4  N   UNL     1      45.096   9.620  12.024  0.00  0.00    +0.000 NA
ATOM      5  C   UNL     1      45.640   8.740  12.877  0.00  0.00    +0.000 A 
ATOM      6  N   UNL     1      45.412   7.416  12.907  0.00  0.00    +0.000 NA
ENDROOT
BRANCH   3   7
ATOM      7  N   UNL     1      43.659   9.943  10.145  0.00  0.00    +0.000 N 
ATOM      8  H   UNL     1      44.369  10.299   9.510  0.00  0.00    +0.000 HD
BRANCH   7   9
ATOM      9  C   UNL     1      42.650  10.911  10.466  0.00  0.00    +0.000 C 
ATOM     10  C   UNL     1      41.380  10.239  11.028  0.00  0.00    +0.000 C 
ATOM     11  N   UNL     1      40.554  11.116  10.174  0.00  0.00    +0.000 NA
ATOM     12  C   UNL     1      41.739  11.375   9.316  0.00  0.00    +0.000 C 
ATOM     13  H   UNL     1      40.224  11.947  10.663  0.00  0.00    +0.000 HD
ENDBRANCH   7   9
ENDBRANCH   3   7
BRANCH   1  14
ATOM     14  C   UNL     1      44.206   5.465  11.992  0.00  0.00    +0.000 C 
BRANCH  14  15
ATOM     15  C   UNL     1      43.575   5.006  10.683  0.00  0.00    +0.000 C 
BRANCH  15  20
ATOM     16  C   UNL     1      46.621   2.472   7.467  0.00  0.00    +0.000 A 
ATOM     17  C   UNL     1      46.385   3.828   7.642  0.00  0.00    +0.000 A 
ATOM     18  C   UNL     1      45.478   4.243   8.613  0.00  0.00    +0.000 A 
ATOM     19  C   UNL     1      44.817   3.297   9.393  0.00  0.00    +0.000 A 
ATOM     20  N   UNL     1      43.912   3.636  10.367  0.00  0.00    +0.000 N 
ATOM     21  N   UNL     1      45.036   1.978   9.230  0.00  0.00    +0.000 NA
ATOM     22  C   UNL     1      45.928   1.592   8.281  0.00  0.00    +0.000 A 
ATOM     23  H   UNL     1      43.484   2.847  10.837  0.00  0.00    +0.000 HD
BRANCH  16  25
ATOM     24  N   UNL     1      48.299   1.624   5.692  0.00  0.00    +0.000 NA
ATOM     25  C   UNL     1      47.541   1.998   6.485  0.00  0.00    +0.000 C 
ENDBRANCH  16  25
ENDBRANCH  15  20
ENDBRANCH  14  15
ENDBRANCH   1  14
TORSDOF 6
ENDMDL
MODEL 8
REMARK VINA RESULT:    -6.414      2.632      7.287
REMARK INTER + INTRA:          -9.544
REMARK INTER:                  -8.956
REMARK INTRA:                  -0.588
REMARK UNBOUND:                -0.881
REMARK  Name = 
REMARK  6 active torsions:
REMARK  status: ('A' for Active; 'I' for Inactive)
REMARK    1  A    between atoms: C_2  and  C_3
REMARK    2  A    between atoms: N_7  and  C_8
REMARK    3  A    between atoms: C_8  and  C_9
REMARK    4  A    between atoms: C_9  and  C_10
REMARK    5  A    between atoms: C_12  and  N_13
REMARK    6  A    between atoms: N_13  and  C_14
REMARK                            x       y       z     vdW  Elec       q    Type
REMARK                         _______ _______ _______ _____ _____    ______ ____
ROOT
ATOM      1  C   UNL     1      44.523   4.679  10.355  0.00  0.00    +0.000 A 
ATOM      2  C   UNL     1      45.063   4.605   9.088  0.00  0.00    +0.000 A 
ATOM      3  C   UNL     1      45.219   3.349   8.530  0.00  0.00    +0.000 A 
ATOM      4  N   UNL     1      44.852   2.231   9.171  0.00  0.00    +0.000 NA
ATOM      5  C   UNL     1      44.298   2.403  10.380  0.00  0.00    +0.000 A 
ATOM      6  N   UNL     1      44.117   3.574  11.012  0.00  0.00    +0.000 NA
ENDROOT
BRANCH   3   7
ATOM      7  N   UNL     1      45.804   3.283   7.250  0.00  0.00    +0.000 N 
ATOM      8  H   UNL     1      45.199   2.738   6.642  0.00  0.00    +0.000 HD
BRANCH   7   9
ATOM      9  C   UNL     1      47.200   3.048   7.018  0.00  0.00    +0.000 C 
ATOM     10  C   UNL     1      47.510   2.920   5.512  0.00  0.00    +0.000 C 
ATOM     11  N   UNL     1      48.370   1.756   5.802  0.00  0.00    +0.000 NA
ATOM     12  C   UNL     1      47.686   1.591   7.110  0.00  0.00    +0.000 C 
ATOM     13  H   UNL     1      49.355   2.005   5.893  0.00  0.00    +0.000 HD
ENDBRANCH   7   9
ENDBRANCH   3   7
BRANCH   1  14
ATOM     14  C   UNL     1      44.411   6.026  11.032  0.00  0.00    +0.000 C 
BRANCH  14  15
ATOM     15  C   UNL     1      44.679   5.948  12.530  0.00  0.00    +0.000 C 
BRANCH  15  20
ATOM     16  C   UNL     1      49.237   8.245  12.545  0.00  0.00    +0.000 A 
ATOM     17  C   UNL     1      47.971   8.705  12.212  0.00  0.00    +0.000 A 
ATOM     18  C   UNL     1      46.885   7.838  12.299  0.00  0.00    +0.000 A 
ATOM     19  C   UNL     1      47.081   6.522  12.713  0.00  0.00    +0.000 A 
ATOM     20  N   UNL     1      46.057   5.615  12.820  0.00  0.00    +0.000 N 
ATOM     21  N   UNL     1      48.305   6.064  13.035  0.00  0.00    +0.000 NA
ATOM     22  C   UNL     1      49.352   6.926  12.949  0.00  0.00    +0.000 A 
ATOM     23  H   UNL     1      46.345   4.686  13.103  0.00  0.00    +0.000 HD
BRANCH  16  25
ATOM     24  N   UNL     1      51.315   9.779  12.425  0.00  0.00    +0.000 NA
ATOM     25  C   UNL     1      50.380   9.096  12.473  0.00  0.00    +0.000 C 
ENDBRANCH  16  25
ENDBRANCH  15  20
ENDBRANCH  14  15
ENDBRANCH   1  14
TORSDOF 6
ENDMDL
MODEL 9
REMARK VINA RESULT:    -5.577      2.583      7.974
REMARK INTER + INTRA:          -8.414
REMARK INTER:                  -7.960
REMARK INTRA:                  -0.453
REMARK UNBOUND:                -0.881
REMARK  Name = 
REMARK  6 active torsions:
REMARK  status: ('A' for Active; 'I' for Inactive)
REMARK    1  A    between atoms: C_2  and  C_3
REMARK    2  A    between atoms: N_7  and  C_8
REMARK    3  A    between atoms: C_8  and  C_9
REMARK    4  A    between atoms: C_9  and  C_10
REMARK    5  A    between atoms: C_12  and  N_13
REMARK    6  A    between atoms: N_13  and  C_14
REMARK                            x       y       z     vdW  Elec       q    Type
REMARK                         _______ _______ _______ _____ _____    ______ ____
ROOT
ATOM      1  C   UNL     1      46.905   4.806  14.180  0.00  0.00    +0.000 A 
ATOM      2  C   UNL     1      45.628   4.940  13.676  0.00  0.00    +0.000 A 
ATOM      3  C   UNL     1      45.357   6.059  12.909  0.00  0.00    +0.000 A 
ATOM      4  N   UNL     1      46.286   6.985  12.640  0.00  0.00    +0.000 NA
ATOM      5  C   UNL     1      47.509   6.750  13.137  0.00  0.00    +0.000 A 
ATOM      6  N   UNL     1      47.870   5.706  13.902  0.00  0.00    +0.000 NA
ENDROOT
BRANCH   3   7
ATOM      7  N   UNL     1      44.040   6.203  12.429  0.00  0.00    +0.000 N 
ATOM      8  H   UNL     1      43.397   6.138  13.215  0.00  0.00    +0.000 HD
BRANCH   7   9
ATOM      9  C   UNL     1      43.546   5.570  11.240  0.00  0.00    +0.000 C 
ATOM     10  C   UNL     1      42.947   4.181  11.545  0.00  0.00    +0.000 C 
ATOM     11  N   UNL     1      43.642   3.637  10.362  0.00  0.00    +0.000 NA
ATOM     12  C   UNL     1      44.567   4.800  10.386  0.00  0.00    +0.000 C 
ATOM     13  H   UNL     1      43.050   3.613   9.532  0.00  0.00    +0.000 HD
ENDBRANCH   7   9
ENDBRANCH   3   7
BRANCH   1  14
ATOM     14  C   UNL     1      47.222   3.640  15.089  0.00  0.00    +0.000 C 
BRANCH  14  15
ATOM     15  C   UNL     1      47.291   4.048  16.556  0.00  0.00    +0.000 C 
BRANCH  15  20
ATOM     16  C   UNL     1      51.982   2.393  17.696  0.00  0.00    +0.000 A 
ATOM     17  C   UNL     1      50.810   1.714  17.395  0.00  0.00    +0.000 A 
ATOM     18  C   UNL     1      49.652   2.438  17.124  0.00  0.00    +0.000 A 
ATOM     19  C   UNL     1      49.682   3.831  17.162  0.00  0.00    +0.000 A 
ATOM     20  N   UNL     1      48.579   4.606  16.906  0.00  0.00    +0.000 N 
ATOM     21  N   UNL     1      50.813   4.500  17.457  0.00  0.00    +0.000 NA
ATOM     22  C   UNL     1      51.934   3.776  17.713  0.00  0.00    +0.000 A 
ATOM     23  H   UNL     1      48.735   5.603  16.998  0.00  0.00    +0.000 HD
BRANCH  16  25
ATOM     24  N   UNL     1      54.180   1.137  18.222  0.00  0.00    +0.000 NA
ATOM     25  C   UNL     1      53.194   1.694  17.981  0.00  0.00    +0.000 C 
ENDBRANCH  16  25
ENDBRANCH  15  20
ENDBRANCH  14  15
ENDBRANCH   1  14
TORSDOF 6
ENDMDL
