MODEL 1
REMARK VINA RESULT:    -8.180      0.000      0.000
REMARK INTER + INTRA:         -13.097
REMARK INTER:                 -12.005
REMARK INTRA:                  -1.092
REMARK UNBOUND:                -1.092
REMARK  Name = 
REMARK  9 active torsions:
REMARK  status: ('A' for Active; 'I' for Inactive)
REMARK    1  A    between atoms: C_1  and  C_2
REMARK    2  A    between atoms: C_2  and  N_3
REMARK    3  A    between atoms: N_3  and  C_4
REMARK    4  A    between atoms: N_3  and  C_11
REMARK    5  A    between atoms: C_4  and  C_5
REMARK    6  A    between atoms: C_11  and  C_12
REMARK    7  A    between atoms: C_15  and  C_16
REMARK    8  A    between atoms: C_16  and  N_17
REMARK    9  A    between atoms: C_18  and  C_20
REMARK                            x       y       z     vdW  Elec       q    Type
REMARK                         _______ _______ _______ _____ _____    ______ ____
ROOT
ATOM      1  C   UNL     1      45.050   6.390  11.196  0.00  0.00    +0.000 A 
ATOM      2  N   UNL     1      46.279   5.873  11.396  0.00  0.00    +0.000 NA
ATOM      3  C   UNL     1      47.111   6.583  12.179  0.00  0.00    +0.000 A 
ATOM      4  C   UNL     1      46.777   7.784  12.769  0.00  0.00    +0.000 A 
ATOM      5  C   UNL     1      45.521   8.256  12.449  0.00  0.00    +0.000 A 
ATOM      6  N   UNL     1      44.639   7.583  11.682  0.00  0.00    +0.000 NA
ENDROOT
BRANCH   1   7
ATOM      7  C   UNL     1      44.021   5.530  10.467  0.00  0.00    +0.000 C 
BRANCH   7   8
ATOM      8  N   UNL     1      44.487   4.154  10.104  0.00  0.00    +0.000 NA
BRANCH   8  10
ATOM      9  C   UNL     1      43.955   3.073  12.330  0.00  0.00    +0.000 C 
ATOM     10  C   UNL     1      43.680   3.152  10.831  0.00  0.00    +0.000 C 
ENDBRANCH   8  10
BRANCH   8  11
ATOM     11  C   UNL     1      44.418   3.956   8.646  0.00  0.00    +0.000 C 
BRANCH  11  12
ATOM     12  C   UNL     1      45.491   3.059   8.074  0.00  0.00    +0.000 A 
ATOM     13  C   UNL     1      46.449   3.527   7.164  0.00  0.00    +0.000 A 
ATOM     14  C   UNL     1      47.451   2.672   6.715  0.00  0.00    +0.000 A 
ATOM     15  C   UNL     1      47.467   1.371   7.187  0.00  0.00    +0.000 A 
ATOM     16  N   UNL     1      46.557   0.877   8.056  0.00  0.00    +0.000 NA
ATOM     17  C   UNL     1      45.599   1.731   8.478  0.00  0.00    +0.000 A 
ENDBRANCH  11  12
ENDBRANCH   8  11
ENDBRANCH   7   8
ENDBRANCH   1   7
BRANCH   4  18
ATOM     18  C   UNL     1      47.707   8.504  13.683  0.00  0.00    +0.000 C 
BRANCH  18  19
ATOM     19  N   UNL     1      47.845   7.845  14.955  0.00  0.00    +0.000 N 
ATOM     20  C   UNL     1      48.979   7.131  15.252  0.00  0.00    +0.000 C 
ATOM     21  O   UNL     1      49.893   7.014  14.439  0.00  0.00    +0.000 OA
ATOM     22  H   UNL     1      47.223   8.130  15.708  0.00  0.00    +0.000 HD
BRANCH  20  23
ATOM     23  C   UNL     1      49.018   6.451  16.554  0.00  0.00    +0.000 A 
ATOM     24  C   UNL     1      49.755   6.995  17.598  0.00  0.00    +0.000 A 
ATOM     25  S   UNL     1      49.900   5.953  18.942  0.00  0.00    +0.000 S 
ATOM     26  C   UNL     1      48.942   4.765  18.191  0.00  0.00    +0.000 A 
ATOM     27  N   UNL     1      48.739   3.551  18.767  0.00  0.00    +0.000 NA
ATOM     28  C   UNL     1      47.961   2.766  18.098  0.00  0.00    +0.000 A 
ATOM     29  N   UNL     1      47.332   3.101  16.926  0.00  0.00    +0.000 N 
ATOM     30  C   UNL     1      47.475   4.331  16.334  0.00  0.00    +0.000 A 
ATOM     31  O   UNL     1      46.817   4.653  15.350  0.00  0.00    +0.000 OA
ATOM     32  C   UNL     1      48.432   5.205  16.983  0.00  0.00    +0.000 A 
ATOM     33  H   UNL     1      46.677   2.468  16.492  0.00  0.00    +0.000 HD
ENDBRANCH  20  23
ENDBRANCH  18  19
ENDBRANCH   4  18
TORSDOF 8
ENDMDL
MODEL 2
REMARK VINA RESULT:    -7.014      3.203      5.098
REMARK INTER + INTRA:         -11.386
REMARK INTER:                 -10.353
REMARK INTRA:                  -1.033
REMARK UNBOUND:                -1.092
REMARK  Name = 
REMARK  9 active torsions:
REMARK  status: ('A' for Active; 'I' for Inactive)
REMARK    1  A    between atoms: C_1  and  C_2
REMARK    2  A    between atoms: C_2  and  N_3
REMARK    3  A    between atoms: N_3  and  C_4
REMARK    4  A    between atoms: N_3  and  C_11
REMARK    5  A    between atoms: C_4  and  C_5
REMARK    6  A    between atoms: C_11  and  C_12
REMARK    7  A    between atoms: C_15  and  C_16
REMARK    8  A    between atoms: C_16  and  N_17
REMARK    9  A    between atoms: C_18  and  C_20
REMARK                            x       y       z     vdW  Elec       q    Type
REMARK                         _______ _______ _______ _____ _____    ______ ____
ROOT
ATOM      1  C   UNL     1      47.445   5.349  14.191  0.00  0.00    +0.000 A 
ATOM      2  N   UNL     1      48.216   5.940  15.126  0.00  0.00    +0.000 NA
ATOM      3  C   UNL     1      48.410   5.256  16.268  0.00  0.00    +0.000 A 
ATOM      4  C   UNL     1      47.870   4.013  16.521  0.00  0.00    +0.000 A 
ATOM      5  C   UNL     1      47.046   3.526  15.528  0.00  0.00    +0.000 A 
ATOM      6  N   UNL     1      46.825   4.159  14.358  0.00  0.00    +0.000 NA
ENDROOT
BRANCH   1   7
ATOM      7  C   UNL     1      47.352   6.009  12.818  0.00  0.00    +0.000 C 
BRANCH   7   8
ATOM      8  N   UNL     1      45.962   6.167  12.283  0.00  0.00    +0.000 NA
BRANCH   8  10
ATOM      9  C   UNL     1      46.013   8.693  12.427  0.00  0.00    +0.000 C 
ATOM     10  C   UNL     1      45.350   7.386  12.852  0.00  0.00    +0.000 C 
ENDBRANCH   8  10
BRANCH   8  11
ATOM     11  C   UNL     1      45.980   6.204  10.810  0.00  0.00    +0.000 C 
BRANCH  11  12
ATOM     12  C   UNL     1      45.431   4.967  10.137  0.00  0.00    +0.000 A 
ATOM     13  C   UNL     1      45.654   4.694   8.781  0.00  0.00    +0.000 A 
ATOM     14  C   UNL     1      45.176   3.511   8.226  0.00  0.00    +0.000 A 
ATOM     15  C   UNL     1      44.486   2.632   9.043  0.00  0.00    +0.000 A 
ATOM     16  N   UNL     1      44.239   2.861  10.352  0.00  0.00    +0.000 NA
ATOM     17  C   UNL     1      44.720   4.016  10.864  0.00  0.00    +0.000 A 
ENDBRANCH  11  12
ENDBRANCH   8  11
ENDBRANCH   7   8
ENDBRANCH   1   7
BRANCH   4  18
ATOM     18  C   UNL     1      48.165   3.261  17.773  0.00  0.00    +0.000 C 
BRANCH  18  19
ATOM     19  N   UNL     1      49.577   3.095  17.993  0.00  0.00    +0.000 N 
ATOM     20  C   UNL     1      50.314   2.254  17.196  0.00  0.00    +0.000 C 
ATOM     21  O   UNL     1      49.790   1.606  16.293  0.00  0.00    +0.000 OA
ATOM     22  H   UNL     1      50.055   3.790  18.560  0.00  0.00    +0.000 HD
BRANCH  20  23
ATOM     23  C   UNL     1      51.739   2.107  17.518  0.00  0.00    +0.000 A 
ATOM     24  C   UNL     1      52.318   0.845  17.546  0.00  0.00    +0.000 A 
ATOM     25  S   UNL     1      53.901   0.836  18.186  0.00  0.00    +0.000 S 
ATOM     26  C   UNL     1      53.880   2.524  18.398  0.00  0.00    +0.000 A 
ATOM     27  N   UNL     1      54.910   3.174  19.003  0.00  0.00    +0.000 NA
ATOM     28  C   UNL     1      54.770   4.457  19.061  0.00  0.00    +0.000 A 
ATOM     29  N   UNL     1      53.715   5.154  18.530  0.00  0.00    +0.000 N 
ATOM     30  C   UNL     1      52.677   4.541  17.874  0.00  0.00    +0.000 A 
ATOM     31  O   UNL     1      51.801   5.187  17.307  0.00  0.00    +0.000 OA
ATOM     32  C   UNL     1      52.727   3.093  17.887  0.00  0.00    +0.000 A 
ATOM     33  H   UNL     1      53.702   6.163  18.544  0.00  0.00    +0.000 HD
ENDBRANCH  20  23
ENDBRANCH  18  19
ENDBRANCH   4  18
TORSDOF 8
ENDMDL
MODEL 3
REMARK VINA RESULT:    -6.437      3.051      5.304
REMARK INTER + INTRA:         -10.540
REMARK INTER:                  -9.327
REMARK INTRA:                  -1.213
REMARK UNBOUND:                -1.092
REMARK  Name = 
REMARK  9 active torsions:
REMARK  status: ('A' for Active; 'I' for Inactive)
REMARK    1  A    between atoms: C_1  and  C_2
REMARK    2  A    between atoms: C_2  and  N_3
REMARK    3  A    between atoms: N_3  and  C_4
REMARK    4  A    between atoms: N_3  and  C_11
REMARK    5  A    between atoms: C_4  and  C_5
REMARK    6  A    between atoms: C_11  and  C_12
REMARK    7  A    between atoms: C_15  and  C_16
REMARK    8  A    between atoms: C_16  and  N_17
REMARK    9  A    between atoms: C_18  and  C_20
REMARK                            x       y       z     vdW  Elec       q    Type
REMARK                         _______ _______ _______ _____ _____    ______ ____
ROOT
ATOM      1  C   UNL     1      47.045   4.528  14.388  0.00  0.00    +0.000 A 
ATOM      2  N   UNL     1      47.831   5.576  14.069  0.00  0.00    +0.000 NA
ATOM      3  C   UNL     1      48.519   6.142  15.076  0.00  0.00    +0.000 A 
ATOM      4  C   UNL     1      48.459   5.714  16.385  0.00  0.00    +0.000 A 
ATOM      5  C   UNL     1      47.579   4.678  16.616  0.00  0.00    +0.000 A 
ATOM      6  N   UNL     1      46.873   4.063  15.646  0.00  0.00    +0.000 NA
ENDROOT
BRANCH   1   7
ATOM      7  C   UNL     1      46.392   3.749  13.249  0.00  0.00    +0.000 C 
BRANCH   7   8
ATOM      8  N   UNL     1      45.611   4.578  12.279  0.00  0.00    +0.000 NA
BRANCH   8  10
ATOM      9  C   UNL     1      43.371   3.532  11.740  0.00  0.00    +0.000 C 
ATOM     10  C   UNL     1      44.845   3.693  11.378  0.00  0.00    +0.000 C 
ENDBRANCH   8  10
BRANCH   8  11
ATOM     11  C   UNL     1      44.732   5.517  12.997  0.00  0.00    +0.000 C 
BRANCH  11  12
ATOM     12  C   UNL     1      44.793   6.946  12.509  0.00  0.00    +0.000 A 
ATOM     13  C   UNL     1      45.699   7.876  13.036  0.00  0.00    +0.000 A 
ATOM     14  C   UNL     1      45.753   9.163  12.508  0.00  0.00    +0.000 A 
ATOM     15  C   UNL     1      44.899   9.485  11.468  0.00  0.00    +0.000 A 
ATOM     16  N   UNL     1      44.003   8.622  10.938  0.00  0.00    +0.000 NA
ATOM     17  C   UNL     1      43.976   7.379  11.468  0.00  0.00    +0.000 A 
ENDBRANCH  11  12
ENDBRANCH   8  11
ENDBRANCH   7   8
ENDBRANCH   1   7
BRANCH   4  18
ATOM     18  C   UNL     1      49.290   6.328  17.459  0.00  0.00    +0.000 C 
BRANCH  18  19
ATOM     19  N   UNL     1      50.176   5.378  18.078  0.00  0.00    +0.000 N 
ATOM     20  C   UNL     1      51.491   5.292  17.691  0.00  0.00    +0.000 C 
ATOM     21  O   UNL     1      51.941   6.004  16.797  0.00  0.00    +0.000 OA
ATOM     22  H   UNL     1      49.889   4.966  18.963  0.00  0.00    +0.000 HD
BRANCH  20  23
ATOM     23  C   UNL     1      52.313   4.264  18.342  0.00  0.00    +0.000 A 
ATOM     24  C   UNL     1      53.274   4.631  19.275  0.00  0.00    +0.000 A 
ATOM     25  S   UNL     1      54.303   3.348  19.732  0.00  0.00    +0.000 S 
ATOM     26  C   UNL     1      53.465   2.252  18.737  0.00  0.00    +0.000 A 
ATOM     27  N   UNL     1      53.889   0.970  18.582  0.00  0.00    +0.000 NA
ATOM     28  C   UNL     1      53.133   0.246  17.825  0.00  0.00    +0.000 A 
ATOM     29  N   UNL     1      51.967   0.674  17.245  0.00  0.00    +0.000 N 
ATOM     30  C   UNL     1      51.480   1.947  17.411  0.00  0.00    +0.000 A 
ATOM     31  O   UNL     1      50.381   2.278  16.980  0.00  0.00    +0.000 OA
ATOM     32  C   UNL     1      52.354   2.834  18.153  0.00  0.00    +0.000 A 
ATOM     33  H   UNL     1      51.383   0.036  16.725  0.00  0.00    +0.000 HD
ENDBRANCH  20  23
ENDBRANCH  18  19
ENDBRANCH   4  18
TORSDOF 8
ENDMDL
MODEL 4
REMARK VINA RESULT:    -6.059      4.074      5.610
REMARK INTER + INTRA:          -9.984
REMARK INTER:                  -9.250
REMARK INTRA:                  -0.734
REMARK UNBOUND:                -1.092
REMARK  Name = 
REMARK  9 active torsions:
REMARK  status: ('A' for Active; 'I' for Inactive)
REMARK    1  A    between atoms: C_1  and  C_2
REMARK    2  A    between atoms: C_2  and  N_3
REMARK    3  A    between atoms: N_3  and  C_4
REMARK    4  A    between atoms: N_3  and  C_11
REMARK    5  A    between atoms: C_4  and  C_5
REMARK    6  A    between atoms: C_11  and  C_12
REMARK    7  A    between atoms: C_15  and  C_16
REMARK    8  A    between atoms: C_16  and  N_17
REMARK    9  A    between atoms: C_18  and  C_20
REMARK                            x       y       z     vdW  Elec       q    Type
REMARK                         _______ _______ _______ _____ _____    ______ ____
ROOT
ATOM      1  C   UNL     1      45.799   6.151  12.868  0.00  0.00    +0.000 A 
ATOM      2  N   UNL     1      47.147   6.196  12.834  0.00  0.00    +0.000 NA
ATOM      3  C   UNL     1      47.708   7.418  12.790  0.00  0.00    +0.000 A 
ATOM      4  C   UNL     1      46.990   8.595  12.775  0.00  0.00    +0.000 A 
ATOM      5  C   UNL     1      45.620   8.437  12.747  0.00  0.00    +0.000 A 
ATOM      6  N   UNL     1      45.001   7.241  12.803  0.00  0.00    +0.000 NA
ENDROOT
BRANCH   1   7
ATOM      7  C   UNL     1      45.133   4.798  13.102  0.00  0.00    +0.000 C 
BRANCH   7   8
ATOM      8  N   UNL     1      44.463   4.205  11.902  0.00  0.00    +0.000 NA
BRANCH   8  10
ATOM      9  C   UNL     1      42.295   5.505  11.773  0.00  0.00    +0.000 C 
ATOM     10  C   UNL     1      42.999   4.194  12.110  0.00  0.00    +0.000 C 
ENDBRANCH   8  10
BRANCH   8  11
ATOM     11  C   UNL     1      44.834   4.949  10.686  0.00  0.00    +0.000 C 
BRANCH  11  12
ATOM     12  C   UNL     1      45.341   4.094   9.547  0.00  0.00    +0.000 A 
ATOM     13  C   UNL     1      45.968   4.646   8.422  0.00  0.00    +0.000 A 
ATOM     14  C   UNL     1      46.469   3.807   7.430  0.00  0.00    +0.000 A 
ATOM     15  C   UNL     1      46.327   2.440   7.590  0.00  0.00    +0.000 A 
ATOM     16  N   UNL     1      45.719   1.868   8.653  0.00  0.00    +0.000 NA
ATOM     17  C   UNL     1      45.247   2.706   9.602  0.00  0.00    +0.000 A 
ENDBRANCH  11  12
ENDBRANCH   8  11
ENDBRANCH   7   8
ENDBRANCH   1   7
BRANCH   4  18
ATOM     18  C   UNL     1      47.654   9.928  12.793  0.00  0.00    +0.000 C 
BRANCH  18  19
ATOM     19  N   UNL     1      49.029   9.861  12.370  0.00  0.00    +0.000 N 
ATOM     20  C   UNL     1      49.435  10.480  11.214  0.00  0.00    +0.000 C 
ATOM     21  O   UNL     1      48.640  11.085  10.499  0.00  0.00    +0.000 OA
ATOM     22  H   UNL     1      49.725   9.582  13.057  0.00  0.00    +0.000 HD
BRANCH  20  23
ATOM     23  C   UNL     1      50.845  10.323  10.832  0.00  0.00    +0.000 A 
ATOM     24  C   UNL     1      51.626  11.445  10.585  0.00  0.00    +0.000 A 
ATOM     25  S   UNL     1      53.149  11.077   9.908  0.00  0.00    +0.000 S 
ATOM     26  C   UNL     1      52.832   9.407   9.971  0.00  0.00    +0.000 A 
ATOM     27  N   UNL     1      53.702   8.501   9.451  0.00  0.00    +0.000 NA
ATOM     28  C   UNL     1      53.344   7.269   9.604  0.00  0.00    +0.000 A 
ATOM     29  N   UNL     1      52.218   6.858  10.270  0.00  0.00    +0.000 N 
ATOM     30  C   UNL     1      51.337   7.738  10.848  0.00  0.00    +0.000 A 
ATOM     31  O   UNL     1      50.398   7.350  11.536  0.00  0.00    +0.000 OA
ATOM     32  C   UNL     1      51.630   9.135  10.600  0.00  0.00    +0.000 A 
ATOM     33  H   UNL     1      52.035   5.878  10.420  0.00  0.00    +0.000 HD
ENDBRANCH  20  23
ENDBRANCH  18  19
ENDBRANCH   4  18
TORSDOF 8
ENDMDL
MODEL 5
REMARK VINA RESULT:    -5.922      2.106      2.414
REMARK INTER + INTRA:          -9.784
REMARK INTER:                  -9.513
REMARK INTRA:                  -0.271
REMARK UNBOUND:                -1.092
REMARK  Name = 
REMARK  9 active torsions:
REMARK  status: ('A' for Active; 'I' for Inactive)
REMARK    1  A    between atoms: C_1  and  C_2
REMARK    2  A    between atoms: C_2  and  N_3
REMARK    3  A    between atoms: N_3  and  C_4
REMARK    4  A    between atoms: N_3  and  C_11
REMARK    5  A    between atoms: C_4  and  C_5
REMARK    6  A    between atoms: C_11  and  C_12
REMARK    7  A    between atoms: C_15  and  C_16
REMARK    8  A    between atoms: C_16  and  N_17
REMARK    9  A    between atoms: C_18  and  C_20
REMARK                            x       y       z     vdW  Elec       q    Type
REMARK                         _______ _______ _______ _____ _____    ______ ____
ROOT
ATOM      1  C   UNL     1      46.000   5.288  12.287  0.00  0.00    +0.000 A 
ATOM      2  N   UNL     1      47.042   4.851  13.022  0.00  0.00    +0.000 NA
ATOM      3  C   UNL     1      48.027   5.737  13.258  0.00  0.00    +0.000 A 
ATOM      4  C   UNL     1      48.021   7.035  12.794  0.00  0.00    +0.000 A 
ATOM      5  C   UNL     1      46.942   7.361  11.999  0.00  0.00    +0.000 A 
ATOM      6  N   UNL     1      45.920   6.521  11.739  0.00  0.00    +0.000 NA
ENDROOT
BRANCH   1   7
ATOM      7  C   UNL     1      44.785   4.373  12.152  0.00  0.00    +0.000 C 
BRANCH   7   8
ATOM      8  N   UNL     1      44.211   4.280  10.773  0.00  0.00    +0.000 NA
BRANCH   8  10
ATOM      9  C   UNL     1      42.384   5.482  12.047  0.00  0.00    +0.000 C 
ATOM     10  C   UNL     1      42.978   5.092  10.696  0.00  0.00    +0.000 C 
ENDBRANCH   8  10
BRANCH   8  11
ATOM     11  C   UNL     1      45.205   4.705   9.773  0.00  0.00    +0.000 C 
BRANCH  11  12
ATOM     12  C   UNL     1      45.691   3.608   8.854  0.00  0.00    +0.000 A 
ATOM     13  C   UNL     1      46.394   3.881   7.672  0.00  0.00    +0.000 A 
ATOM     14  C   UNL     1      46.870   2.830   6.893  0.00  0.00    +0.000 A 
ATOM     15  C   UNL     1      46.630   1.534   7.317  0.00  0.00    +0.000 A 
ATOM     16  N   UNL     1      45.948   1.228   8.444  0.00  0.00    +0.000 NA
ATOM     17  C   UNL     1      45.501   2.268   9.182  0.00  0.00    +0.000 A 
ENDBRANCH  11  12
ENDBRANCH   8  11
ENDBRANCH   7   8
ENDBRANCH   1   7
BRANCH   4  18
ATOM     18  C   UNL     1      49.102   8.003  13.134  0.00  0.00    +0.000 C 
BRANCH  18  19
ATOM     19  N   UNL     1      50.123   7.415  13.961  0.00  0.00    +0.000 N 
ATOM     20  C   UNL     1      50.109   7.594  15.322  0.00  0.00    +0.000 C 
ATOM     21  O   UNL     1      49.244   8.274  15.869  0.00  0.00    +0.000 OA
ATOM     22  H   UNL     1      50.687   6.669  13.562  0.00  0.00    +0.000 HD
BRANCH  20  23
ATOM     23  C   UNL     1      51.213   6.999  16.086  0.00  0.00    +0.000 A 
ATOM     24  C   UNL     1      52.473   7.585  16.055  0.00  0.00    +0.000 A 
ATOM     25  S   UNL     1      53.686   6.627  16.779  0.00  0.00    +0.000 S 
ATOM     26  C   UNL     1      52.558   5.425  17.201  0.00  0.00    +0.000 A 
ATOM     27  N   UNL     1      52.950   4.258  17.778  0.00  0.00    +0.000 NA
ATOM     28  C   UNL     1      51.980   3.457  18.074  0.00  0.00    +0.000 A 
ATOM     29  N   UNL     1      50.651   3.736  17.888  0.00  0.00    +0.000 N 
ATOM     30  C   UNL     1      50.210   4.920  17.351  0.00  0.00    +0.000 A 
ATOM     31  O   UNL     1      49.017   5.199  17.297  0.00  0.00    +0.000 OA
ATOM     32  C   UNL     1      51.264   5.802  16.891  0.00  0.00    +0.000 A 
ATOM     33  H   UNL     1      49.938   3.099  18.210  0.00  0.00    +0.000 HD
ENDBRANCH  20  23
ENDBRANCH  18  19
ENDBRANCH   4  18
TORSDOF 8
ENDMDL
MODEL 6
REMARK VINA RESULT:    -5.762      2.275      2.761
REMARK INTER + INTRA:          -9.549
REMARK INTER:                 -10.071
REMARK INTRA:                   0.522
REMARK UNBOUND:                -1.092
REMARK  Name = 
REMARK  9 active torsions:
REMARK  status: ('A' for Active; 'I' for Inactive)
REMARK    1  A    between atoms: C_1  and  C_2
REMARK    2  A    between atoms: C_2  and  N_3
REMARK    3  A    between atoms: N_3  and  C_4
REMARK    4  A    between atoms: N_3  and  C_11
REMARK    5  A    between atoms: C_4  and  C_5
REMARK    6  A    between atoms: C_11  and  C_12
REMARK    7  A    between atoms: C_15  and  C_16
REMARK    8  A    between atoms: C_16  and  N_17
REMARK    9  A    between atoms: C_18  and  C_20
REMARK                            x       y       z     vdW  Elec       q    Type
REMARK                         _______ _______ _______ _____ _____    ______ ____
ROOT
ATOM      1  C   UNL     1      45.564   3.858  12.388  0.00  0.00    +0.000 A 
ATOM      2  N   UNL     1      46.458   3.239  13.185  0.00  0.00    +0.000 NA
ATOM      3  C   UNL     1      47.097   4.008  14.085  0.00  0.00    +0.000 A 
ATOM      4  C   UNL     1      46.888   5.364  14.225  0.00  0.00    +0.000 A 
ATOM      5  C   UNL     1      46.003   5.910  13.320  0.00  0.00    +0.000 A 
ATOM      6  N   UNL     1      45.324   5.189  12.405  0.00  0.00    +0.000 NA
ENDROOT
BRANCH   1   7
ATOM      7  C   UNL     1      44.691   2.993  11.483  0.00  0.00    +0.000 C 
BRANCH   7   8
ATOM      8  N   UNL     1      44.794   3.299  10.021  0.00  0.00    +0.000 NA
BRANCH   8  10
ATOM      9  C   UNL     1      45.639   5.567   9.281  0.00  0.00    +0.000 C 
ATOM     10  C   UNL     1      45.969   4.162   9.779  0.00  0.00    +0.000 C 
ENDBRANCH   8  10
BRANCH   8  11
ATOM     11  C   UNL     1      44.864   2.052   9.239  0.00  0.00    +0.000 C 
BRANCH  11  12
ATOM     12  C   UNL     1      45.798   2.099   8.051  0.00  0.00    +0.000 A 
ATOM     13  C   UNL     1      45.741   3.123   7.097  0.00  0.00    +0.000 A 
ATOM     14  C   UNL     1      46.663   3.149   6.055  0.00  0.00    +0.000 A 
ATOM     15  C   UNL     1      47.617   2.149   5.995  0.00  0.00    +0.000 A 
ATOM     16  N   UNL     1      47.701   1.137   6.888  0.00  0.00    +0.000 NA
ATOM     17  C   UNL     1      46.795   1.140   7.891  0.00  0.00    +0.000 A 
ENDBRANCH  11  12
ENDBRANCH   8  11
ENDBRANCH   7   8
ENDBRANCH   1   7
BRANCH   4  18
ATOM     18  C   UNL     1      47.570   6.165  15.281  0.00  0.00    +0.000 C 
BRANCH  18  19
ATOM     19  N   UNL     1      48.644   5.443  15.909  0.00  0.00    +0.000 N 
ATOM     20  C   UNL     1      48.992   5.701  17.212  0.00  0.00    +0.000 C 
ATOM     21  O   UNL     1      48.415   6.565  17.868  0.00  0.00    +0.000 OA
ATOM     22  H   UNL     1      48.957   4.580  15.471  0.00  0.00    +0.000 HD
BRANCH  20  23
ATOM     23  C   UNL     1      50.129   4.951  17.761  0.00  0.00    +0.000 A 
ATOM     24  C   UNL     1      51.107   5.612  18.494  0.00  0.00    +0.000 A 
ATOM     25  S   UNL     1      52.474   4.647  18.830  0.00  0.00    +0.000 S 
ATOM     26  C   UNL     1      51.780   3.302  18.051  0.00  0.00    +0.000 A 
ATOM     27  N   UNL     1      52.473   2.143  17.890  0.00  0.00    +0.000 NA
ATOM     28  C   UNL     1      51.805   1.200  17.312  0.00  0.00    +0.000 A 
ATOM     29  N   UNL     1      50.494   1.295  16.922  0.00  0.00    +0.000 N 
ATOM     30  C   UNL     1      49.746   2.431  17.106  0.00  0.00    +0.000 A 
ATOM     31  O   UNL     1      48.546   2.460  16.855  0.00  0.00    +0.000 OA
ATOM     32  C   UNL     1      50.485   3.558  17.640  0.00  0.00    +0.000 A 
ATOM     33  H   UNL     1      50.008   0.496  16.544  0.00  0.00    +0.000 HD
ENDBRANCH  20  23
ENDBRANCH  18  19
ENDBRANCH   4  18
TORSDOF 8
ENDMDL
