MODEL 1
REMARK VINA RESULT:    -8.223      0.000      0.000
REMARK INTER + INTRA:         -12.507
REMARK INTER:                 -11.347
REMARK INTRA:                  -1.159
REMARK UNBOUND:                -1.159
REMARK  Name = 
REMARK  7 active torsions:
REMARK  status: ('A' for Active; 'I' for Inactive)
REMARK    1  A    between atoms: N_1  and  C_2
REMARK    2  A    between atoms: C_2  and  N_3
REMARK    3  A    between atoms: C_2  and  C_16
REMARK    4  A    between atoms: C_4  and  C_6
REMARK    5  A    between atoms: C_19  and  C_20
REMARK    6  A    between atoms: C_20  and  N_21
REMARK    7  A    between atoms: C_22  and  C_24
REMARK                            x       y       z     vdW  Elec       q    Type
REMARK                         _______ _______ _______ _____ _____    ______ ____
ROOT
ATOM      1  C   UNL     1      47.359   7.997  13.410  0.00  0.00    +0.000 C 
ENDROOT
BRANCH   1   2
ATOM      2  C   UNL     1      46.393   7.236  12.525  0.00  0.00    +0.000 A 
ATOM      3  C   UNL     1      45.051   7.101  12.910  0.00  0.00    +0.000 A 
ATOM      4  C   UNL     1      44.150   6.360  12.134  0.00  0.00    +0.000 A 
ATOM      5  C   UNL     1      44.574   5.727  10.959  0.00  0.00    +0.000 A 
ATOM      6  C   UNL     1      45.902   5.893  10.550  0.00  0.00    +0.000 A 
ATOM      7  C   UNL     1      46.801   6.634  11.323  0.00  0.00    +0.000 A 
BRANCH   5   8
ATOM      8  C   UNL     1      43.647   4.833  10.177  0.00  0.00    +0.000 C 
BRANCH   8   9
ATOM      9  N   UNL     1      44.250   4.266   8.998  0.00  0.00    +0.000 N 
ATOM     10  C   UNL     1      44.673   2.957   8.986  0.00  0.00    +0.000 C 
ATOM     11  O   UNL     1      44.616   2.220   9.970  0.00  0.00    +0.000 OA
ATOM     12  H   UNL     1      44.158   4.712   8.089  0.00  0.00    +0.000 HD
BRANCH  10  13
ATOM     13  C   UNL     1      45.313   2.496   7.671  0.00  0.00    +0.000 C 
ATOM     14  C   UNL     1      46.478   1.558   7.913  0.00  0.00    +0.000 C 
ATOM     15  C   UNL     1      47.229   1.615   6.598  0.00  0.00    +0.000 C 
ATOM     16  C   UNL     1      46.964   3.018   6.066  0.00  0.00    +0.000 C 
ATOM     17  N   UNL     1      45.954   3.624   6.944  0.00  0.00    +0.000 NA
ATOM     18  H   UNL     1      45.252   4.112   6.388  0.00  0.00    +0.000 HD
ENDBRANCH  10  13
ENDBRANCH   8   9
ENDBRANCH   5   8
ENDBRANCH   1   2
BRANCH   1  19
ATOM     19  N   UNL     1      47.638   7.301  14.630  0.00  0.00    +0.000 N 
ATOM     20  C   UNL     1      48.898   6.836  14.917  0.00  0.00    +0.000 C 
ATOM     21  O   UNL     1      49.851   7.031  14.167  0.00  0.00    +0.000 OA
ATOM     22  H   UNL     1      46.848   6.859  15.090  0.00  0.00    +0.000 HD
BRANCH  20  23
ATOM     23  C   UNL     1      49.083   6.161  16.206  0.00  0.00    +0.000 A 
ATOM     24  C   UNL     1      50.043   6.639  17.090  0.00  0.00    +0.000 A 
ATOM     25  S   UNL     1      50.152   5.745  18.535  0.00  0.00    +0.000 S 
ATOM     26  C   UNL     1      48.944   4.664  18.020  0.00  0.00    +0.000 A 
ATOM     27  N   UNL     1      48.582   3.602  18.790  0.00  0.00    +0.000 NA
ATOM     28  C   UNL     1      47.675   2.849  18.262  0.00  0.00    +0.000 A 
ATOM     29  N   UNL     1      47.081   3.074  17.049  0.00  0.00    +0.000 N 
ATOM     30  C   UNL     1      47.383   4.160  16.259  0.00  0.00    +0.000 A 
ATOM     31  O   UNL     1      46.783   4.384  15.209  0.00  0.00    +0.000 OA
ATOM     32  C   UNL     1      48.431   5.009  16.782  0.00  0.00    +0.000 A 
ATOM     33  H   UNL     1      46.357   2.459  16.707  0.00  0.00    +0.000 HD
ENDBRANCH  20  23
ENDBRANCH   1  19
BRANCH   1  34
ATOM     34  N   UNL     1      46.803   9.277  13.811  0.00  0.00    +0.000 NA
ATOM     35  H   UNL     1      45.792   9.214  13.699  0.00  0.00    +0.000 HD
ATOM     36  H   UNL     1      47.115   9.984  13.154  0.00  0.00    +0.000 HD
ENDBRANCH   1  34
TORSDOF 7
ENDMDL
MODEL 2
REMARK VINA RESULT:    -8.218      2.140      3.748
REMARK INTER + INTRA:         -12.500
REMARK INTER:                 -11.346
REMARK INTRA:                  -1.154
REMARK UNBOUND:                -1.159
REMARK  Name = 
REMARK  7 active torsions:
REMARK  status: ('A' for Active; 'I' for Inactive)
REMARK    1  A    between atoms: N_1  and  C_2
REMARK    2  A    between atoms: C_2  and  N_3
REMARK    3  A    between atoms: C_2  and  C_16
REMARK    4  A    between atoms: C_4  and  C_6
REMARK    5  A    between atoms: C_19  and  C_20
REMARK    6  A    between atoms: C_20  and  N_21
REMARK    7  A    between atoms: C_22  and  C_24
REMARK                            x       y       z     vdW  Elec       q    Type
REMARK                         _______ _______ _______ _____ _____    ______ ____
ROOT
ATOM      1  C   UNL     1      46.764   4.374  14.949  0.00  0.00    +0.000 C 
ENDROOT
BRANCH   1   2
ATOM      2  C   UNL     1      45.936   4.454  13.684  0.00  0.00    +0.000 A 
ATOM      3  C   UNL     1      45.665   3.289  12.950  0.00  0.00    +0.000 A 
ATOM      4  C   UNL     1      44.944   3.345  11.750  0.00  0.00    +0.000 A 
ATOM      5  C   UNL     1      44.484   4.570  11.250  0.00  0.00    +0.000 A 
ATOM      6  C   UNL     1      44.717   5.729  12.000  0.00  0.00    +0.000 A 
ATOM      7  C   UNL     1      45.435   5.674  13.198  0.00  0.00    +0.000 A 
BRANCH   5   8
ATOM      8  C   UNL     1      43.809   4.659   9.906  0.00  0.00    +0.000 C 
BRANCH   8   9
ATOM      9  N   UNL     1      44.381   3.784   8.914  0.00  0.00    +0.000 N 
ATOM     10  C   UNL     1      45.543   4.126   8.262  0.00  0.00    +0.000 C 
ATOM     11  O   UNL     1      46.126   5.196   8.439  0.00  0.00    +0.000 OA
ATOM     12  H   UNL     1      44.102   2.809   8.844  0.00  0.00    +0.000 HD
BRANCH  10  13
ATOM     13  C   UNL     1      46.023   3.109   7.219  0.00  0.00    +0.000 C 
ATOM     14  C   UNL     1      46.364   1.776   7.853  0.00  0.00    +0.000 C 
ATOM     15  C   UNL     1      47.231   1.120   6.797  0.00  0.00    +0.000 C 
ATOM     16  C   UNL     1      47.926   2.280   6.096  0.00  0.00    +0.000 C 
ATOM     17  N   UNL     1      47.315   3.515   6.605  0.00  0.00    +0.000 NA
ATOM     18  H   UNL     1      47.136   4.163   5.838  0.00  0.00    +0.000 HD
ENDBRANCH  10  13
ENDBRANCH   8   9
ENDBRANCH   5   8
ENDBRANCH   1   2
BRANCH   1  19
ATOM     19  N   UNL     1      47.544   5.556  15.161  0.00  0.00    +0.000 N 
ATOM     20  C   UNL     1      48.344   5.697  16.270  0.00  0.00    +0.000 C 
ATOM     21  O   UNL     1      48.461   4.805  17.106  0.00  0.00    +0.000 OA
ATOM     22  H   UNL     1      47.231   6.397  14.687  0.00  0.00    +0.000 HD
BRANCH  20  23
ATOM     23  C   UNL     1      49.123   6.935  16.378  0.00  0.00    +0.000 A 
ATOM     24  C   UNL     1      49.346   7.488  17.633  0.00  0.00    +0.000 A 
ATOM     25  S   UNL     1      50.252   8.929  17.598  0.00  0.00    +0.000 S 
ATOM     26  C   UNL     1      50.353   8.887  15.900  0.00  0.00    +0.000 A 
ATOM     27  N   UNL     1      50.971   9.884  15.212  0.00  0.00    +0.000 NA
ATOM     28  C   UNL     1      50.946   9.738  13.929  0.00  0.00    +0.000 A 
ATOM     29  N   UNL     1      50.382   8.676  13.274  0.00  0.00    +0.000 N 
ATOM     30  C   UNL     1      49.786   7.623  13.932  0.00  0.00    +0.000 A 
ATOM     31  O   UNL     1      49.353   6.644  13.328  0.00  0.00    +0.000 OA
ATOM     32  C   UNL     1      49.743   7.763  15.371  0.00  0.00    +0.000 A 
ATOM     33  H   UNL     1      50.421   8.610  12.267  0.00  0.00    +0.000 HD
ENDBRANCH  20  23
ENDBRANCH   1  19
BRANCH   1  34
ATOM     34  N   UNL     1      47.720   3.283  14.880  0.00  0.00    +0.000 NA
ATOM     35  H   UNL     1      48.524   3.623  14.355  0.00  0.00    +0.000 HD
ATOM     36  H   UNL     1      47.318   2.536  14.327  0.00  0.00    +0.000 HD
ENDBRANCH   1  34
TORSDOF 7
ENDMDL
MODEL 3
REMARK VINA RESULT:    -7.986      2.515      3.633
REMARK INTER + INTRA:         -12.179
REMARK INTER:                 -11.172
REMARK INTRA:                  -1.007
REMARK UNBOUND:                -1.159
REMARK  Name = 
REMARK  7 active torsions:
REMARK  status: ('A' for Active; 'I' for Inactive)
REMARK    1  A    between atoms: N_1  and  C_2
REMARK    2  A    between atoms: C_2  and  N_3
REMARK    3  A    between atoms: C_2  and  C_16
REMARK    4  A    between atoms: C_4  and  C_6
REMARK    5  A    between atoms: C_19  and  C_20
REMARK    6  A    between atoms: C_20  and  N_21
REMARK    7  A    between atoms: C_22  and  C_24
REMARK                            x       y       z     vdW  Elec       q    Type
REMARK                         _______ _______ _______ _____ _____    ______ ____
ROOT
ATOM      1  C   UNL     1      46.770   4.481  14.956  0.00  0.00    +0.000 C 
ENDROOT
BRANCH   1   2
ATOM      2  C   UNL     1      45.941   4.525  13.690  0.00  0.00    +0.000 A 
ATOM      3  C   UNL     1      45.714   3.347  12.961  0.00  0.00    +0.000 A 
ATOM      4  C   UNL     1      44.992   3.371  11.761  0.00  0.00    +0.000 A 
ATOM      5  C   UNL     1      44.488   4.575  11.255  0.00  0.00    +0.000 A 
ATOM      6  C   UNL     1      44.677   5.746  11.999  0.00  0.00    +0.000 A 
ATOM      7  C   UNL     1      45.396   5.723  13.198  0.00  0.00    +0.000 A 
BRANCH   5   8
ATOM      8  C   UNL     1      43.811   4.633   9.910  0.00  0.00    +0.000 C 
BRANCH   8   9
ATOM      9  N   UNL     1      44.394   3.749   8.932  0.00  0.00    +0.000 N 
ATOM     10  C   UNL     1      45.540   4.105   8.260  0.00  0.00    +0.000 C 
ATOM     11  O   UNL     1      46.098   5.192   8.405  0.00  0.00    +0.000 OA
ATOM     12  H   UNL     1      44.138   2.766   8.887  0.00  0.00    +0.000 HD
BRANCH  10  13
ATOM     13  C   UNL     1      46.034   3.076   7.235  0.00  0.00    +0.000 C 
ATOM     14  C   UNL     1      46.381   1.755   7.891  0.00  0.00    +0.000 C 
ATOM     15  C   UNL     1      47.260   1.090   6.851  0.00  0.00    +0.000 C 
ATOM     16  C   UNL     1      47.951   2.245   6.137  0.00  0.00    +0.000 C 
ATOM     17  N   UNL     1      47.327   3.482   6.624  0.00  0.00    +0.000 NA
ATOM     18  H   UNL     1      47.149   4.117   5.846  0.00  0.00    +0.000 HD
ENDBRANCH  10  13
ENDBRANCH   8   9
ENDBRANCH   5   8
ENDBRANCH   1   2
BRANCH   1  19
ATOM     19  N   UNL     1      47.726   5.546  15.013  0.00  0.00    +0.000 N 
ATOM     20  C   UNL     1      48.356   5.880  16.188  0.00  0.00    +0.000 C 
ATOM     21  O   UNL     1      48.165   5.258  17.230  0.00  0.00    +0.000 OA
ATOM     22  H   UNL     1      47.661   6.253  14.287  0.00  0.00    +0.000 HD
BRANCH  20  23
ATOM     23  C   UNL     1      49.337   6.968  16.133  0.00  0.00    +0.000 A 
ATOM     24  C   UNL     1      48.913   8.248  15.795  0.00  0.00    +0.000 A 
ATOM     25  S   UNL     1      50.166   9.401  15.758  0.00  0.00    +0.000 S 
ATOM     26  C   UNL     1      51.329   8.227  16.160  0.00  0.00    +0.000 A 
ATOM     27  N   UNL     1      52.648   8.550  16.244  0.00  0.00    +0.000 NA
ATOM     28  C   UNL     1      53.422   7.555  16.527  0.00  0.00    +0.000 A 
ATOM     29  N   UNL     1      52.995   6.274  16.758  0.00  0.00    +0.000 N 
ATOM     30  C   UNL     1      51.667   5.912  16.728  0.00  0.00    +0.000 A 
ATOM     31  O   UNL     1      51.300   4.775  17.013  0.00  0.00    +0.000 OA
ATOM     32  C   UNL     1      50.762   6.982  16.366  0.00  0.00    +0.000 A 
ATOM     33  H   UNL     1      53.652   5.548  17.002  0.00  0.00    +0.000 HD
ENDBRANCH  20  23
ENDBRANCH   1  19
BRANCH   1  34
ATOM     34  N   UNL     1      47.548   3.257  15.030  0.00  0.00    +0.000 NA
ATOM     35  H   UNL     1      48.290   3.330  14.336  0.00  0.00    +0.000 HD
ATOM     36  H   UNL     1      46.962   2.484  14.735  0.00  0.00    +0.000 HD
ENDBRANCH   1  34
TORSDOF 7
ENDMDL
MODEL 4
REMARK VINA RESULT:    -7.806      4.620      9.472
REMARK INTER + INTRA:         -11.931
REMARK INTER:                 -11.053
REMARK INTRA:                  -0.878
REMARK UNBOUND:                -1.159
REMARK  Name = 
REMARK  7 active torsions:
REMARK  status: ('A' for Active; 'I' for Inactive)
REMARK    1  A    between atoms: N_1  and  C_2
REMARK    2  A    between atoms: C_2  and  N_3
REMARK    3  A    between atoms: C_2  and  C_16
REMARK    4  A    between atoms: C_4  and  C_6
REMARK    5  A    between atoms: C_19  and  C_20
REMARK    6  A    between atoms: C_20  and  N_21
REMARK    7  A    between atoms: C_22  and  C_24
REMARK                            x       y       z     vdW  Elec       q    Type
REMARK                         _______ _______ _______ _____ _____    ______ ____
ROOT
ATOM      1  C   UNL     1      47.415   3.611  16.894  0.00  0.00    +0.000 C 
ENDROOT
BRANCH   1   2
ATOM      2  C   UNL     1      48.896   3.386  17.111  0.00  0.00    +0.000 A 
ATOM      3  C   UNL     1      49.438   2.100  16.959  0.00  0.00    +0.000 A 
ATOM      4  C   UNL     1      50.796   1.857  17.203  0.00  0.00    +0.000 A 
ATOM      5  C   UNL     1      51.643   2.893  17.615  0.00  0.00    +0.000 A 
ATOM      6  C   UNL     1      51.116   4.185  17.729  0.00  0.00    +0.000 A 
ATOM      7  C   UNL     1      49.761   4.428  17.484  0.00  0.00    +0.000 A 
BRANCH   5   8
ATOM      8  C   UNL     1      53.077   2.624  17.992  0.00  0.00    +0.000 C 
BRANCH   8   9
ATOM      9  N   UNL     1      53.284   1.327  18.586  0.00  0.00    +0.000 N 
ATOM     10  C   UNL     1      54.145   0.421  18.012  0.00  0.00    +0.000 C 
ATOM     11  O   UNL     1      54.738   0.631  16.954  0.00  0.00    +0.000 OA
ATOM     12  H   UNL     1      53.011   1.135  19.547  0.00  0.00    +0.000 HD
BRANCH  10  13
ATOM     13  C   UNL     1      54.250  -0.923  18.742  0.00  0.00    +0.000 C 
ATOM     14  C   UNL     1      54.803  -2.008  17.841  0.00  0.00    +0.000 C 
ATOM     15  C   UNL     1      54.384  -3.278  18.555  0.00  0.00    +0.000 C 
ATOM     16  C   UNL     1      53.085  -2.910  19.261  0.00  0.00    +0.000 C 
ATOM     17  N   UNL     1      52.913  -1.459  19.108  0.00  0.00    +0.000 NA
ATOM     18  H   UNL     1      52.612  -1.045  19.991  0.00  0.00    +0.000 HD
ENDBRANCH  10  13
ENDBRANCH   8   9
ENDBRANCH   5   8
ENDBRANCH   1   2
BRANCH   1  19
ATOM     19  N   UNL     1      47.160   4.602  15.891  0.00  0.00    +0.000 N 
ATOM     20  C   UNL     1      47.119   4.276  14.557  0.00  0.00    +0.000 C 
ATOM     21  O   UNL     1      47.254   3.120  14.164  0.00  0.00    +0.000 OA
ATOM     22  H   UNL     1      47.363   5.564  16.143  0.00  0.00    +0.000 HD
BRANCH  20  23
ATOM     23  C   UNL     1      46.824   5.360  13.614  0.00  0.00    +0.000 A 
ATOM     24  C   UNL     1      47.825   6.266  13.288  0.00  0.00    +0.000 A 
ATOM     25  S   UNL     1      47.330   7.474  12.194  0.00  0.00    +0.000 S 
ATOM     26  C   UNL     1      45.748   6.851  12.141  0.00  0.00    +0.000 A 
ATOM     27  N   UNL     1      44.779   7.465  11.409  0.00  0.00    +0.000 NA
ATOM     28  C   UNL     1      43.620   6.902  11.484  0.00  0.00    +0.000 A 
ATOM     29  N   UNL     1      43.346   5.769  12.204  0.00  0.00    +0.000 N 
ATOM     30  C   UNL     1      44.305   5.090  12.922  0.00  0.00    +0.000 A 
ATOM     31  O   UNL     1      44.055   4.034  13.498  0.00  0.00    +0.000 OA
ATOM     32  C   UNL     1      45.613   5.709  12.910  0.00  0.00    +0.000 A 
ATOM     33  H   UNL     1      42.421   5.364  12.197  0.00  0.00    +0.000 HD
ENDBRANCH  20  23
ENDBRANCH   1  19
BRANCH   1  34
ATOM     34  N   UNL     1      46.778   4.107  18.101  0.00  0.00    +0.000 NA
ATOM     35  H   UNL     1      47.024   5.092  18.187  0.00  0.00    +0.000 HD
ATOM     36  H   UNL     1      47.194   3.642  18.899  0.00  0.00    +0.000 HD
ENDBRANCH   1  34
TORSDOF 7
ENDMDL
MODEL 5
REMARK VINA RESULT:    -7.766      2.312      3.412
REMARK INTER + INTRA:         -11.877
REMARK INTER:                 -10.799
REMARK INTRA:                  -1.078
REMARK UNBOUND:                -1.159
REMARK  Name = 
REMARK  7 active torsions:
REMARK  status: ('A' for Active; 'I' for Inactive)
REMARK    1  A    between atoms: N_1  and  C_2
REMARK    2  A    between atoms: C_2  and  N_3
REMARK    3  A    between atoms: C_2  and  C_16
REMARK    4  A    between atoms: C_4  and  C_6
REMARK    5  A    between atoms: C_19  and  C_20
REMARK    6  A    between atoms: C_20  and  N_21
REMARK    7  A    between atoms: C_22  and  C_24
REMARK                            x       y       z     vdW  Elec       q    Type
REMARK                         _______ _______ _______ _____ _____    ______ ____
ROOT
ATOM      1  C   UNL     1      47.091   4.184  15.530  0.00  0.00    +0.000 C 
ENDROOT
BRANCH   1   2
ATOM      2  C   UNL     1      46.654   4.742  14.192  0.00  0.00    +0.000 A 
ATOM      3  C   UNL     1      45.593   4.140  13.497  0.00  0.00    +0.000 A 
ATOM      4  C   UNL     1      45.203   4.607  12.235  0.00  0.00    +0.000 A 
ATOM      5  C   UNL     1      45.870   5.681  11.633  0.00  0.00    +0.000 A 
ATOM      6  C   UNL     1      46.902   6.310  12.341  0.00  0.00    +0.000 A 
ATOM      7  C   UNL     1      47.291   5.846  13.601  0.00  0.00    +0.000 A 
BRANCH   5   8
ATOM      8  C   UNL     1      45.538   6.118  10.230  0.00  0.00    +0.000 C 
BRANCH   8   9
ATOM      9  N   UNL     1      45.951   5.178   9.219  0.00  0.00    +0.000 N 
ATOM     10  C   UNL     1      45.056   4.274   8.694  0.00  0.00    +0.000 C 
ATOM     11  O   UNL     1      43.892   4.175   9.079  0.00  0.00    +0.000 OA
ATOM     12  H   UNL     1      46.812   5.308   8.695  0.00  0.00    +0.000 HD
BRANCH  10  13
ATOM     13  C   UNL     1      45.641   3.323   7.643  0.00  0.00    +0.000 C 
ATOM     14  C   UNL     1      46.105   2.021   8.262  0.00  0.00    +0.000 C 
ATOM     15  C   UNL     1      47.040   1.466   7.206  0.00  0.00    +0.000 C 
ATOM     16  C   UNL     1      47.625   2.698   6.527  0.00  0.00    +0.000 C 
ATOM     17  N   UNL     1      46.892   3.860   7.046  0.00  0.00    +0.000 NA
ATOM     18  H   UNL     1      46.658   4.498   6.286  0.00  0.00    +0.000 HD
ENDBRANCH  10  13
ENDBRANCH   8   9
ENDBRANCH   5   8
ENDBRANCH   1   2
BRANCH   1  19
ATOM     19  N   UNL     1      47.912   5.106  16.258  0.00  0.00    +0.000 N 
ATOM     20  C   UNL     1      47.668   5.393  17.579  0.00  0.00    +0.000 C 
ATOM     21  O   UNL     1      46.767   4.845  18.210  0.00  0.00    +0.000 OA
ATOM     22  H   UNL     1      48.427   5.785  15.707  0.00  0.00    +0.000 HD
BRANCH  20  23
ATOM     23  C   UNL     1      48.584   6.329  18.239  0.00  0.00    +0.000 A 
ATOM     24  C   UNL     1      48.060   7.377  18.986  0.00  0.00    +0.000 A 
ATOM     25  S   UNL     1      49.243   8.387  19.678  0.00  0.00    +0.000 S 
ATOM     26  C   UNL     1      50.501   7.481  18.978  0.00  0.00    +0.000 A 
ATOM     27  N   UNL     1      51.801   7.849  19.140  0.00  0.00    +0.000 NA
ATOM     28  C   UNL     1      52.648   7.088  18.529  0.00  0.00    +0.000 A 
ATOM     29  N   UNL     1      52.316   5.982  17.793  0.00  0.00    +0.000 N 
ATOM     30  C   UNL     1      51.019   5.548  17.640  0.00  0.00    +0.000 A 
ATOM     31  O   UNL     1      50.750   4.510  17.039  0.00  0.00    +0.000 OA
ATOM     32  C   UNL     1      50.026   6.395  18.265  0.00  0.00    +0.000 A 
ATOM     33  H   UNL     1      53.032   5.415  17.363  0.00  0.00    +0.000 HD
ENDBRANCH  20  23
ENDBRANCH   1  19
BRANCH   1  34
ATOM     34  N   UNL     1      47.901   2.991  15.360  0.00  0.00    +0.000 NA
ATOM     35  H   UNL     1      47.261   2.207  15.248  0.00  0.00    +0.000 HD
ATOM     36  H   UNL     1      48.408   2.821  16.221  0.00  0.00    +0.000 HD
ENDBRANCH   1  34
TORSDOF 7
ENDMDL
MODEL 6
REMARK VINA RESULT:    -7.588      1.879      2.057
REMARK INTER + INTRA:         -11.630
REMARK INTER:                 -10.392
REMARK INTRA:                  -1.238
REMARK UNBOUND:                -1.159
REMARK  Name = 
REMARK  7 active torsions:
REMARK  status: ('A' for Active; 'I' for Inactive)
REMARK    1  A    between atoms: N_1  and  C_2
REMARK    2  A    between atoms: C_2  and  N_3
REMARK    3  A    between atoms: C_2  and  C_16
REMARK    4  A    between atoms: C_4  and  C_6
REMARK    5  A    between atoms: C_19  and  C_20
REMARK    6  A    between atoms: C_20  and  N_21
REMARK    7  A    between atoms: C_22  and  C_24
REMARK                            x       y       z     vdW  Elec       q    Type
REMARK                         _______ _______ _______ _____ _____    ______ ____
ROOT
ATOM      1  C   UNL     1      48.001   7.932  14.408  0.00  0.00    +0.000 C 
ENDROOT
BRANCH   1   2
ATOM      2  C   UNL     1      47.006   7.283  13.469  0.00  0.00    +0.000 A 
ATOM      3  C   UNL     1      46.104   8.080  12.746  0.00  0.00    +0.000 A 
ATOM      4  C   UNL     1      45.142   7.500  11.909  0.00  0.00    +0.000 A 
ATOM      5  C   UNL     1      45.053   6.108  11.782  0.00  0.00    +0.000 A 
ATOM      6  C   UNL     1      45.976   5.312  12.469  0.00  0.00    +0.000 A 
ATOM      7  C   UNL     1      46.938   5.890  13.304  0.00  0.00    +0.000 A 
BRANCH   5   8
ATOM      8  C   UNL     1      43.951   5.469  10.978  0.00  0.00    +0.000 C 
BRANCH   8   9
ATOM      9  N   UNL     1      44.405   4.881   9.743  0.00  0.00    +0.000 N 
ATOM     10  C   UNL     1      44.497   3.515   9.607  0.00  0.00    +0.000 C 
ATOM     11  O   UNL     1      44.257   2.729  10.524  0.00  0.00    +0.000 OA
ATOM     12  H   UNL     1      44.429   5.416   8.879  0.00  0.00    +0.000 HD
BRANCH  10  13
ATOM     13  C   UNL     1      45.013   3.033   8.247  0.00  0.00    +0.000 C 
ATOM     14  C   UNL     1      45.987   1.881   8.393  0.00  0.00    +0.000 C 
ATOM     15  C   UNL     1      46.709   1.887   7.060  0.00  0.00    +0.000 C 
ATOM     16  C   UNL     1      46.700   3.347   6.625  0.00  0.00    +0.000 C 
ATOM     17  N   UNL     1      45.839   4.069   7.571  0.00  0.00    +0.000 NA
ATOM     18  H   UNL     1      45.229   4.714   7.070  0.00  0.00    +0.000 HD
ENDBRANCH  10  13
ENDBRANCH   8   9
ENDBRANCH   5   8
ENDBRANCH   1   2
BRANCH   1  19
ATOM     19  N   UNL     1      48.348   7.077  15.504  0.00  0.00    +0.000 N 
ATOM     20  C   UNL     1      49.546   7.208  16.163  0.00  0.00    +0.000 C 
ATOM     21  O   UNL     1      50.356   8.087  15.875  0.00  0.00    +0.000 OA
ATOM     22  H   UNL     1      47.874   6.181  15.546  0.00  0.00    +0.000 HD
BRANCH  20  23
ATOM     23  C   UNL     1      49.792   6.300  17.287  0.00  0.00    +0.000 A 
ATOM     24  C   UNL     1      50.824   5.373  17.198  0.00  0.00    +0.000 A 
ATOM     25  S   UNL     1      50.978   4.381  18.573  0.00  0.00    +0.000 S 
ATOM     26  C   UNL     1      49.650   5.130  19.328  0.00  0.00    +0.000 A 
ATOM     27  N   UNL     1      49.208   4.709  20.543  0.00  0.00    +0.000 NA
ATOM     28  C   UNL     1      48.174   5.347  20.982  0.00  0.00    +0.000 A 
ATOM     29  N   UNL     1      47.558   6.381  20.330  0.00  0.00    +0.000 N 
ATOM     30  C   UNL     1      47.999   6.869  19.120  0.00  0.00    +0.000 A 
ATOM     31  O   UNL     1      47.479   7.847  18.588  0.00  0.00    +0.000 OA
ATOM     32  C   UNL     1      49.126   6.155  18.560  0.00  0.00    +0.000 A 
ATOM     33  H   UNL     1      46.769   6.855  20.743  0.00  0.00    +0.000 HD
ENDBRANCH  20  23
ENDBRANCH   1  19
BRANCH   1  34
ATOM     34  N   UNL     1      47.446   9.131  15.011  0.00  0.00    +0.000 NA
ATOM     35  H   UNL     1      48.133   9.476  15.680  0.00  0.00    +0.000 HD
ATOM     36  H   UNL     1      46.631   8.871  15.553  0.00  0.00    +0.000 HD
ENDBRANCH   1  34
TORSDOF 7
ENDMDL
MODEL 7
REMARK VINA RESULT:    -7.196      2.575      3.570
REMARK INTER + INTRA:         -11.089
REMARK INTER:                 -10.165
REMARK INTRA:                  -0.924
REMARK UNBOUND:                -1.159
REMARK  Name = 
REMARK  7 active torsions:
REMARK  status: ('A' for Active; 'I' for Inactive)
REMARK    1  A    between atoms: N_1  and  C_2
REMARK    2  A    between atoms: C_2  and  N_3
REMARK    3  A    between atoms: C_2  and  C_16
REMARK    4  A    between atoms: C_4  and  C_6
REMARK    5  A    between atoms: C_19  and  C_20
REMARK    6  A    between atoms: C_20  and  N_21
REMARK    7  A    between atoms: C_22  and  C_24
REMARK                            x       y       z     vdW  Elec       q    Type
REMARK                         _______ _______ _______ _____ _____    ______ ____
ROOT
ATOM      1  C   UNL     1      47.172   4.391  15.616  0.00  0.00    +0.000 C 
ENDROOT
BRANCH   1   2
ATOM      2  C   UNL     1      46.771   4.757  14.202  0.00  0.00    +0.000 A 
ATOM      3  C   UNL     1      47.269   5.931  13.616  0.00  0.00    +0.000 A 
ATOM      4  C   UNL     1      46.874   6.316  12.328  0.00  0.00    +0.000 A 
ATOM      5  C   UNL     1      45.965   5.541  11.598  0.00  0.00    +0.000 A 
ATOM      6  C   UNL     1      45.497   4.348  12.163  0.00  0.00    +0.000 A 
ATOM      7  C   UNL     1      45.892   3.962  13.448  0.00  0.00    +0.000 A 
BRANCH   5   8
ATOM      8  C   UNL     1      45.443   6.001  10.262  0.00  0.00    +0.000 C 
BRANCH   8   9
ATOM      9  N   UNL     1      45.868   5.175   9.161  0.00  0.00    +0.000 N 
ATOM     10  C   UNL     1      45.067   4.156   8.698  0.00  0.00    +0.000 C 
ATOM     11  O   UNL     1      43.990   3.857   9.213  0.00  0.00    +0.000 OA
ATOM     12  H   UNL     1      46.625   5.460   8.545  0.00  0.00    +0.000 HD
BRANCH  10  13
ATOM     13  C   UNL     1      45.656   3.348   7.536  0.00  0.00    +0.000 C 
ATOM     14  C   UNL     1      46.188   2.007   7.999  0.00  0.00    +0.000 C 
ATOM     15  C   UNL     1      47.112   1.608   6.865  0.00  0.00    +0.000 C 
ATOM     16  C   UNL     1      47.629   2.929   6.309  0.00  0.00    +0.000 C 
ATOM     17  N   UNL     1      46.869   3.997   6.970  0.00  0.00    +0.000 NA
ATOM     18  H   UNL     1      46.588   4.703   6.289  0.00  0.00    +0.000 HD
ENDBRANCH  10  13
ENDBRANCH   8   9
ENDBRANCH   5   8
ENDBRANCH   1   2
BRANCH   1  19
ATOM     19  N   UNL     1      48.100   5.328  16.174  0.00  0.00    +0.000 N 
ATOM     20  C   UNL     1      48.556   5.202  17.464  0.00  0.00    +0.000 C 
ATOM     21  O   UNL     1      48.227   4.262  18.183  0.00  0.00    +0.000 OA
ATOM     22  H   UNL     1      48.131   6.247  15.744  0.00  0.00    +0.000 HD
BRANCH  20  23
ATOM     23  C   UNL     1      49.525   6.199  17.930  0.00  0.00    +0.000 A 
ATOM     24  C   UNL     1      50.769   6.275  17.315  0.00  0.00    +0.000 A 
ATOM     25  S   UNL     1      51.790   7.469  17.973  0.00  0.00    +0.000 S 
ATOM     26  C   UNL     1      50.621   7.907  19.128  0.00  0.00    +0.000 A 
ATOM     27  N   UNL     1      50.884   8.862  20.061  0.00  0.00    +0.000 NA
ATOM     28  C   UNL     1      49.918   9.071  20.893  0.00  0.00    +0.000 A 
ATOM     29  N   UNL     1      48.708   8.432  20.863  0.00  0.00    +0.000 N 
ATOM     30  C   UNL     1      48.383   7.492  19.910  0.00  0.00    +0.000 A 
ATOM     31  O   UNL     1      47.264   6.986  19.856  0.00  0.00    +0.000 OA
ATOM     32  C   UNL     1      49.450   7.184  18.983  0.00  0.00    +0.000 A 
ATOM     33  H   UNL     1      47.985   8.664  21.528  0.00  0.00    +0.000 HD
ENDBRANCH  20  23
ENDBRANCH   1  19
BRANCH   1  34
ATOM     34  N   UNL     1      47.847   3.106  15.653  0.00  0.00    +0.000 NA
ATOM     35  H   UNL     1      48.504   3.135  16.431  0.00  0.00    +0.000 HD
ATOM     36  H   UNL     1      48.407   3.012  14.814  0.00  0.00    +0.000 HD
ENDBRANCH   1  34
TORSDOF 7
ENDMDL
MODEL 8
REMARK VINA RESULT:    -6.957      3.688      8.631
REMARK INTER + INTRA:         -10.760
REMARK INTER:                  -9.625
REMARK INTRA:                  -1.136
REMARK UNBOUND:                -1.159
REMARK  Name = 
REMARK  7 active torsions:
REMARK  status: ('A' for Active; 'I' for Inactive)
REMARK    1  A    between atoms: N_1  and  C_2
REMARK    2  A    between atoms: C_2  and  N_3
REMARK    3  A    between atoms: C_2  and  C_16
REMARK    4  A    between atoms: C_4  and  C_6
REMARK    5  A    between atoms: C_19  and  C_20
REMARK    6  A    between atoms: C_20  and  N_21
REMARK    7  A    between atoms: C_22  and  C_24
REMARK                            x       y       z     vdW  Elec       q    Type
REMARK                         _______ _______ _______ _____ _____    ______ ____
ROOT
ATOM      1  C   UNL     1      48.333   6.958  13.777  0.00  0.00    +0.000 C 
ENDROOT
BRANCH   1   2
ATOM      2  C   UNL     1      48.672   6.326  15.111  0.00  0.00    +0.000 A 
ATOM      3  C   UNL     1      49.840   6.707  15.789  0.00  0.00    +0.000 A 
ATOM      4  C   UNL     1      50.200   6.102  16.999  0.00  0.00    +0.000 A 
ATOM      5  C   UNL     1      49.405   5.093  17.557  0.00  0.00    +0.000 A 
ATOM      6  C   UNL     1      48.218   4.738  16.905  0.00  0.00    +0.000 A 
ATOM      7  C   UNL     1      47.857   5.343  15.697  0.00  0.00    +0.000 A 
BRANCH   5   8
ATOM      8  C   UNL     1      49.839   4.353  18.796  0.00  0.00    +0.000 C 
BRANCH   8   9
ATOM      9  N   UNL     1      51.163   3.794  18.700  0.00  0.00    +0.000 N 
ATOM     10  C   UNL     1      51.412   2.713  17.885  0.00  0.00    +0.000 C 
ATOM     11  O   UNL     1      50.534   2.136  17.244  0.00  0.00    +0.000 OA
ATOM     12  H   UNL     1      51.980   4.309  19.017  0.00  0.00    +0.000 HD
BRANCH  10  13
ATOM     13  C   UNL     1      52.861   2.213  17.898  0.00  0.00    +0.000 C 
ATOM     14  C   UNL     1      52.938   0.714  17.691  0.00  0.00    +0.000 C 
ATOM     15  C   UNL     1      54.325   0.380  18.204  0.00  0.00    +0.000 C 
ATOM     16  C   UNL     1      54.591   1.413  19.291  0.00  0.00    +0.000 C 
ATOM     17  N   UNL     1      53.493   2.387  19.233  0.00  0.00    +0.000 NA
ATOM     18  H   UNL     1      53.859   3.336  19.313  0.00  0.00    +0.000 HD
ENDBRANCH  10  13
ENDBRANCH   8   9
ENDBRANCH   5   8
ENDBRANCH   1   2
BRANCH   1  19
ATOM     19  N   UNL     1      47.533   6.097  12.958  0.00  0.00    +0.000 N 
ATOM     20  C   UNL     1      46.680   6.602  12.007  0.00  0.00    +0.000 C 
ATOM     21  O   UNL     1      46.594   7.807  11.783  0.00  0.00    +0.000 OA
ATOM     22  H   UNL     1      47.345   5.169  13.325  0.00  0.00    +0.000 HD
BRANCH  20  23
ATOM     23  C   UNL     1      45.926   5.634  11.204  0.00  0.00    +0.000 A 
ATOM     24  C   UNL     1      45.980   5.716   9.818  0.00  0.00    +0.000 A 
ATOM     25  S   UNL     1      45.043   4.536   9.023  0.00  0.00    +0.000 S 
ATOM     26  C   UNL     1      44.504   3.892  10.502  0.00  0.00    +0.000 A 
ATOM     27  N   UNL     1      43.613   2.864  10.533  0.00  0.00    +0.000 NA
ATOM     28  C   UNL     1      43.268   2.496  11.722  0.00  0.00    +0.000 A 
ATOM     29  N   UNL     1      43.749   3.045  12.881  0.00  0.00    +0.000 N 
ATOM     30  C   UNL     1      44.685   4.056  12.897  0.00  0.00    +0.000 A 
ATOM     31  O   UNL     1      45.160   4.482  13.947  0.00  0.00    +0.000 OA
ATOM     32  C   UNL     1      45.068   4.539  11.587  0.00  0.00    +0.000 A 
ATOM     33  H   UNL     1      43.458   2.691  13.780  0.00  0.00    +0.000 HD
ENDBRANCH  20  23
ENDBRANCH   1  19
BRANCH   1  34
ATOM     34  N   UNL     1      49.533   7.224  13.004  0.00  0.00    +0.000 NA
ATOM     35  H   UNL     1      49.922   8.101  13.346  0.00  0.00    +0.000 HD
ATOM     36  H   UNL     1      49.266   7.391  12.041  0.00  0.00    +0.000 HD
ENDBRANCH   1  34
TORSDOF 7
ENDMDL
MODEL 9
REMARK VINA RESULT:    -6.902      3.338      4.890
REMARK INTER + INTRA:         -10.683
REMARK INTER:                  -9.386
REMARK INTRA:                  -1.298
REMARK UNBOUND:                -1.159
REMARK  Name = 
REMARK  7 active torsions:
REMARK  status: ('A' for Active; 'I' for Inactive)
REMARK    1  A    between atoms: N_1  and  C_2
REMARK    2  A    between atoms: C_2  and  N_3
REMARK    3  A    between atoms: C_2  and  C_16
REMARK    4  A    between atoms: C_4  and  C_6
REMARK    5  A    between atoms: C_19  and  C_20
REMARK    6  A    between atoms: C_20  and  N_21
REMARK    7  A    between atoms: C_22  and  C_24
REMARK                            x       y       z     vdW  Elec       q    Type
REMARK                         _______ _______ _______ _____ _____    ______ ____
ROOT
ATOM      1  C   UNL     1      48.330   6.874  14.603  0.00  0.00    +0.000 C 
ENDROOT
BRANCH   1   2
ATOM      2  C   UNL     1      47.337   6.403  13.562  0.00  0.00    +0.000 A 
ATOM      3  C   UNL     1      47.050   7.212  12.452  0.00  0.00    +0.000 A 
ATOM      4  C   UNL     1      46.098   6.820  11.501  0.00  0.00    +0.000 A 
ATOM      5  C   UNL     1      45.403   5.613  11.643  0.00  0.00    +0.000 A 
ATOM      6  C   UNL     1      45.715   4.783  12.727  0.00  0.00    +0.000 A 
ATOM      7  C   UNL     1      46.666   5.173  13.675  0.00  0.00    +0.000 A 
BRANCH   5   8
ATOM      8  C   UNL     1      44.297   5.234  10.693  0.00  0.00    +0.000 C 
BRANCH   8   9
ATOM      9  N   UNL     1      44.767   4.655   9.461  0.00  0.00    +0.000 N 
ATOM     10  C   UNL     1      44.706   3.295   9.256  0.00  0.00    +0.000 C 
ATOM     11  O   UNL     1      44.306   2.502  10.108  0.00  0.00    +0.000 OA
ATOM     12  H   UNL     1      44.919   5.223   8.632  0.00  0.00    +0.000 HD
BRANCH  10  13
ATOM     13  C   UNL     1      45.260   2.820   7.908  0.00  0.00    +0.000 C 
ATOM     14  C   UNL     1      46.280   1.713   8.081  0.00  0.00    +0.000 C 
ATOM     15  C   UNL     1      47.019   1.733   6.758  0.00  0.00    +0.000 C 
ATOM     16  C   UNL     1      46.953   3.186   6.304  0.00  0.00    +0.000 C 
ATOM     17  N   UNL     1      46.049   3.881   7.228  0.00  0.00    +0.000 NA
ATOM     18  H   UNL     1      45.418   4.493   6.711  0.00  0.00    +0.000 HD
ENDBRANCH  10  13
ENDBRANCH   8   9
ENDBRANCH   5   8
ENDBRANCH   1   2
BRANCH   1  19
ATOM     19  N   UNL     1      49.625   7.120  14.042  0.00  0.00    +0.000 N 
ATOM     20  C   UNL     1      50.461   8.078  14.563  0.00  0.00    +0.000 C 
ATOM     21  O   UNL     1      50.158   8.737  15.556  0.00  0.00    +0.000 OA
ATOM     22  H   UNL     1      49.761   6.841  13.076  0.00  0.00    +0.000 HD
BRANCH  20  23
ATOM     23  C   UNL     1      51.775   8.232  13.932  0.00  0.00    +0.000 A 
ATOM     24  C   UNL     1      52.919   8.137  14.717  0.00  0.00    +0.000 A 
ATOM     25  S   UNL     1      54.368   8.351  13.848  0.00  0.00    +0.000 S 
ATOM     26  C   UNL     1      53.521   8.613  12.397  0.00  0.00    +0.000 A 
ATOM     27  N   UNL     1      54.183   8.910  11.246  0.00  0.00    +0.000 NA
ATOM     28  C   UNL     1      53.413   9.114  10.228  0.00  0.00    +0.000 A 
ATOM     29  N   UNL     1      52.047   9.024  10.251  0.00  0.00    +0.000 N 
ATOM     30  C   UNL     1      51.340   8.682  11.382  0.00  0.00    +0.000 A 
ATOM     31  O   UNL     1      50.120   8.532  11.362  0.00  0.00    +0.000 OA
ATOM     32  C   UNL     1      52.153   8.492  12.563  0.00  0.00    +0.000 A 
ATOM     33  H   UNL     1      51.506   9.169   9.411  0.00  0.00    +0.000 HD
ENDBRANCH  20  23
ENDBRANCH   1  19
BRANCH   1  34
ATOM     34  N   UNL     1      48.535   5.864  15.626  0.00  0.00    +0.000 NA
ATOM     35  H   UNL     1      48.667   6.354  16.509  0.00  0.00    +0.000 HD
ATOM     36  H   UNL     1      49.407   5.385  15.436  0.00  0.00    +0.000 HD
ENDBRANCH   1  34
TORSDOF 7
ENDMDL
