MODEL 1
REMARK VINA RESULT:    -8.215      0.000      0.000
REMARK INTER + INTRA:         -12.945
REMARK INTER:                 -11.817
REMARK INTRA:                  -1.128
REMARK UNBOUND:                -1.128
REMARK  Name = 
REMARK  8 active torsions:
REMARK  status: ('A' for Active; 'I' for Inactive)
REMARK    1  A    between atoms: C_2  and  C_21
REMARK    2  A    between atoms: N_3  and  C_4
REMARK    3  A    between atoms: C_4  and  C_5
REMARK    4  A    between atoms: C_8  and  C_9
REMARK    5  A    between atoms: C_9  and  C_10
REMARK    6  A    between atoms: C_10  and  O_11
REMARK    7  A    between atoms: C_10  and  C_12
REMARK    8  A    between atoms: C_12  and  C_13
REMARK                            x       y       z     vdW  Elec       q    Type
REMARK                         _______ _______ _______ _____ _____    ______ ____
ROOT
ATOM      1  C   UNL     1      46.330   7.342  12.836  0.00  0.00    +0.000 A 
ATOM      2  C   UNL     1      45.284   7.854  12.069  0.00  0.00    +0.000 A 
ATOM      3  C   UNL     1      44.408   6.983  11.429  0.00  0.00    +0.000 A 
ATOM      4  C   UNL     1      44.591   5.608  11.573  0.00  0.00    +0.000 A 
ATOM      5  N   UNL     1      45.574   5.084  12.344  0.00  0.00    +0.000 NA
ATOM      6  C   UNL     1      46.407   5.959  12.960  0.00  0.00    +0.000 A 
ENDROOT
BRANCH   1   7
ATOM      7  C   UNL     1      47.320   8.251  13.501  0.00  0.00    +0.000 C 
BRANCH   7  10
ATOM      8  O   UNL     1      49.757   6.933  14.007  0.00  0.00    +0.000 OA
ATOM      9  C   UNL     1      48.990   7.141  14.942  0.00  0.00    +0.000 C 
ATOM     10  N   UNL     1      47.764   7.731  14.769  0.00  0.00    +0.000 N 
ATOM     11  H   UNL     1      47.222   8.001  15.581  0.00  0.00    +0.000 HD
BRANCH   9  12
ATOM     12  C   UNL     1      49.322   6.724  16.311  0.00  0.00    +0.000 A 
ATOM     13  C   UNL     1      50.063   7.567  17.129  0.00  0.00    +0.000 A 
ATOM     14  S   UNL     1      50.333   6.940  18.693  0.00  0.00    +0.000 S 
ATOM     15  C   UNL     1      49.436   5.537  18.345  0.00  0.00    +0.000 A 
ATOM     16  N   UNL     1      49.230   4.585  19.294  0.00  0.00    +0.000 NA
ATOM     17  C   UNL     1      48.491   3.601  18.909  0.00  0.00    +0.000 A 
ATOM     18  N   UNL     1      47.956   3.467  17.652  0.00  0.00    +0.000 N 
ATOM     19  C   UNL     1      48.224   4.346  16.636  0.00  0.00    +0.000 A 
ATOM     20  O   UNL     1      47.890   4.111  15.485  0.00  0.00    +0.000 OA
ATOM     21  C   UNL     1      48.980   5.524  17.038  0.00  0.00    +0.000 A 
ATOM     22  H   UNL     1      47.429   2.646  17.402  0.00  0.00    +0.000 HD
ENDBRANCH   9  12
ENDBRANCH   7  10
ENDBRANCH   1   7
BRANCH   4  23
ATOM     23  C   UNL     1      43.658   4.642  10.880  0.00  0.00    +0.000 C 
BRANCH  23  24
ATOM     24  C   UNL     1      44.435   3.539  10.148  0.00  0.00    +0.000 C 
BRANCH  24  25
ATOM     25  O   UNL     1      43.789   2.280  10.386  0.00  0.00    +0.000 OA
ATOM     26  H   UNL     1      44.449   1.658  10.736  0.00  0.00    +0.000 HD
ENDBRANCH  24  25
BRANCH  24  27
ATOM     27  C   UNL     1      44.507   3.815   8.634  0.00  0.00    +0.000 C 
BRANCH  27  28
ATOM     28  C   UNL     1      45.557   2.969   7.950  0.00  0.00    +0.000 A 
ATOM     29  C   UNL     1      46.350   3.498   6.934  0.00  0.00    +0.000 A 
ATOM     30  C   UNL     1      47.365   2.714   6.393  0.00  0.00    +0.000 A 
ATOM     31  C   UNL     1      47.551   1.421   6.864  0.00  0.00    +0.000 A 
ATOM     32  C   UNL     1      46.701   0.961   7.856  0.00  0.00    +0.000 A 
ATOM     33  N   UNL     1      45.712   1.701   8.407  0.00  0.00    +0.000 NA
ENDBRANCH  27  28
ENDBRANCH  24  27
ENDBRANCH  23  24
ENDBRANCH   4  23
TORSDOF 8
ENDMDL
MODEL 2
REMARK VINA RESULT:    -8.142      2.272      2.878
REMARK INTER + INTRA:         -12.840
REMARK INTER:                 -11.632
REMARK INTRA:                  -1.208
REMARK UNBOUND:                -1.128
REMARK  Name = 
REMARK  8 active torsions:
REMARK  status: ('A' for Active; 'I' for Inactive)
REMARK    1  A    between atoms: C_2  and  C_21
REMARK    2  A    between atoms: N_3  and  C_4
REMARK    3  A    between atoms: C_4  and  C_5
REMARK    4  A    between atoms: C_8  and  C_9
REMARK    5  A    between atoms: C_9  and  C_10
REMARK    6  A    between atoms: C_10  and  O_11
REMARK    7  A    between atoms: C_10  and  C_12
REMARK    8  A    between atoms: C_12  and  C_13
REMARK                            x       y       z     vdW  Elec       q    Type
REMARK                         _______ _______ _______ _____ _____    ______ ____
ROOT
ATOM      1  C   UNL     1      47.629   6.438  13.383  0.00  0.00    +0.000 A 
ATOM      2  C   UNL     1      47.344   7.007  12.142  0.00  0.00    +0.000 A 
ATOM      3  C   UNL     1      46.378   6.430  11.325  0.00  0.00    +0.000 A 
ATOM      4  C   UNL     1      45.704   5.292  11.768  0.00  0.00    +0.000 A 
ATOM      5  N   UNL     1      45.932   4.742  12.985  0.00  0.00    +0.000 NA
ATOM      6  C   UNL     1      46.875   5.331  13.761  0.00  0.00    +0.000 A 
ENDROOT
BRANCH   1   7
ATOM      7  C   UNL     1      48.698   7.005  14.269  0.00  0.00    +0.000 C 
BRANCH   7  10
ATOM      8  O   UNL     1      49.969   5.682  16.405  0.00  0.00    +0.000 OA
ATOM      9  C   UNL     1      48.999   6.395  16.642  0.00  0.00    +0.000 C 
ATOM     10  N   UNL     1      48.296   7.031  15.651  0.00  0.00    +0.000 N 
ATOM     11  H   UNL     1      47.586   7.710  15.901  0.00  0.00    +0.000 HD
BRANCH   9  12
ATOM     12  C   UNL     1      48.498   6.575  18.012  0.00  0.00    +0.000 A 
ATOM     13  C   UNL     1      48.445   5.488  18.875  0.00  0.00    +0.000 A 
ATOM     14  S   UNL     1      47.867   5.879  20.432  0.00  0.00    +0.000 S 
ATOM     15  C   UNL     1      47.704   7.521  20.019  0.00  0.00    +0.000 A 
ATOM     16  N   UNL     1      47.292   8.436  20.938  0.00  0.00    +0.000 NA
ATOM     17  C   UNL     1      47.262   9.650  20.503  0.00  0.00    +0.000 A 
ATOM     18  N   UNL     1      47.584  10.033  19.225  0.00  0.00    +0.000 N 
ATOM     19  C   UNL     1      47.902   9.135  18.241  0.00  0.00    +0.000 A 
ATOM     20  O   UNL     1      48.004   9.479  17.073  0.00  0.00    +0.000 OA
ATOM     21  C   UNL     1      48.037   7.759  18.697  0.00  0.00    +0.000 A 
ATOM     22  H   UNL     1      47.489  10.994  18.937  0.00  0.00    +0.000 HD
ENDBRANCH   9  12
ENDBRANCH   7  10
ENDBRANCH   1   7
BRANCH   4  23
ATOM     23  C   UNL     1      44.655   4.642  10.894  0.00  0.00    +0.000 C 
BRANCH  23  24
ATOM     24  C   UNL     1      44.852   3.122  10.818  0.00  0.00    +0.000 C 
BRANCH  24  25
ATOM     25  O   UNL     1      44.178   2.511  11.928  0.00  0.00    +0.000 OA
ATOM     26  H   UNL     1      43.427   1.997  11.585  0.00  0.00    +0.000 HD
ENDBRANCH  24  25
BRANCH  24  27
ATOM     27  C   UNL     1      44.309   2.552   9.493  0.00  0.00    +0.000 C 
BRANCH  27  28
ATOM     28  C   UNL     1      45.396   2.388   8.457  0.00  0.00    +0.000 A 
ATOM     29  C   UNL     1      45.778   3.455   7.646  0.00  0.00    +0.000 A 
ATOM     30  C   UNL     1      46.844   3.287   6.767  0.00  0.00    +0.000 A 
ATOM     31  C   UNL     1      47.488   2.059   6.705  0.00  0.00    +0.000 A 
ATOM     32  C   UNL     1      47.028   1.041   7.523  0.00  0.00    +0.000 A 
ATOM     33  N   UNL     1      46.002   1.175   8.393  0.00  0.00    +0.000 NA
ENDBRANCH  27  28
ENDBRANCH  24  27
ENDBRANCH  23  24
ENDBRANCH   4  23
TORSDOF 8
ENDMDL
MODEL 3
REMARK VINA RESULT:    -7.460      2.817      3.650
REMARK INTER + INTRA:         -11.858
REMARK INTER:                 -10.897
REMARK INTRA:                  -0.961
REMARK UNBOUND:                -1.128
REMARK  Name = 
REMARK  8 active torsions:
REMARK  status: ('A' for Active; 'I' for Inactive)
REMARK    1  A    between atoms: C_2  and  C_21
REMARK    2  A    between atoms: N_3  and  C_4
REMARK    3  A    between atoms: C_4  and  C_5
REMARK    4  A    between atoms: C_8  and  C_9
REMARK    5  A    between atoms: C_9  and  C_10
REMARK    6  A    between atoms: C_10  and  O_11
REMARK    7  A    between atoms: C_10  and  C_12
REMARK    8  A    between atoms: C_12  and  C_13
REMARK                            x       y       z     vdW  Elec       q    Type
REMARK                         _______ _______ _______ _____ _____    ______ ____
ROOT
ATOM      1  C   UNL     1      48.060   5.857  15.258  0.00  0.00    +0.000 A 
ATOM      2  C   UNL     1      47.930   6.256  13.928  0.00  0.00    +0.000 A 
ATOM      3  C   UNL     1      47.144   5.508  13.057  0.00  0.00    +0.000 A 
ATOM      4  C   UNL     1      46.494   4.371  13.535  0.00  0.00    +0.000 A 
ATOM      5  N   UNL     1      46.570   3.983  14.831  0.00  0.00    +0.000 NA
ATOM      6  C   UNL     1      47.338   4.737  15.656  0.00  0.00    +0.000 A 
ENDROOT
BRANCH   1   7
ATOM      7  C   UNL     1      48.936   6.612  16.211  0.00  0.00    +0.000 C 
BRANCH   7  10
ATOM      8  O   UNL     1      49.521   5.931  18.880  0.00  0.00    +0.000 OA
ATOM      9  C   UNL     1      50.237   5.492  17.986  0.00  0.00    +0.000 C 
ATOM     10  N   UNL     1      50.048   5.818  16.667  0.00  0.00    +0.000 N 
ATOM     11  H   UNL     1      50.577   5.333  15.953  0.00  0.00    +0.000 HD
BRANCH   9  12
ATOM     12  C   UNL     1      51.380   4.618  18.281  0.00  0.00    +0.000 A 
ATOM     13  C   UNL     1      52.460   5.113  18.999  0.00  0.00    +0.000 A 
ATOM     14  S   UNL     1      53.685   3.958  19.278  0.00  0.00    +0.000 S 
ATOM     15  C   UNL     1      52.797   2.744  18.482  0.00  0.00    +0.000 A 
ATOM     16  N   UNL     1      53.267   1.470  18.405  0.00  0.00    +0.000 NA
ATOM     17  C   UNL     1      52.469   0.644  17.819  0.00  0.00    +0.000 A 
ATOM     18  N   UNL     1      51.252   0.978  17.279  0.00  0.00    +0.000 N 
ATOM     19  C   UNL     1      50.788   2.266  17.240  0.00  0.00    +0.000 A 
ATOM     20  O   UNL     1      49.794   2.566  16.597  0.00  0.00    +0.000 OA
ATOM     21  C   UNL     1      51.606   3.227  17.966  0.00  0.00    +0.000 A 
ATOM     22  H   UNL     1      50.701   0.292  16.789  0.00  0.00    +0.000 HD
ENDBRANCH   9  12
ENDBRANCH   7  10
ENDBRANCH   1   7
BRANCH   4  23
ATOM     23  C   UNL     1      45.641   3.537  12.606  0.00  0.00    +0.000 C 
BRANCH  23  24
ATOM     24  C   UNL     1      44.156   3.902  12.728  0.00  0.00    +0.000 C 
BRANCH  24  25
ATOM     25  O   UNL     1      44.046   5.296  13.052  0.00  0.00    +0.000 OA
ATOM     26  H   UNL     1      44.778   5.770  12.622  0.00  0.00    +0.000 HD
ENDBRANCH  24  25
BRANCH  24  27
ATOM     27  C   UNL     1      43.397   3.605  11.420  0.00  0.00    +0.000 C 
BRANCH  27  28
ATOM     28  C   UNL     1      44.317   3.583  10.221  0.00  0.00    +0.000 A 
ATOM     29  C   UNL     1      44.536   2.404   9.510  0.00  0.00    +0.000 A 
ATOM     30  C   UNL     1      45.318   2.445   8.360  0.00  0.00    +0.000 A 
ATOM     31  C   UNL     1      45.876   3.651   7.958  0.00  0.00    +0.000 A 
ATOM     32  C   UNL     1      45.635   4.771   8.736  0.00  0.00    +0.000 A 
ATOM     33  N   UNL     1      44.873   4.765   9.853  0.00  0.00    +0.000 NA
ENDBRANCH  27  28
ENDBRANCH  24  27
ENDBRANCH  23  24
ENDBRANCH   4  23
TORSDOF 8
ENDMDL
MODEL 4
REMARK VINA RESULT:    -7.396      3.345      4.365
REMARK INTER + INTRA:         -11.767
REMARK INTER:                 -10.578
REMARK INTRA:                  -1.188
REMARK UNBOUND:                -1.128
REMARK  Name = 
REMARK  8 active torsions:
REMARK  status: ('A' for Active; 'I' for Inactive)
REMARK    1  A    between atoms: C_2  and  C_21
REMARK    2  A    between atoms: N_3  and  C_4
REMARK    3  A    between atoms: C_4  and  C_5
REMARK    4  A    between atoms: C_8  and  C_9
REMARK    5  A    between atoms: C_9  and  C_10
REMARK    6  A    between atoms: C_10  and  O_11
REMARK    7  A    between atoms: C_10  and  C_12
REMARK    8  A    between atoms: C_12  and  C_13
REMARK                            x       y       z     vdW  Elec       q    Type
REMARK                         _______ _______ _______ _____ _____    ______ ____
ROOT
ATOM      1  C   UNL     1      47.930   4.959  16.147  0.00  0.00    +0.000 A 
ATOM      2  C   UNL     1      48.326   6.078  15.414  0.00  0.00    +0.000 A 
ATOM      3  C   UNL     1      47.825   6.274  14.131  0.00  0.00    +0.000 A 
ATOM      4  C   UNL     1      46.927   5.347  13.603  0.00  0.00    +0.000 A 
ATOM      5  N   UNL     1      46.495   4.273  14.307  0.00  0.00    +0.000 NA
ATOM      6  C   UNL     1      46.997   4.113  15.557  0.00  0.00    +0.000 A 
ENDROOT
BRANCH   1   7
ATOM      7  C   UNL     1      48.487   4.691  17.513  0.00  0.00    +0.000 C 
BRANCH   7  10
ATOM      8  O   UNL     1      50.423   5.057  19.524  0.00  0.00    +0.000 OA
ATOM      9  C   UNL     1      50.733   4.444  18.507  0.00  0.00    +0.000 C 
ATOM     10  N   UNL     1      49.863   4.268  17.462  0.00  0.00    +0.000 N 
ATOM     11  H   UNL     1      50.115   3.647  16.702  0.00  0.00    +0.000 HD
BRANCH   9  12
ATOM     12  C   UNL     1      52.084   3.896  18.326  0.00  0.00    +0.000 A 
ATOM     13  C   UNL     1      53.192   4.674  18.637  0.00  0.00    +0.000 A 
ATOM     14  S   UNL     1      54.680   3.874  18.396  0.00  0.00    +0.000 S 
ATOM     15  C   UNL     1      53.895   2.447  17.904  0.00  0.00    +0.000 A 
ATOM     16  N   UNL     1      54.606   1.329  17.594  0.00  0.00    +0.000 NA
ATOM     17  C   UNL     1      53.881   0.307  17.287  0.00  0.00    +0.000 A 
ATOM     18  N   UNL     1      52.510   0.304  17.237  0.00  0.00    +0.000 N 
ATOM     19  C   UNL     1      51.760   1.432  17.437  0.00  0.00    +0.000 A 
ATOM     20  O   UNL     1      50.560   1.449  17.208  0.00  0.00    +0.000 OA
ATOM     21  C   UNL     1      52.519   2.595  17.875  0.00  0.00    +0.000 A 
ATOM     22  H   UNL     1      52.008  -0.517  16.938  0.00  0.00    +0.000 HD
ENDBRANCH   9  12
ENDBRANCH   7  10
ENDBRANCH   1   7
BRANCH   4  23
ATOM     23  C   UNL     1      46.376   5.534  12.208  0.00  0.00    +0.000 C 
BRANCH  23  24
ATOM     24  C   UNL     1      44.882   5.189  12.144  0.00  0.00    +0.000 C 
BRANCH  24  25
ATOM     25  O   UNL     1      44.166   6.063  13.028  0.00  0.00    +0.000 OA
ATOM     26  H   UNL     1      44.496   5.923  13.932  0.00  0.00    +0.000 HD
ENDBRANCH  24  25
BRANCH  24  27
ATOM     27  C   UNL     1      44.335   5.328  10.710  0.00  0.00    +0.000 C 
BRANCH  27  28
ATOM     28  C   UNL     1      44.953   4.322   9.766  0.00  0.00    +0.000 A 
ATOM     29  C   UNL     1      44.797   2.954   9.978  0.00  0.00    +0.000 A 
ATOM     30  C   UNL     1      45.305   2.063   9.037  0.00  0.00    +0.000 A 
ATOM     31  C   UNL     1      45.969   2.556   7.921  0.00  0.00    +0.000 A 
ATOM     32  C   UNL     1      46.106   3.929   7.800  0.00  0.00    +0.000 A 
ATOM     33  N   UNL     1      45.617   4.819   8.692  0.00  0.00    +0.000 NA
ENDBRANCH  27  28
ENDBRANCH  24  27
ENDBRANCH  23  24
ENDBRANCH   4  23
TORSDOF 8
ENDMDL
MODEL 5
REMARK VINA RESULT:    -7.322      1.858      2.212
REMARK INTER + INTRA:         -11.660
REMARK INTER:                 -10.458
REMARK INTRA:                  -1.202
REMARK UNBOUND:                -1.128
REMARK  Name = 
REMARK  8 active torsions:
REMARK  status: ('A' for Active; 'I' for Inactive)
REMARK    1  A    between atoms: C_2  and  C_21
REMARK    2  A    between atoms: N_3  and  C_4
REMARK    3  A    between atoms: C_4  and  C_5
REMARK    4  A    between atoms: C_8  and  C_9
REMARK    5  A    between atoms: C_9  and  C_10
REMARK    6  A    between atoms: C_10  and  O_11
REMARK    7  A    between atoms: C_10  and  C_12
REMARK    8  A    between atoms: C_12  and  C_13
REMARK                            x       y       z     vdW  Elec       q    Type
REMARK                         _______ _______ _______ _____ _____    ______ ____
ROOT
ATOM      1  C   UNL     1      47.735   6.720  13.291  0.00  0.00    +0.000 A 
ATOM      2  C   UNL     1      47.268   7.264  12.095  0.00  0.00    +0.000 A 
ATOM      3  C   UNL     1      46.236   6.632  11.407  0.00  0.00    +0.000 A 
ATOM      4  C   UNL     1      45.683   5.466  11.933  0.00  0.00    +0.000 A 
ATOM      5  N   UNL     1      46.090   4.937  13.112  0.00  0.00    +0.000 NA
ATOM      6  C   UNL     1      47.092   5.579  13.763  0.00  0.00    +0.000 A 
ENDROOT
BRANCH   1   7
ATOM      7  C   UNL     1      48.876   7.347  14.034  0.00  0.00    +0.000 C 
BRANCH   7  10
ATOM      8  O   UNL     1      51.295   7.484  15.469  0.00  0.00    +0.000 OA
ATOM      9  C   UNL     1      50.386   6.784  15.905  0.00  0.00    +0.000 C 
ATOM     10  N   UNL     1      49.197   6.626  15.239  0.00  0.00    +0.000 N 
ATOM     11  H   UNL     1      48.430   6.148  15.696  0.00  0.00    +0.000 HD
BRANCH   9  12
ATOM     12  C   UNL     1      50.534   6.029  17.157  0.00  0.00    +0.000 A 
ATOM     13  C   UNL     1      51.507   5.043  17.257  0.00  0.00    +0.000 A 
ATOM     14  S   UNL     1      51.561   4.288  18.786  0.00  0.00    +0.000 S 
ATOM     15  C   UNL     1      50.312   5.278  19.380  0.00  0.00    +0.000 A 
ATOM     16  N   UNL     1      49.895   5.181  20.672  0.00  0.00    +0.000 NA
ATOM     17  C   UNL     1      48.979   6.026  21.000  0.00  0.00    +0.000 A 
ATOM     18  N   UNL     1      48.419   6.946  20.150  0.00  0.00    +0.000 N 
ATOM     19  C   UNL     1      48.732   7.009  18.817  0.00  0.00    +0.000 A 
ATOM     20  O   UNL     1      48.093   7.707  18.045  0.00  0.00    +0.000 OA
ATOM     21  C   UNL     1      49.826   6.138  18.410  0.00  0.00    +0.000 A 
ATOM     22  H   UNL     1      47.669   7.543  20.459  0.00  0.00    +0.000 HD
ENDBRANCH   9  12
ENDBRANCH   7  10
ENDBRANCH   1   7
BRANCH   4  23
ATOM     23  C   UNL     1      44.567   4.757  11.199  0.00  0.00    +0.000 C 
BRANCH  23  24
ATOM     24  C   UNL     1      44.923   3.290  10.919  0.00  0.00    +0.000 C 
BRANCH  24  25
ATOM     25  O   UNL     1      44.381   2.473  11.967  0.00  0.00    +0.000 OA
ATOM     26  H   UNL     1      44.542   2.918  12.817  0.00  0.00    +0.000 HD
ENDBRANCH  24  25
BRANCH  24  27
ATOM     27  C   UNL     1      44.373   2.831   9.555  0.00  0.00    +0.000 C 
BRANCH  27  28
ATOM     28  C   UNL     1      45.464   2.697   8.518  0.00  0.00    +0.000 A 
ATOM     29  C   UNL     1      46.099   1.475   8.302  0.00  0.00    +0.000 A 
ATOM     30  C   UNL     1      47.034   1.373   7.276  0.00  0.00    +0.000 A 
ATOM     31  C   UNL     1      47.326   2.491   6.507  0.00  0.00    +0.000 A 
ATOM     32  C   UNL     1      46.673   3.675   6.805  0.00  0.00    +0.000 A 
ATOM     33  N   UNL     1      45.754   3.804   7.788  0.00  0.00    +0.000 NA
ENDBRANCH  27  28
ENDBRANCH  24  27
ENDBRANCH  23  24
ENDBRANCH   4  23
TORSDOF 8
ENDMDL
MODEL 6
REMARK VINA RESULT:    -7.180      3.371      8.257
REMARK INTER + INTRA:         -11.456
REMARK INTER:                  -9.678
REMARK INTRA:                  -1.779
REMARK UNBOUND:                -1.128
REMARK  Name = 
REMARK  8 active torsions:
REMARK  status: ('A' for Active; 'I' for Inactive)
REMARK    1  A    between atoms: C_2  and  C_21
REMARK    2  A    between atoms: N_3  and  C_4
REMARK    3  A    between atoms: C_4  and  C_5
REMARK    4  A    between atoms: C_8  and  C_9
REMARK    5  A    between atoms: C_9  and  C_10
REMARK    6  A    between atoms: C_10  and  O_11
REMARK    7  A    between atoms: C_10  and  C_12
REMARK    8  A    between atoms: C_12  and  C_13
REMARK                            x       y       z     vdW  Elec       q    Type
REMARK                         _______ _______ _______ _____ _____    ______ ____
ROOT
ATOM      1  C   UNL     1      48.225   8.054  14.119  0.00  0.00    +0.000 A 
ATOM      2  C   UNL     1      48.622   6.773  14.502  0.00  0.00    +0.000 A 
ATOM      3  C   UNL     1      49.031   6.541  15.811  0.00  0.00    +0.000 A 
ATOM      4  C   UNL     1      49.030   7.598  16.721  0.00  0.00    +0.000 A 
ATOM      5  N   UNL     1      48.611   8.842  16.387  0.00  0.00    +0.000 NA
ATOM      6  C   UNL     1      48.212   9.035  15.104  0.00  0.00    +0.000 A 
ENDROOT
BRANCH   1   7
ATOM      7  C   UNL     1      47.824   8.350  12.705  0.00  0.00    +0.000 C 
BRANCH   7  10
ATOM      8  O   UNL     1      45.131   8.104  11.921  0.00  0.00    +0.000 OA
ATOM      9  C   UNL     1      45.907   7.187  11.671  0.00  0.00    +0.000 C 
ATOM     10  N   UNL     1      47.221   7.209  12.065  0.00  0.00    +0.000 N 
ATOM     11  H   UNL     1      47.855   6.496  11.726  0.00  0.00    +0.000 HD
BRANCH   9  12
ATOM     12  C   UNL     1      45.460   5.976  10.970  0.00  0.00    +0.000 A 
ATOM     13  C   UNL     1      45.874   5.741   9.665  0.00  0.00    +0.000 A 
ATOM     14  S   UNL     1      45.288   4.277   9.013  0.00  0.00    +0.000 S 
ATOM     15  C   UNL     1      44.491   3.887  10.465  0.00  0.00    +0.000 A 
ATOM     16  N   UNL     1      43.820   2.712  10.600  0.00  0.00    +0.000 NA
ATOM     17  C   UNL     1      43.308   2.523  11.768  0.00  0.00    +0.000 A 
ATOM     18  N   UNL     1      43.382   3.414  12.810  0.00  0.00    +0.000 N 
ATOM     19  C   UNL     1      43.955   4.652  12.686  0.00  0.00    +0.000 A 
ATOM     20  O   UNL     1      43.849   5.494  13.564  0.00  0.00    +0.000 OA
ATOM     21  C   UNL     1      44.629   4.883  11.416  0.00  0.00    +0.000 A 
ATOM     22  H   UNL     1      42.913   3.226  13.682  0.00  0.00    +0.000 HD
ENDBRANCH   9  12
ENDBRANCH   7  10
ENDBRANCH   1   7
BRANCH   4  23
ATOM     23  C   UNL     1      49.478   7.373  18.147  0.00  0.00    +0.000 C 
BRANCH  23  24
ATOM     24  C   UNL     1      48.282   7.292  19.105  0.00  0.00    +0.000 C 
BRANCH  24  25
ATOM     25  O   UNL     1      47.085   7.609  18.380  0.00  0.00    +0.000 OA
ATOM     26  H   UNL     1      47.121   7.160  17.518  0.00  0.00    +0.000 HD
ENDBRANCH  24  25
BRANCH  24  27
ATOM     27  C   UNL     1      48.162   5.889  19.733  0.00  0.00    +0.000 C 
BRANCH  27  28
ATOM     28  C   UNL     1      48.193   4.795  18.691  0.00  0.00    +0.000 A 
ATOM     29  C   UNL     1      49.320   3.992  18.532  0.00  0.00    +0.000 A 
ATOM     30  C   UNL     1      49.275   2.937  17.624  0.00  0.00    +0.000 A 
ATOM     31  C   UNL     1      48.119   2.723  16.886  0.00  0.00    +0.000 A 
ATOM     32  C   UNL     1      47.053   3.585  17.082  0.00  0.00    +0.000 A 
ATOM     33  N   UNL     1      47.062   4.611  17.962  0.00  0.00    +0.000 NA
ENDBRANCH  27  28
ENDBRANCH  24  27
ENDBRANCH  23  24
ENDBRANCH   4  23
TORSDOF 8
ENDMDL
MODEL 7
REMARK VINA RESULT:    -7.172      3.324      5.022
REMARK INTER + INTRA:         -11.444
REMARK INTER:                 -10.410
REMARK INTRA:                  -1.034
REMARK UNBOUND:                -1.128
REMARK  Name = 
REMARK  8 active torsions:
REMARK  status: ('A' for Active; 'I' for Inactive)
REMARK    1  A    between atoms: C_2  and  C_21
REMARK    2  A    between atoms: N_3  and  C_4
REMARK    3  A    between atoms: C_4  and  C_5
REMARK    4  A    between atoms: C_8  and  C_9
REMARK    5  A    between atoms: C_9  and  C_10
REMARK    6  A    between atoms: C_10  and  O_11
REMARK    7  A    between atoms: C_10  and  C_12
REMARK    8  A    between atoms: C_12  and  C_13
REMARK                            x       y       z     vdW  Elec       q    Type
REMARK                         _______ _______ _______ _____ _____    ______ ____
ROOT
ATOM      1  C   UNL     1      47.806   4.105  16.566  0.00  0.00    +0.000 A 
ATOM      2  C   UNL     1      48.327   5.392  16.426  0.00  0.00    +0.000 A 
ATOM      3  C   UNL     1      48.129   6.089  15.238  0.00  0.00    +0.000 A 
ATOM      4  C   UNL     1      47.406   5.487  14.209  0.00  0.00    +0.000 A 
ATOM      5  N   UNL     1      46.855   4.256  14.333  0.00  0.00    +0.000 NA
ATOM      6  C   UNL     1      47.060   3.604  15.505  0.00  0.00    +0.000 A 
ENDROOT
BRANCH   1   7
ATOM      7  C   UNL     1      48.041   3.307  17.813  0.00  0.00    +0.000 C 
BRANCH   7  10
ATOM      8  O   UNL     1      49.685   1.644  16.245  0.00  0.00    +0.000 OA
ATOM      9  C   UNL     1      50.183   2.251  17.188  0.00  0.00    +0.000 C 
ATOM     10  N   UNL     1      49.440   3.039  18.028  0.00  0.00    +0.000 N 
ATOM     11  H   UNL     1      49.910   3.622  18.710  0.00  0.00    +0.000 HD
BRANCH   9  12
ATOM     12  C   UNL     1      51.612   2.131  17.505  0.00  0.00    +0.000 A 
ATOM     13  C   UNL     1      52.190   0.874  17.623  0.00  0.00    +0.000 A 
ATOM     14  S   UNL     1      53.862   0.918  17.965  0.00  0.00    +0.000 S 
ATOM     15  C   UNL     1      53.880   2.618  17.928  0.00  0.00    +0.000 A 
ATOM     16  N   UNL     1      55.039   3.310  18.099  0.00  0.00    +0.000 NA
ATOM     17  C   UNL     1      54.915   4.589  17.996  0.00  0.00    +0.000 A 
ATOM     18  N   UNL     1      53.733   5.246  17.762  0.00  0.00    +0.000 N 
ATOM     19  C   UNL     1      52.528   4.599  17.689  0.00  0.00    +0.000 A 
ATOM     20  O   UNL     1      51.474   5.215  17.665  0.00  0.00    +0.000 OA
ATOM     21  C   UNL     1      52.619   3.146  17.709  0.00  0.00    +0.000 A 
ATOM     22  H   UNL     1      53.699   6.253  17.745  0.00  0.00    +0.000 HD
ENDBRANCH   9  12
ENDBRANCH   7  10
ENDBRANCH   1   7
BRANCH   4  23
ATOM     23  C   UNL     1      47.186   6.222  12.906  0.00  0.00    +0.000 C 
BRANCH  23  24
ATOM     24  C   UNL     1      45.729   6.107  12.437  0.00  0.00    +0.000 C 
BRANCH  24  25
ATOM     25  O   UNL     1      44.938   7.078  13.137  0.00  0.00    +0.000 OA
ATOM     26  H   UNL     1      44.585   6.663  13.942  0.00  0.00    +0.000 HD
ENDBRANCH  24  25
BRANCH  24  27
ATOM     27  C   UNL     1      45.611   6.329  10.916  0.00  0.00    +0.000 C 
BRANCH  27  28
ATOM     28  C   UNL     1      45.338   5.042  10.173  0.00  0.00    +0.000 A 
ATOM     29  C   UNL     1      44.669   3.988  10.791  0.00  0.00    +0.000 A 
ATOM     30  C   UNL     1      44.358   2.856  10.044  0.00  0.00    +0.000 A 
ATOM     31  C   UNL     1      44.737   2.795   8.710  0.00  0.00    +0.000 A 
ATOM     32  C   UNL     1      45.425   3.872   8.179  0.00  0.00    +0.000 A 
ATOM     33  N   UNL     1      45.734   4.989   8.876  0.00  0.00    +0.000 NA
ENDBRANCH  27  28
ENDBRANCH  24  27
ENDBRANCH  23  24
ENDBRANCH   4  23
TORSDOF 8
ENDMDL
MODEL 8
REMARK VINA RESULT:    -7.116      2.855      8.499
REMARK INTER + INTRA:         -11.364
REMARK INTER:                  -9.648
REMARK INTRA:                  -1.716
REMARK UNBOUND:                -1.128
REMARK  Name = 
REMARK  8 active torsions:
REMARK  status: ('A' for Active; 'I' for Inactive)
REMARK    1  A    between atoms: C_2  and  C_21
REMARK    2  A    between atoms: N_3  and  C_4
REMARK    3  A    between atoms: C_4  and  C_5
REMARK    4  A    between atoms: C_8  and  C_9
REMARK    5  A    between atoms: C_9  and  C_10
REMARK    6  A    between atoms: C_10  and  O_11
REMARK    7  A    between atoms: C_10  and  C_12
REMARK    8  A    between atoms: C_12  and  C_13
REMARK                            x       y       z     vdW  Elec       q    Type
REMARK                         _______ _______ _______ _____ _____    ______ ____
ROOT
ATOM      1  C   UNL     1      48.116   8.117  13.137  0.00  0.00    +0.000 A 
ATOM      2  C   UNL     1      49.402   7.577  13.100  0.00  0.00    +0.000 A 
ATOM      3  C   UNL     1      50.221   7.670  14.221  0.00  0.00    +0.000 A 
ATOM      4  C   UNL     1      49.735   8.298  15.367  0.00  0.00    +0.000 A 
ATOM      5  N   UNL     1      48.478   8.795  15.444  0.00  0.00    +0.000 NA
ATOM      6  C   UNL     1      47.701   8.683  14.338  0.00  0.00    +0.000 A 
ENDROOT
BRANCH   1   7
ATOM      7  C   UNL     1      47.225   8.077  11.933  0.00  0.00    +0.000 C 
BRANCH   7  10
ATOM      8  O   UNL     1      44.461   7.610  11.661  0.00  0.00    +0.000 OA
ATOM      9  C   UNL     1      45.232   6.657  11.603  0.00  0.00    +0.000 C 
ATOM     10  N   UNL     1      46.585   6.796  11.777  0.00  0.00    +0.000 N 
ATOM     11  H   UNL     1      47.195   6.008  11.592  0.00  0.00    +0.000 HD
BRANCH   9  12
ATOM     12  C   UNL     1      44.742   5.289  11.389  0.00  0.00    +0.000 A 
ATOM     13  C   UNL     1      43.996   4.660  12.377  0.00  0.00    +0.000 A 
ATOM     14  S   UNL     1      43.483   3.088  11.952  0.00  0.00    +0.000 S 
ATOM     15  C   UNL     1      44.206   3.209  10.417  0.00  0.00    +0.000 A 
ATOM     16  N   UNL     1      44.096   2.200   9.511  0.00  0.00    +0.000 NA
ATOM     17  C   UNL     1      44.649   2.446   8.372  0.00  0.00    +0.000 A 
ATOM     18  N   UNL     1      45.325   3.599   8.061  0.00  0.00    +0.000 N 
ATOM     19  C   UNL     1      45.551   4.594   8.974  0.00  0.00    +0.000 A 
ATOM     20  O   UNL     1      46.307   5.522   8.733  0.00  0.00    +0.000 OA
ATOM     21  C   UNL     1      44.873   4.410  10.250  0.00  0.00    +0.000 A 
ATOM     22  H   UNL     1      45.778   3.705   7.167  0.00  0.00    +0.000 HD
ENDBRANCH   9  12
ENDBRANCH   7  10
ENDBRANCH   1   7
BRANCH   4  23
ATOM     23  C   UNL     1      50.610   8.419  16.595  0.00  0.00    +0.000 C 
BRANCH  23  24
ATOM     24  C   UNL     1      50.245   7.365  17.649  0.00  0.00    +0.000 C 
BRANCH  24  25
ATOM     25  O   UNL     1      48.828   7.401  17.870  0.00  0.00    +0.000 OA
ATOM     26  H   UNL     1      48.386   7.506  17.010  0.00  0.00    +0.000 HD
ENDBRANCH  24  25
BRANCH  24  27
ATOM     27  C   UNL     1      50.673   5.954  17.201  0.00  0.00    +0.000 C 
BRANCH  27  28
ATOM     28  C   UNL     1      49.522   4.974  17.231  0.00  0.00    +0.000 A 
ATOM     29  C   UNL     1      49.406   4.040  18.259  0.00  0.00    +0.000 A 
ATOM     30  C   UNL     1      48.284   3.217  18.299  0.00  0.00    +0.000 A 
ATOM     31  C   UNL     1      47.319   3.332  17.307  0.00  0.00    +0.000 A 
ATOM     32  C   UNL     1      47.524   4.266  16.305  0.00  0.00    +0.000 A 
ATOM     33  N   UNL     1      48.598   5.085  16.243  0.00  0.00    +0.000 NA
ENDBRANCH  27  28
ENDBRANCH  24  27
ENDBRANCH  23  24
ENDBRANCH   4  23
TORSDOF 8
ENDMDL
MODEL 9
REMARK VINA RESULT:    -7.021      4.898      9.422
REMARK INTER + INTRA:         -11.227
REMARK INTER:                 -10.178
REMARK INTRA:                  -1.048
REMARK UNBOUND:                -1.128
REMARK  Name = 
REMARK  8 active torsions:
REMARK  status: ('A' for Active; 'I' for Inactive)
REMARK    1  A    between atoms: C_2  and  C_21
REMARK    2  A    between atoms: N_3  and  C_4
REMARK    3  A    between atoms: C_4  and  C_5
REMARK    4  A    between atoms: C_8  and  C_9
REMARK    5  A    between atoms: C_9  and  C_10
REMARK    6  A    between atoms: C_10  and  O_11
REMARK    7  A    between atoms: C_10  and  C_12
REMARK    8  A    between atoms: C_12  and  C_13
REMARK                            x       y       z     vdW  Elec       q    Type
REMARK                         _______ _______ _______ _____ _____    ______ ____
ROOT
ATOM      1  C   UNL     1      48.688   3.218  17.116  0.00  0.00    +0.000 A 
ATOM      2  C   UNL     1      49.497   4.178  17.725  0.00  0.00    +0.000 A 
ATOM      3  C   UNL     1      50.861   3.943  17.863  0.00  0.00    +0.000 A 
ATOM      4  C   UNL     1      51.397   2.749  17.381  0.00  0.00    +0.000 A 
ATOM      5  N   UNL     1      50.643   1.818  16.750  0.00  0.00    +0.000 NA
ATOM      6  C   UNL     1      49.318   2.078  16.625  0.00  0.00    +0.000 A 
ENDROOT
BRANCH   1   7
ATOM      7  C   UNL     1      47.208   3.417  16.993  0.00  0.00    +0.000 C 
BRANCH   7  10
ATOM      8  O   UNL     1      47.196   3.055  14.200  0.00  0.00    +0.000 OA
ATOM      9  C   UNL     1      46.849   4.139  14.660  0.00  0.00    +0.000 C 
ATOM     10  N   UNL     1      46.876   4.410  16.004  0.00  0.00    +0.000 N 
ATOM     11  H   UNL     1      46.461   5.267  16.348  0.00  0.00    +0.000 HD
BRANCH   9  12
ATOM     12  C   UNL     1      46.425   5.240  13.784  0.00  0.00    +0.000 A 
ATOM     13  C   UNL     1      47.271   6.321  13.575  0.00  0.00    +0.000 A 
ATOM     14  S   UNL     1      46.635   7.493  12.509  0.00  0.00    +0.000 S 
ATOM     15  C   UNL     1      45.223   6.577  12.260  0.00  0.00    +0.000 A 
ATOM     16  N   UNL     1      44.259   6.998  11.397  0.00  0.00    +0.000 NA
ATOM     17  C   UNL     1      43.269   6.183  11.266  0.00  0.00    +0.000 A 
ATOM     18  N   UNL     1      43.138   4.994  11.938  0.00  0.00    +0.000 N 
ATOM     19  C   UNL     1      44.030   4.581  12.893  0.00  0.00    +0.000 A 
ATOM     20  O   UNL     1      43.800   3.616  13.605  0.00  0.00    +0.000 OA
ATOM     21  C   UNL     1      45.214   5.419  13.018  0.00  0.00    +0.000 A 
ATOM     22  H   UNL     1      42.312   4.428  11.828  0.00  0.00    +0.000 HD
ENDBRANCH   9  12
ENDBRANCH   7  10
ENDBRANCH   1   7
BRANCH   4  23
ATOM     23  C   UNL     1      52.876   2.468  17.528  0.00  0.00    +0.000 C 
BRANCH  23  24
ATOM     24  C   UNL     1      53.134   1.334  18.529  0.00  0.00    +0.000 C 
BRANCH  24  25
ATOM     25  O   UNL     1      52.217   0.263  18.264  0.00  0.00    +0.000 OA
ATOM     26  H   UNL     1      52.697  -0.579  18.347  0.00  0.00    +0.000 HD
ENDBRANCH  24  25
BRANCH  24  27
ATOM     27  C   UNL     1      54.584   0.822  18.433  0.00  0.00    +0.000 C 
BRANCH  27  28
ATOM     28  C   UNL     1      54.660  -0.560  17.825  0.00  0.00    +0.000 A 
ATOM     29  C   UNL     1      54.958  -0.731  16.475  0.00  0.00    +0.000 A 
ATOM     30  C   UNL     1      55.107  -2.021  15.975  0.00  0.00    +0.000 A 
ATOM     31  C   UNL     1      54.939  -3.105  16.826  0.00  0.00    +0.000 A 
ATOM     32  C   UNL     1      54.616  -2.850  18.148  0.00  0.00    +0.000 A 
ATOM     33  N   UNL     1      54.472  -1.609  18.665  0.00  0.00    +0.000 NA
ENDBRANCH  27  28
ENDBRANCH  24  27
ENDBRANCH  23  24
ENDBRANCH   4  23
TORSDOF 8
ENDMDL
