MODEL 1
REMARK VINA RESULT:    -7.097      0.000      0.000
REMARK INTER + INTRA:          -9.376
REMARK INTER:                  -8.964
REMARK INTRA:                  -0.412
REMARK UNBOUND:                -0.412
REMARK  Name = 
REMARK  5 active torsions:
REMARK  status: ('A' for Active; 'I' for Inactive)
REMARK    1  A    between atoms: N_1  and  C_2
REMARK    2  A    between atoms: C_2  and  C_3
REMARK    3  A    between atoms: C_6  and  O_7
REMARK    4  A    between atoms: O_7  and  C_8
REMARK    5  A    between atoms: C_8  and  C_9
REMARK                            x       y       z     vdW  Elec       q    Type
REMARK                         _______ _______ _______ _____ _____    ______ ____
ROOT
ATOM      1  C   UNL     1      46.501   2.238   7.586  0.00  0.00    +0.000 A 
ATOM      2  C   UNL     1      46.221   3.604   7.644  0.00  0.00    +0.000 A 
ATOM      3  C   UNL     1      45.274   4.084   8.550  0.00  0.00    +0.000 A 
ATOM      4  C   UNL     1      44.625   3.181   9.381  0.00  0.00    +0.000 A 
ATOM      5  N   UNL     1      44.856   1.853   9.323  0.00  0.00    +0.000 NA
ATOM      6  C   UNL     1      45.780   1.414   8.440  0.00  0.00    +0.000 A 
ENDROOT
BRANCH   1   7
ATOM      7  C   UNL     1      47.527   1.680   6.643  0.00  0.00    +0.000 C 
BRANCH   7   8
ATOM      8  N   UNL     1      48.594   2.643   6.390  0.00  0.00    +0.000 NA
ATOM      9  H   UNL     1      48.323   3.251   5.620  0.00  0.00    +0.000 HD
ATOM     10  H   UNL     1      49.425   2.142   6.079  0.00  0.00    +0.000 HD
ENDBRANCH   7   8
ENDBRANCH   1   7
BRANCH   4  11
ATOM     11  O   UNL     1      43.650   3.519  10.274  0.00  0.00    +0.000 OA
BRANCH  11  12
ATOM     12  C   UNL     1      43.805   2.973  11.584  0.00  0.00    +0.000 C 
BRANCH  12  13
ATOM     13  C   UNL     1      44.833   3.782  12.351  0.00  0.00    +0.000 A 
ATOM     14  N   UNL     1      44.657   5.117  12.434  0.00  0.00    +0.000 NA
ATOM     15  C   UNL     1      45.601   5.807  13.107  0.00  0.00    +0.000 A 
ATOM     16  C   UNL     1      46.693   5.220  13.702  0.00  0.00    +0.000 A 
ATOM     17  C   UNL     1      46.772   3.854  13.574  0.00  0.00    +0.000 A 
ATOM     18  N   UNL     1      45.861   3.113  12.915  0.00  0.00    +0.000 NA
ENDBRANCH  12  13
ENDBRANCH  11  12
ENDBRANCH   4  11
TORSDOF 5
ENDMDL
MODEL 2
REMARK VINA RESULT:    -6.460      1.530      5.597
REMARK INTER + INTRA:          -8.571
REMARK INTER:                  -8.217
REMARK INTRA:                  -0.354
REMARK UNBOUND:                -0.412
REMARK  Name = 
REMARK  5 active torsions:
REMARK  status: ('A' for Active; 'I' for Inactive)
REMARK    1  A    between atoms: N_1  and  C_2
REMARK    2  A    between atoms: C_2  and  C_3
REMARK    3  A    between atoms: C_6  and  O_7
REMARK    4  A    between atoms: O_7  and  C_8
REMARK    5  A    between atoms: C_8  and  C_9
REMARK                            x       y       z     vdW  Elec       q    Type
REMARK                         _______ _______ _______ _____ _____    ______ ____
ROOT
ATOM      1  C   UNL     1      46.224   4.612  13.236  0.00  0.00    +0.000 A 
ATOM      2  C   UNL     1      46.221   5.681  12.338  0.00  0.00    +0.000 A 
ATOM      3  C   UNL     1      45.601   5.547  11.096  0.00  0.00    +0.000 A 
ATOM      4  C   UNL     1      44.994   4.340  10.777  0.00  0.00    +0.000 A 
ATOM      5  N   UNL     1      45.009   3.282  11.615  0.00  0.00    +0.000 NA
ATOM      6  C   UNL     1      45.614   3.439  12.814  0.00  0.00    +0.000 A 
ENDROOT
BRANCH   1   7
ATOM      7  C   UNL     1      46.860   4.718  14.591  0.00  0.00    +0.000 C 
BRANCH   7   8
ATOM      8  N   UNL     1      47.458   3.451  14.997  0.00  0.00    +0.000 NA
ATOM      9  H   UNL     1      48.061   3.109  14.250  0.00  0.00    +0.000 HD
ATOM     10  H   UNL     1      46.720   2.757  15.109  0.00  0.00    +0.000 HD
ENDBRANCH   7   8
ENDBRANCH   1   7
BRANCH   4  11
ATOM     11  O   UNL     1      44.396   4.069   9.581  0.00  0.00    +0.000 OA
BRANCH  11  12
ATOM     12  C   UNL     1      44.450   2.705   9.163  0.00  0.00    +0.000 C 
BRANCH  12  13
ATOM     13  C   UNL     1      45.578   2.527   8.165  0.00  0.00    +0.000 A 
ATOM     14  N   UNL     1      45.820   3.527   7.293  0.00  0.00    +0.000 NA
ATOM     15  C   UNL     1      46.817   3.326   6.408  0.00  0.00    +0.000 A 
ATOM     16  C   UNL     1      47.581   2.183   6.370  0.00  0.00    +0.000 A 
ATOM     17  C   UNL     1      47.268   1.232   7.310  0.00  0.00    +0.000 A 
ATOM     18  N   UNL     1      46.283   1.376   8.217  0.00  0.00    +0.000 NA
ENDBRANCH  12  13
ENDBRANCH  11  12
ENDBRANCH   4  11
TORSDOF 5
ENDMDL
MODEL 3
REMARK VINA RESULT:    -6.386      1.512      5.718
REMARK INTER + INTRA:          -8.479
REMARK INTER:                  -8.143
REMARK INTRA:                  -0.335
REMARK UNBOUND:                -0.412
REMARK  Name = 
REMARK  5 active torsions:
REMARK  status: ('A' for Active; 'I' for Inactive)
REMARK    1  A    between atoms: N_1  and  C_2
REMARK    2  A    between atoms: C_2  and  C_3
REMARK    3  A    between atoms: C_6  and  O_7
REMARK    4  A    between atoms: O_7  and  C_8
REMARK    5  A    between atoms: C_8  and  C_9
REMARK                            x       y       z     vdW  Elec       q    Type
REMARK                         _______ _______ _______ _____ _____    ______ ____
ROOT
ATOM      1  C   UNL     1      46.386   4.967  13.061  0.00  0.00    +0.000 A 
ATOM      2  C   UNL     1      46.246   5.896  12.028  0.00  0.00    +0.000 A 
ATOM      3  C   UNL     1      45.507   5.570  10.891  0.00  0.00    +0.000 A 
ATOM      4  C   UNL     1      44.921   4.314  10.811  0.00  0.00    +0.000 A 
ATOM      5  N   UNL     1      45.065   3.388  11.781  0.00  0.00    +0.000 NA
ATOM      6  C   UNL     1      45.783   3.730  12.875  0.00  0.00    +0.000 A 
ENDROOT
BRANCH   1   7
ATOM      7  C   UNL     1      47.153   5.282  14.312  0.00  0.00    +0.000 C 
BRANCH   7   8
ATOM      8  N   UNL     1      46.780   4.387  15.402  0.00  0.00    +0.000 NA
ATOM      9  H   UNL     1      47.363   3.552  15.366  0.00  0.00    +0.000 HD
ATOM     10  H   UNL     1      45.822   4.072  15.259  0.00  0.00    +0.000 HD
ENDBRANCH   7   8
ENDBRANCH   1   7
BRANCH   4  11
ATOM     11  O   UNL     1      44.214   3.860   9.736  0.00  0.00    +0.000 OA
BRANCH  11  12
ATOM     12  C   UNL     1      44.403   2.481   9.417  0.00  0.00    +0.000 C 
BRANCH  12  13
ATOM     13  C   UNL     1      45.477   2.350   8.356  0.00  0.00    +0.000 A 
ATOM     14  N   UNL     1      46.182   1.201   8.302  0.00  0.00    +0.000 NA
ATOM     15  C   UNL     1      47.143   1.127   7.359  0.00  0.00    +0.000 A 
ATOM     16  C   UNL     1      47.415   2.140   6.470  0.00  0.00    +0.000 A 
ATOM     17  C   UNL     1      46.632   3.262   6.595  0.00  0.00    +0.000 A 
ATOM     18  N   UNL     1      45.659   3.393   7.517  0.00  0.00    +0.000 NA
ENDBRANCH  12  13
ENDBRANCH  11  12
ENDBRANCH   4  11
TORSDOF 5
ENDMDL
MODEL 4
REMARK VINA RESULT:    -5.830      1.946      5.632
REMARK INTER + INTRA:          -7.776
REMARK INTER:                  -7.461
REMARK INTRA:                  -0.315
REMARK UNBOUND:                -0.412
REMARK  Name = 
REMARK  5 active torsions:
REMARK  status: ('A' for Active; 'I' for Inactive)
REMARK    1  A    between atoms: N_1  and  C_2
REMARK    2  A    between atoms: C_2  and  C_3
REMARK    3  A    between atoms: C_6  and  O_7
REMARK    4  A    between atoms: O_7  and  C_8
REMARK    5  A    between atoms: C_8  and  C_9
REMARK                            x       y       z     vdW  Elec       q    Type
REMARK                         _______ _______ _______ _____ _____    ______ ____
ROOT
ATOM      1  C   UNL     1      47.557   6.341  13.127  0.00  0.00    +0.000 A 
ATOM      2  C   UNL     1      46.934   6.918  12.018  0.00  0.00    +0.000 A 
ATOM      3  C   UNL     1      45.868   6.265  11.399  0.00  0.00    +0.000 A 
ATOM      4  C   UNL     1      45.445   5.043  11.905  0.00  0.00    +0.000 A 
ATOM      5  N   UNL     1      46.049   4.451  12.956  0.00  0.00    +0.000 NA
ATOM      6  C   UNL     1      47.078   5.105  13.541  0.00  0.00    +0.000 A 
ENDROOT
BRANCH   1   7
ATOM      7  C   UNL     1      48.693   7.017  13.837  0.00  0.00    +0.000 C 
BRANCH   7   8
ATOM      8  N   UNL     1      49.010   6.342  15.091  0.00  0.00    +0.000 NA
ATOM      9  H   UNL     1      49.690   6.896  15.609  0.00  0.00    +0.000 HD
ATOM     10  H   UNL     1      49.464   5.454  14.883  0.00  0.00    +0.000 HD
ENDBRANCH   7   8
ENDBRANCH   1   7
BRANCH   4  11
ATOM     11  O   UNL     1      44.446   4.288  11.363  0.00  0.00    +0.000 OA
BRANCH  11  12
ATOM     12  C   UNL     1      44.138   4.569   9.998  0.00  0.00    +0.000 C 
BRANCH  12  13
ATOM     13  C   UNL     1      45.022   3.730   9.096  0.00  0.00    +0.000 A 
ATOM     14  N   UNL     1      45.703   4.354   8.113  0.00  0.00    +0.000 NA
ATOM     15  C   UNL     1      46.463   3.574   7.318  0.00  0.00    +0.000 A 
ATOM     16  C   UNL     1      46.579   2.213   7.475  0.00  0.00    +0.000 A 
ATOM     17  C   UNL     1      45.859   1.675   8.515  0.00  0.00    +0.000 A 
ATOM     18  N   UNL     1      45.083   2.403   9.340  0.00  0.00    +0.000 NA
ENDBRANCH  12  13
ENDBRANCH  11  12
ENDBRANCH   4  11
TORSDOF 5
ENDMDL
MODEL 5
REMARK VINA RESULT:    -5.800      1.948      2.422
REMARK INTER + INTRA:          -7.738
REMARK INTER:                  -7.474
REMARK INTRA:                  -0.265
REMARK UNBOUND:                -0.412
REMARK  Name = 
REMARK  5 active torsions:
REMARK  status: ('A' for Active; 'I' for Inactive)
REMARK    1  A    between atoms: N_1  and  C_2
REMARK    2  A    between atoms: C_2  and  C_3
REMARK    3  A    between atoms: C_6  and  O_7
REMARK    4  A    between atoms: O_7  and  C_8
REMARK    5  A    between atoms: C_8  and  C_9
REMARK                            x       y       z     vdW  Elec       q    Type
REMARK                         _______ _______ _______ _____ _____    ______ ____
ROOT
ATOM      1  C   UNL     1      46.723   1.745   7.414  0.00  0.00    +0.000 A 
ATOM      2  C   UNL     1      47.223   2.933   6.877  0.00  0.00    +0.000 A 
ATOM      3  C   UNL     1      46.776   4.162   7.363  0.00  0.00    +0.000 A 
ATOM      4  C   UNL     1      45.832   4.176   8.381  0.00  0.00    +0.000 A 
ATOM      5  N   UNL     1      45.311   3.043   8.896  0.00  0.00    +0.000 NA
ATOM      6  C   UNL     1      45.763   1.865   8.410  0.00  0.00    +0.000 A 
ENDROOT
BRANCH   1   7
ATOM      7  C   UNL     1      47.190   0.401   6.937  0.00  0.00    +0.000 C 
BRANCH   7   8
ATOM      8  N   UNL     1      46.802  -0.655   7.866  0.00  0.00    +0.000 NA
ATOM      9  H   UNL     1      46.726  -1.536   7.361  0.00  0.00    +0.000 HD
ATOM     10  H   UNL     1      45.871  -0.452   8.228  0.00  0.00    +0.000 HD
ENDBRANCH   7   8
ENDBRANCH   1   7
BRANCH   4  11
ATOM     11  O   UNL     1      45.284   5.309   8.909  0.00  0.00    +0.000 OA
BRANCH  11  12
ATOM     12  C   UNL     1      45.784   5.690  10.191  0.00  0.00    +0.000 C 
BRANCH  12  13
ATOM     13  C   UNL     1      44.740   5.390  11.249  0.00  0.00    +0.000 A 
ATOM     14  N   UNL     1      43.482   5.834  11.045  0.00  0.00    +0.000 NA
ATOM     15  C   UNL     1      42.584   5.567  12.016  0.00  0.00    +0.000 A 
ATOM     16  C   UNL     1      42.889   4.871  13.162  0.00  0.00    +0.000 A 
ATOM     17  C   UNL     1      44.191   4.448  13.268  0.00  0.00    +0.000 A 
ATOM     18  N   UNL     1      45.131   4.685  12.333  0.00  0.00    +0.000 NA
ENDBRANCH  12  13
ENDBRANCH  11  12
ENDBRANCH   4  11
TORSDOF 5
ENDMDL
MODEL 6
REMARK VINA RESULT:    -5.653      3.037      4.292
REMARK INTER + INTRA:          -7.553
REMARK INTER:                  -7.315
REMARK INTRA:                  -0.237
REMARK UNBOUND:                -0.412
REMARK  Name = 
REMARK  5 active torsions:
REMARK  status: ('A' for Active; 'I' for Inactive)
REMARK    1  A    between atoms: N_1  and  C_2
REMARK    2  A    between atoms: C_2  and  C_3
REMARK    3  A    between atoms: C_6  and  O_7
REMARK    4  A    between atoms: O_7  and  C_8
REMARK    5  A    between atoms: C_8  and  C_9
REMARK                            x       y       z     vdW  Elec       q    Type
REMARK                         _______ _______ _______ _____ _____    ______ ____
ROOT
ATOM      1  C   UNL     1      44.874   4.243  10.113  0.00  0.00    +0.000 A 
ATOM      2  C   UNL     1      45.414   5.389  10.698  0.00  0.00    +0.000 A 
ATOM      3  C   UNL     1      45.778   5.380  12.045  0.00  0.00    +0.000 A 
ATOM      4  C   UNL     1      45.591   4.218  12.781  0.00  0.00    +0.000 A 
ATOM      5  N   UNL     1      45.043   3.106  12.247  0.00  0.00    +0.000 NA
ATOM      6  C   UNL     1      44.703   3.140  10.938  0.00  0.00    +0.000 A 
ENDROOT
BRANCH   1   7
ATOM      7  C   UNL     1      44.489   4.201   8.663  0.00  0.00    +0.000 C 
BRANCH   7   8
ATOM      8  N   UNL     1      45.661   4.306   7.800  0.00  0.00    +0.000 NA
ATOM      9  H   UNL     1      45.725   3.474   7.216  0.00  0.00    +0.000 HD
ATOM     10  H   UNL     1      46.499   4.314   8.380  0.00  0.00    +0.000 HD
ENDBRANCH   7   8
ENDBRANCH   1   7
BRANCH   4  11
ATOM     11  O   UNL     1      45.863   4.096  14.113  0.00  0.00    +0.000 OA
BRANCH  11  12
ATOM     12  C   UNL     1      46.891   4.954  14.608  0.00  0.00    +0.000 C 
BRANCH  12  13
ATOM     13  C   UNL     1      47.476   4.363  15.876  0.00  0.00    +0.000 A 
ATOM     14  N   UNL     1      46.727   3.481  16.571  0.00  0.00    +0.000 NA
ATOM     15  C   UNL     1      47.271   2.991  17.703  0.00  0.00    +0.000 A 
ATOM     16  C   UNL     1      48.524   3.332  18.155  0.00  0.00    +0.000 A 
ATOM     17  C   UNL     1      49.213   4.223  17.368  0.00  0.00    +0.000 A 
ATOM     18  N   UNL     1      48.722   4.747  16.229  0.00  0.00    +0.000 NA
ENDBRANCH  12  13
ENDBRANCH  11  12
ENDBRANCH   4  11
TORSDOF 5
ENDMDL
MODEL 7
REMARK VINA RESULT:    -5.305      3.835      7.827
REMARK INTER + INTRA:          -7.113
REMARK INTER:                  -6.850
REMARK INTRA:                  -0.263
REMARK UNBOUND:                -0.412
REMARK  Name = 
REMARK  5 active torsions:
REMARK  status: ('A' for Active; 'I' for Inactive)
REMARK    1  A    between atoms: N_1  and  C_2
REMARK    2  A    between atoms: C_2  and  C_3
REMARK    3  A    between atoms: C_6  and  O_7
REMARK    4  A    between atoms: O_7  and  C_8
REMARK    5  A    between atoms: C_8  and  C_9
REMARK                            x       y       z     vdW  Elec       q    Type
REMARK                         _______ _______ _______ _____ _____    ______ ____
ROOT
ATOM      1  C   UNL     1      48.394   4.463  18.292  0.00  0.00    +0.000 A 
ATOM      2  C   UNL     1      48.442   5.482  17.339  0.00  0.00    +0.000 A 
ATOM      3  C   UNL     1      47.944   5.260  16.055  0.00  0.00    +0.000 A 
ATOM      4  C   UNL     1      47.407   4.016  15.751  0.00  0.00    +0.000 A 
ATOM      5  N   UNL     1      47.377   3.006  16.644  0.00  0.00    +0.000 NA
ATOM      6  C   UNL     1      47.862   3.247  17.883  0.00  0.00    +0.000 A 
ENDROOT
BRANCH   1   7
ATOM      7  C   UNL     1      48.898   4.663  19.692  0.00  0.00    +0.000 C 
BRANCH   7   8
ATOM      8  N   UNL     1      48.371   3.647  20.596  0.00  0.00    +0.000 NA
ATOM      9  H   UNL     1      48.296   4.036  21.534  0.00  0.00    +0.000 HD
ATOM     10  H   UNL     1      49.039   2.880  20.657  0.00  0.00    +0.000 HD
ENDBRANCH   7   8
ENDBRANCH   1   7
BRANCH   4  11
ATOM     11  O   UNL     1      46.931   3.662  14.522  0.00  0.00    +0.000 OA
BRANCH  11  12
ATOM     12  C   UNL     1      46.707   4.743  13.617  0.00  0.00    +0.000 C 
BRANCH  12  13
ATOM     13  C   UNL     1      45.511   4.429  12.740  0.00  0.00    +0.000 A 
ATOM     14  N   UNL     1      44.564   3.601  13.228  0.00  0.00    +0.000 NA
ATOM     15  C   UNL     1      43.525   3.328  12.414  0.00  0.00    +0.000 A 
ATOM     16  C   UNL     1      43.390   3.854  11.151  0.00  0.00    +0.000 A 
ATOM     17  C   UNL     1      44.398   4.699  10.752  0.00  0.00    +0.000 A 
ATOM     18  N   UNL     1      45.459   5.007  11.521  0.00  0.00    +0.000 NA
ENDBRANCH  12  13
ENDBRANCH  11  12
ENDBRANCH   4  11
TORSDOF 5
ENDMDL
MODEL 8
REMARK VINA RESULT:    -4.839      3.971      6.017
REMARK INTER + INTRA:          -6.524
REMARK INTER:                  -6.279
REMARK INTRA:                  -0.245
REMARK UNBOUND:                -0.412
REMARK  Name = 
REMARK  5 active torsions:
REMARK  status: ('A' for Active; 'I' for Inactive)
REMARK    1  A    between atoms: N_1  and  C_2
REMARK    2  A    between atoms: C_2  and  C_3
REMARK    3  A    between atoms: C_6  and  O_7
REMARK    4  A    between atoms: O_7  and  C_8
REMARK    5  A    between atoms: C_8  and  C_9
REMARK                            x       y       z     vdW  Elec       q    Type
REMARK                         _______ _______ _______ _____ _____    ______ ____
ROOT
ATOM      1  C   UNL     1      44.829   5.093  11.907  0.00  0.00    +0.000 A 
ATOM      2  C   UNL     1      45.665   6.202  12.045  0.00  0.00    +0.000 A 
ATOM      3  C   UNL     1      46.673   6.200  13.009  0.00  0.00    +0.000 A 
ATOM      4  C   UNL     1      46.824   5.082  13.818  0.00  0.00    +0.000 A 
ATOM      5  N   UNL     1      46.011   4.009  13.725  0.00  0.00    +0.000 NA
ATOM      6  C   UNL     1      45.044   4.035  12.780  0.00  0.00    +0.000 A 
ENDROOT
BRANCH   1   7
ATOM      7  C   UNL     1      43.745   5.042  10.870  0.00  0.00    +0.000 C 
BRANCH   7   8
ATOM      8  N   UNL     1      42.778   3.990  11.166  0.00  0.00    +0.000 NA
ATOM      9  H   UNL     1      41.866   4.258  10.799  0.00  0.00    +0.000 HD
ATOM     10  H   UNL     1      42.668   3.916  12.176  0.00  0.00    +0.000 HD
ENDBRANCH   7   8
ENDBRANCH   1   7
BRANCH   4  11
ATOM     11  O   UNL     1      47.741   4.976  14.824  0.00  0.00    +0.000 OA
BRANCH  11  12
ATOM     12  C   UNL     1      47.340   4.174  15.935  0.00  0.00    +0.000 C 
BRANCH  12  13
ATOM     13  C   UNL     1      48.298   4.395  17.089  0.00  0.00    +0.000 A 
ATOM     14  N   UNL     1      49.603   4.109  16.897  0.00  0.00    +0.000 NA
ATOM     15  C   UNL     1      50.422   4.299  17.951  0.00  0.00    +0.000 A 
ATOM     16  C   UNL     1      49.996   4.770  19.170  0.00  0.00    +0.000 A 
ATOM     17  C   UNL     1      48.653   5.047  19.260  0.00  0.00    +0.000 A 
ATOM     18  N   UNL     1      47.788   4.877  18.243  0.00  0.00    +0.000 NA
ENDBRANCH  12  13
ENDBRANCH  11  12
ENDBRANCH   4  11
TORSDOF 5
ENDMDL
MODEL 9
REMARK VINA RESULT:    -4.527      3.449      6.407
REMARK INTER + INTRA:          -6.130
REMARK INTER:                  -5.841
REMARK INTRA:                  -0.289
REMARK UNBOUND:                -0.412
REMARK  Name = 
REMARK  5 active torsions:
REMARK  status: ('A' for Active; 'I' for Inactive)
REMARK    1  A    between atoms: N_1  and  C_2
REMARK    2  A    between atoms: C_2  and  C_3
REMARK    3  A    between atoms: C_6  and  O_7
REMARK    4  A    between atoms: O_7  and  C_8
REMARK    5  A    between atoms: C_8  and  C_9
REMARK                            x       y       z     vdW  Elec       q    Type
REMARK                         _______ _______ _______ _____ _____    ______ ____
ROOT
ATOM      1  C   UNL     1      49.677   7.734  13.690  0.00  0.00    +0.000 A 
ATOM      2  C   UNL     1      49.120   7.803  12.411  0.00  0.00    +0.000 A 
ATOM      3  C   UNL     1      48.020   7.009  12.085  0.00  0.00    +0.000 A 
ATOM      4  C   UNL     1      47.500   6.158  13.050  0.00  0.00    +0.000 A 
ATOM      5  N   UNL     1      48.037   6.050  14.283  0.00  0.00    +0.000 NA
ATOM      6  C   UNL     1      49.101   6.833  14.576  0.00  0.00    +0.000 A 
ENDROOT
BRANCH   1   7
ATOM      7  C   UNL     1      50.846   8.585  14.091  0.00  0.00    +0.000 C 
BRANCH   7   8
ATOM      8  N   UNL     1      52.092   7.826  14.055  0.00  0.00    +0.000 NA
ATOM      9  H   UNL     1      52.448   7.716  15.002  0.00  0.00    +0.000 HD
ATOM     10  H   UNL     1      52.793   8.364  13.547  0.00  0.00    +0.000 HD
ENDBRANCH   7   8
ENDBRANCH   1   7
BRANCH   4  11
ATOM     11  O   UNL     1      46.458   5.301  12.842  0.00  0.00    +0.000 OA
BRANCH  11  12
ATOM     12  C   UNL     1      45.403   5.808  12.023  0.00  0.00    +0.000 C 
BRANCH  12  13
ATOM     13  C   UNL     1      45.158   4.855  10.869  0.00  0.00    +0.000 A 
ATOM     14  N   UNL     1      44.503   3.703  11.125  0.00  0.00    +0.000 NA
ATOM     15  C   UNL     1      44.319   2.871  10.079  0.00  0.00    +0.000 A 
ATOM     16  C   UNL     1      44.748   3.148   8.802  0.00  0.00    +0.000 A 
ATOM     17  C   UNL     1      45.389   4.352   8.643  0.00  0.00    +0.000 A 
ATOM     18  N   UNL     1      45.601   5.223   9.648  0.00  0.00    +0.000 NA
ENDBRANCH  12  13
ENDBRANCH  11  12
ENDBRANCH   4  11
TORSDOF 5
ENDMDL
