MODEL 1
REMARK VINA RESULT:    -7.362      0.000      0.000
REMARK INTER + INTRA:          -9.504
REMARK INTER:                  -9.084
REMARK INTRA:                  -0.420
REMARK UNBOUND:                -0.420
REMARK  Name = 
REMARK  5 active torsions:
REMARK  status: ('A' for Active; 'I' for Inactive)
REMARK    1  A    between atoms: C_1  and  C_2
REMARK    2  A    between atoms: C_2  and  C_3
REMARK    3  A    between atoms: C_2  and  C_14
REMARK    4  A    between atoms: C_3  and  N_4
REMARK    5  A    between atoms: C_9  and  C_10
REMARK                            x       y       z     vdW  Elec       q    Type
REMARK                         _______ _______ _______ _____ _____    ______ ____
ROOT
ATOM      1  N   UNL     1      45.540   4.854  11.102  0.00  0.00    +0.000 N 
ATOM      2  C   UNL     1      45.728   6.096  11.678  0.00  0.00    +0.000 A 
ATOM      3  N   UNL     1      46.710   6.170  12.586  0.00  0.00    +0.000 NA
ATOM      4  C   UNL     1      46.902   7.351  13.203  0.00  0.00    +0.000 A 
ATOM      5  C   UNL     1      46.157   8.466  12.939  0.00  0.00    +0.000 A 
ATOM      6  C   UNL     1      45.187   8.288  11.983  0.00  0.00    +0.000 A 
ATOM      7  N   UNL     1      44.949   7.123  11.335  0.00  0.00    +0.000 NA
ATOM      8  H   UNL     1      46.401   4.337  11.245  0.00  0.00    +0.000 HD
ENDROOT
BRANCH   6   9
ATOM      9  C   UNL     1      44.309   9.436  11.602  0.00  0.00    +0.000 C 
ATOM     10  N   UNL     1      43.303   9.140  10.722  0.00  0.00    +0.000 N 
ATOM     11  O   UNL     1      44.470  10.565  12.047  0.00  0.00    +0.000 OA
ATOM     12  H   UNL     1      43.176   8.182  10.415  0.00  0.00    +0.000 HD
ATOM     13  H   UNL     1      42.646   9.857  10.455  0.00  0.00    +0.000 HD
ENDBRANCH   6   9
BRANCH   1  14
ATOM     14  C   UNL     1      45.061   4.863   9.737  0.00  0.00    +0.000 C 
BRANCH  14  16
ATOM     15  C   UNL     1      44.112   2.564  10.385  0.00  0.00    +0.000 C 
ATOM     16  C   UNL     1      44.784   3.433   9.367  0.00  0.00    +0.000 C 
BRANCH  16  17
ATOM     17  C   UNL     1      45.614   2.822   8.319  0.00  0.00    +0.000 A 
ATOM     18  C   UNL     1      46.053   3.577   7.225  0.00  0.00    +0.000 A 
ATOM     19  C   UNL     1      46.914   3.017   6.278  0.00  0.00    +0.000 A 
ATOM     20  C   UNL     1      47.345   1.699   6.419  0.00  0.00    +0.000 A 
ATOM     21  C   UNL     1      46.898   0.933   7.494  0.00  0.00    +0.000 A 
ATOM     22  C   UNL     1      46.029   1.489   8.432  0.00  0.00    +0.000 A 
ENDBRANCH  16  17
ENDBRANCH  14  16
ENDBRANCH   1  14
TORSDOF 4
ENDMDL
MODEL 2
REMARK VINA RESULT:    -7.307      2.131      2.837
REMARK INTER + INTRA:          -9.436
REMARK INTER:                  -8.952
REMARK INTRA:                  -0.484
REMARK UNBOUND:                -0.420
REMARK  Name = 
REMARK  5 active torsions:
REMARK  status: ('A' for Active; 'I' for Inactive)
REMARK    1  A    between atoms: C_1  and  C_2
REMARK    2  A    between atoms: C_2  and  C_3
REMARK    3  A    between atoms: C_2  and  C_14
REMARK    4  A    between atoms: C_3  and  N_4
REMARK    5  A    between atoms: C_9  and  C_10
REMARK                            x       y       z     vdW  Elec       q    Type
REMARK                         _______ _______ _______ _____ _____    ______ ____
ROOT
ATOM      1  N   UNL     1      44.600   4.679  11.335  0.00  0.00    +0.000 N 
ATOM      2  C   UNL     1      45.620   5.045  12.192  0.00  0.00    +0.000 A 
ATOM      3  N   UNL     1      45.621   4.433  13.383  0.00  0.00    +0.000 NA
ATOM      4  C   UNL     1      46.574   4.788  14.267  0.00  0.00    +0.000 A 
ATOM      5  C   UNL     1      47.532   5.725  14.000  0.00  0.00    +0.000 A 
ATOM      6  C   UNL     1      47.451   6.282  12.748  0.00  0.00    +0.000 A 
ATOM      7  N   UNL     1      46.514   5.963  11.823  0.00  0.00    +0.000 NA
ATOM      8  H   UNL     1      44.258   3.781  11.661  0.00  0.00    +0.000 HD
ENDROOT
BRANCH   6   9
ATOM      9  C   UNL     1      48.448   7.316  12.334  0.00  0.00    +0.000 C 
ATOM     10  N   UNL     1      49.758   6.996  12.563  0.00  0.00    +0.000 N 
ATOM     11  O   UNL     1      48.119   8.379  11.820  0.00  0.00    +0.000 OA
ATOM     12  H   UNL     1      49.989   6.086  12.947  0.00  0.00    +0.000 HD
ATOM     13  H   UNL     1      50.486   7.629  12.269  0.00  0.00    +0.000 HD
ENDBRANCH   6   9
BRANCH   1  14
ATOM     14  C   UNL     1      44.919   4.728   9.925  0.00  0.00    +0.000 C 
BRANCH  14  16
ATOM     15  C   UNL     1      44.064   2.330  10.270  0.00  0.00    +0.000 C 
ATOM     16  C   UNL     1      44.750   3.332   9.394  0.00  0.00    +0.000 C 
BRANCH  16  17
ATOM     17  C   UNL     1      45.681   2.876   8.353  0.00  0.00    +0.000 A 
ATOM     18  C   UNL     1      46.149   1.557   8.339  0.00  0.00    +0.000 A 
ATOM     19  C   UNL     1      46.962   1.105   7.298  0.00  0.00    +0.000 A 
ATOM     20  C   UNL     1      47.313   1.967   6.261  0.00  0.00    +0.000 A 
ATOM     21  C   UNL     1      46.870   3.288   6.275  0.00  0.00    +0.000 A 
ATOM     22  C   UNL     1      46.067   3.742   7.321  0.00  0.00    +0.000 A 
ENDBRANCH  16  17
ENDBRANCH  14  16
ENDBRANCH   1  14
TORSDOF 4
ENDMDL
MODEL 3
REMARK VINA RESULT:    -6.997      3.493      4.759
REMARK INTER + INTRA:          -9.054
REMARK INTER:                  -8.628
REMARK INTRA:                  -0.426
REMARK UNBOUND:                -0.420
REMARK  Name = 
REMARK  5 active torsions:
REMARK  status: ('A' for Active; 'I' for Inactive)
REMARK    1  A    between atoms: C_1  and  C_2
REMARK    2  A    between atoms: C_2  and  C_3
REMARK    3  A    between atoms: C_2  and  C_14
REMARK    4  A    between atoms: C_3  and  N_4
REMARK    5  A    between atoms: C_9  and  C_10
REMARK                            x       y       z     vdW  Elec       q    Type
REMARK                         _______ _______ _______ _____ _____    ______ ____
ROOT
ATOM      1  N   UNL     1      46.509   4.978  12.720  0.00  0.00    +0.000 N 
ATOM      2  C   UNL     1      47.124   5.220  13.934  0.00  0.00    +0.000 A 
ATOM      3  N   UNL     1      48.077   6.160  13.922  0.00  0.00    +0.000 NA
ATOM      4  C   UNL     1      48.732   6.401  15.073  0.00  0.00    +0.000 A 
ATOM      5  C   UNL     1      48.462   5.744  16.241  0.00  0.00    +0.000 A 
ATOM      6  C   UNL     1      47.459   4.811  16.150  0.00  0.00    +0.000 A 
ATOM      7  N   UNL     1      46.771   4.527  15.018  0.00  0.00    +0.000 NA
ATOM      8  H   UNL     1      46.678   5.795  12.144  0.00  0.00    +0.000 HD
ENDROOT
BRANCH   6   9
ATOM      9  C   UNL     1      47.067   4.029  17.362  0.00  0.00    +0.000 C 
ATOM     10  N   UNL     1      47.192   4.688  18.554  0.00  0.00    +0.000 N 
ATOM     11  O   UNL     1      46.656   2.876  17.298  0.00  0.00    +0.000 OA
ATOM     12  H   UNL     1      47.492   5.657  18.559  0.00  0.00    +0.000 HD
ATOM     13  H   UNL     1      46.905   4.235  19.408  0.00  0.00    +0.000 HD
ENDBRANCH   6   9
BRANCH   1  14
ATOM     14  C   UNL     1      45.124   4.565  12.791  0.00  0.00    +0.000 C 
BRANCH  14  16
ATOM     15  C   UNL     1      43.179   5.715  11.568  0.00  0.00    +0.000 C 
ATOM     16  C   UNL     1      44.482   4.981  11.498  0.00  0.00    +0.000 C 
BRANCH  16  17
ATOM     17  C   UNL     1      44.833   4.230  10.284  0.00  0.00    +0.000 A 
ATOM     18  C   UNL     1      45.480   4.861   9.215  0.00  0.00    +0.000 A 
ATOM     19  C   UNL     1      45.891   4.124   8.102  0.00  0.00    +0.000 A 
ATOM     20  C   UNL     1      45.660   2.751   8.050  0.00  0.00    +0.000 A 
ATOM     21  C   UNL     1      44.999   2.116   9.100  0.00  0.00    +0.000 A 
ATOM     22  C   UNL     1      44.579   2.855  10.205  0.00  0.00    +0.000 A 
ENDBRANCH  16  17
ENDBRANCH  14  16
ENDBRANCH   1  14
TORSDOF 4
ENDMDL
MODEL 4
REMARK VINA RESULT:    -6.797      2.622      3.494
REMARK INTER + INTRA:          -8.806
REMARK INTER:                  -9.451
REMARK INTRA:                   0.645
REMARK UNBOUND:                -0.420
REMARK  Name = 
REMARK  5 active torsions:
REMARK  status: ('A' for Active; 'I' for Inactive)
REMARK    1  A    between atoms: C_1  and  C_2
REMARK    2  A    between atoms: C_2  and  C_3
REMARK    3  A    between atoms: C_2  and  C_14
REMARK    4  A    between atoms: C_3  and  N_4
REMARK    5  A    between atoms: C_9  and  C_10
REMARK                            x       y       z     vdW  Elec       q    Type
REMARK                         _______ _______ _______ _____ _____    ______ ____
ROOT
ATOM      1  N   UNL     1      45.056   5.774  10.581  0.00  0.00    +0.000 N 
ATOM      2  C   UNL     1      46.023   5.917  11.557  0.00  0.00    +0.000 A 
ATOM      3  N   UNL     1      46.884   6.927  11.376  0.00  0.00    +0.000 NA
ATOM      4  C   UNL     1      47.868   7.079  12.282  0.00  0.00    +0.000 A 
ATOM      5  C   UNL     1      48.019   6.266  13.370  0.00  0.00    +0.000 A 
ATOM      6  C   UNL     1      47.077   5.272  13.472  0.00  0.00    +0.000 A 
ATOM      7  N   UNL     1      46.069   5.073  12.589  0.00  0.00    +0.000 NA
ATOM      8  H   UNL     1      44.997   6.666  10.102  0.00  0.00    +0.000 HD
ENDROOT
BRANCH   6   9
ATOM      9  C   UNL     1      47.131   4.320  14.623  0.00  0.00    +0.000 C 
ATOM     10  N   UNL     1      46.950   4.880  15.858  0.00  0.00    +0.000 N 
ATOM     11  O   UNL     1      47.319   3.119  14.476  0.00  0.00    +0.000 OA
ATOM     12  H   UNL     1      46.750   5.872  15.932  0.00  0.00    +0.000 HD
ATOM     13  H   UNL     1      46.931   4.290  16.676  0.00  0.00    +0.000 HD
ENDBRANCH   6   9
BRANCH   1  14
ATOM     14  C   UNL     1      43.787   5.244  11.029  0.00  0.00    +0.000 C 
BRANCH  14  16
ATOM     15  C   UNL     1      43.407   2.796  11.713  0.00  0.00    +0.000 C 
ATOM     16  C   UNL     1      43.769   3.789  10.652  0.00  0.00    +0.000 C 
BRANCH  16  17
ATOM     17  C   UNL     1      44.583   3.368   9.504  0.00  0.00    +0.000 A 
ATOM     18  C   UNL     1      44.925   4.279   8.497  0.00  0.00    +0.000 A 
ATOM     19  C   UNL     1      45.772   3.897   7.455  0.00  0.00    +0.000 A 
ATOM     20  C   UNL     1      46.286   2.603   7.411  0.00  0.00    +0.000 A 
ATOM     21  C   UNL     1      45.936   1.682   8.397  0.00  0.00    +0.000 A 
ATOM     22  C   UNL     1      45.081   2.061   9.431  0.00  0.00    +0.000 A 
ENDBRANCH  16  17
ENDBRANCH  14  16
ENDBRANCH   1  14
TORSDOF 4
ENDMDL
MODEL 5
REMARK VINA RESULT:    -6.638      4.964      7.605
REMARK INTER + INTRA:          -8.611
REMARK INTER:                  -8.193
REMARK INTRA:                  -0.418
REMARK UNBOUND:                -0.420
REMARK  Name = 
REMARK  5 active torsions:
REMARK  status: ('A' for Active; 'I' for Inactive)
REMARK    1  A    between atoms: C_1  and  C_2
REMARK    2  A    between atoms: C_2  and  C_3
REMARK    3  A    between atoms: C_2  and  C_14
REMARK    4  A    between atoms: C_3  and  N_4
REMARK    5  A    between atoms: C_9  and  C_10
REMARK                            x       y       z     vdW  Elec       q    Type
REMARK                         _______ _______ _______ _____ _____    ______ ____
ROOT
ATOM      1  N   UNL     1      47.154   5.064  15.096  0.00  0.00    +0.000 N 
ATOM      2  C   UNL     1      46.554   5.169  13.856  0.00  0.00    +0.000 A 
ATOM      3  N   UNL     1      47.035   6.132  13.060  0.00  0.00    +0.000 NA
ATOM      4  C   UNL     1      46.453   6.297  11.857  0.00  0.00    +0.000 A 
ATOM      5  C   UNL     1      45.413   5.527  11.415  0.00  0.00    +0.000 A 
ATOM      6  C   UNL     1      45.005   4.561  12.300  0.00  0.00    +0.000 A 
ATOM      7  N   UNL     1      45.553   4.354  13.521  0.00  0.00    +0.000 NA
ATOM      8  H   UNL     1      48.056   5.523  15.019  0.00  0.00    +0.000 HD
ENDROOT
BRANCH   6   9
ATOM      9  C   UNL     1      43.879   3.650  11.930  0.00  0.00    +0.000 C 
ATOM     10  N   UNL     1      43.825   2.471  12.621  0.00  0.00    +0.000 N 
ATOM     11  O   UNL     1      43.055   3.937  11.070  0.00  0.00    +0.000 OA
ATOM     12  H   UNL     1      44.499   2.293  13.357  0.00  0.00    +0.000 HD
ATOM     13  H   UNL     1      43.066   1.828  12.453  0.00  0.00    +0.000 HD
ENDBRANCH   6   9
BRANCH   1  14
ATOM     14  C   UNL     1      47.200   3.733  15.660  0.00  0.00    +0.000 C 
BRANCH  14  16
ATOM     15  C   UNL     1      47.170   4.835  17.981  0.00  0.00    +0.000 C 
ATOM     16  C   UNL     1      47.801   3.864  17.031  0.00  0.00    +0.000 C 
BRANCH  16  17
ATOM     17  C   UNL     1      49.211   3.487  17.202  0.00  0.00    +0.000 A 
ATOM     18  C   UNL     1      50.157   4.428  17.627  0.00  0.00    +0.000 A 
ATOM     19  C   UNL     1      51.477   4.043  17.872  0.00  0.00    +0.000 A 
ATOM     20  C   UNL     1      51.861   2.715  17.698  0.00  0.00    +0.000 A 
ATOM     21  C   UNL     1      50.933   1.775  17.255  0.00  0.00    +0.000 A 
ATOM     22  C   UNL     1      49.618   2.162  16.999  0.00  0.00    +0.000 A 
ENDBRANCH  16  17
ENDBRANCH  14  16
ENDBRANCH   1  14
TORSDOF 4
ENDMDL
MODEL 6
REMARK VINA RESULT:    -6.548      1.461      2.134
REMARK INTER + INTRA:          -8.499
REMARK INTER:                  -7.978
REMARK INTRA:                  -0.521
REMARK UNBOUND:                -0.420
REMARK  Name = 
REMARK  5 active torsions:
REMARK  status: ('A' for Active; 'I' for Inactive)
REMARK    1  A    between atoms: C_1  and  C_2
REMARK    2  A    between atoms: C_2  and  C_3
REMARK    3  A    between atoms: C_2  and  C_14
REMARK    4  A    between atoms: C_3  and  N_4
REMARK    5  A    between atoms: C_9  and  C_10
REMARK                            x       y       z     vdW  Elec       q    Type
REMARK                         _______ _______ _______ _____ _____    ______ ____
ROOT
ATOM      1  N   UNL     1      44.842   5.079  12.697  0.00  0.00    +0.000 N 
ATOM      2  C   UNL     1      45.681   6.169  12.833  0.00  0.00    +0.000 A 
ATOM      3  N   UNL     1      46.901   5.903  13.317  0.00  0.00    +0.000 NA
ATOM      4  C   UNL     1      47.739   6.941  13.504  0.00  0.00    +0.000 A 
ATOM      5  C   UNL     1      47.406   8.235  13.214  0.00  0.00    +0.000 A 
ATOM      6  C   UNL     1      46.140   8.398  12.709  0.00  0.00    +0.000 A 
ATOM      7  N   UNL     1      45.257   7.390  12.505  0.00  0.00    +0.000 NA
ATOM      8  H   UNL     1      45.437   4.258  12.682  0.00  0.00    +0.000 HD
ENDROOT
BRANCH   6   9
ATOM      9  C   UNL     1      45.660   9.766  12.348  0.00  0.00    +0.000 C 
ATOM     10  N   UNL     1      46.617  10.744  12.351  0.00  0.00    +0.000 N 
ATOM     11  O   UNL     1      44.492  10.000  12.063  0.00  0.00    +0.000 OA
ATOM     12  H   UNL     1      47.581  10.499  12.546  0.00  0.00    +0.000 HD
ATOM     13  H   UNL     1      46.372  11.683  12.074  0.00  0.00    +0.000 HD
ENDBRANCH   6   9
BRANCH   1  14
ATOM     14  C   UNL     1      43.888   5.154  11.612  0.00  0.00    +0.000 C 
BRANCH  14  16
ATOM     15  C   UNL     1      43.342   2.653  11.830  0.00  0.00    +0.000 C 
ATOM     16  C   UNL     1      43.836   3.788  10.988  0.00  0.00    +0.000 C 
BRANCH  16  17
ATOM     17  C   UNL     1      44.724   3.520   9.848  0.00  0.00    +0.000 A 
ATOM     18  C   UNL     1      45.001   2.206   9.452  0.00  0.00    +0.000 A 
ATOM     19  C   UNL     1      45.774   1.958   8.315  0.00  0.00    +0.000 A 
ATOM     20  C   UNL     1      46.273   3.020   7.565  0.00  0.00    +0.000 A 
ATOM     21  C   UNL     1      46.020   4.331   7.962  0.00  0.00    +0.000 A 
ATOM     22  C   UNL     1      45.258   4.578   9.103  0.00  0.00    +0.000 A 
ENDBRANCH  16  17
ENDBRANCH  14  16
ENDBRANCH   1  14
TORSDOF 4
ENDMDL
MODEL 7
REMARK VINA RESULT:    -6.493      2.621      3.216
REMARK INTER + INTRA:          -8.431
REMARK INTER:                  -7.988
REMARK INTRA:                  -0.443
REMARK UNBOUND:                -0.420
REMARK  Name = 
REMARK  5 active torsions:
REMARK  status: ('A' for Active; 'I' for Inactive)
REMARK    1  A    between atoms: C_1  and  C_2
REMARK    2  A    between atoms: C_2  and  C_3
REMARK    3  A    between atoms: C_2  and  C_14
REMARK    4  A    between atoms: C_3  and  N_4
REMARK    5  A    between atoms: C_9  and  C_10
REMARK                            x       y       z     vdW  Elec       q    Type
REMARK                         _______ _______ _______ _____ _____    ______ ____
ROOT
ATOM      1  N   UNL     1      44.994   4.692  12.813  0.00  0.00    +0.000 N 
ATOM      2  C   UNL     1      46.065   4.975  13.640  0.00  0.00    +0.000 A 
ATOM      3  N   UNL     1      46.238   4.137  14.669  0.00  0.00    +0.000 NA
ATOM      4  C   UNL     1      47.246   4.397  15.524  0.00  0.00    +0.000 A 
ATOM      5  C   UNL     1      48.094   5.460  15.383  0.00  0.00    +0.000 A 
ATOM      6  C   UNL     1      47.840   6.249  14.289  0.00  0.00    +0.000 A 
ATOM      7  N   UNL     1      46.840   6.034  13.400  0.00  0.00    +0.000 NA
ATOM      8  H   UNL     1      44.760   3.717  12.968  0.00  0.00    +0.000 HD
ENDROOT
BRANCH   6   9
ATOM      9  C   UNL     1      48.702   7.440  14.022  0.00  0.00    +0.000 C 
ATOM     10  N   UNL     1      48.847   7.778  12.704  0.00  0.00    +0.000 N 
ATOM     11  O   UNL     1      49.241   8.077  14.919  0.00  0.00    +0.000 OA
ATOM     12  H   UNL     1      48.345   7.253  11.996  0.00  0.00    +0.000 HD
ATOM     13  H   UNL     1      49.380   8.597  12.454  0.00  0.00    +0.000 HD
ENDBRANCH   6   9
BRANCH   1  14
ATOM     14  C   UNL     1      45.161   5.059  11.424  0.00  0.00    +0.000 C 
BRANCH  14  16
ATOM     15  C   UNL     1      43.430   3.165  11.295  0.00  0.00    +0.000 C 
ATOM     16  C   UNL     1      44.465   4.004  10.611  0.00  0.00    +0.000 C 
BRANCH  16  17
ATOM     17  C   UNL     1      45.155   3.488   9.421  0.00  0.00    +0.000 A 
ATOM     18  C   UNL     1      45.714   4.364   8.483  0.00  0.00    +0.000 A 
ATOM     19  C   UNL     1      46.445   3.869   7.401  0.00  0.00    +0.000 A 
ATOM     20  C   UNL     1      46.624   2.496   7.249  0.00  0.00    +0.000 A 
ATOM     21  C   UNL     1      46.055   1.614   8.165  0.00  0.00    +0.000 A 
ATOM     22  C   UNL     1      45.315   2.108   9.239  0.00  0.00    +0.000 A 
ENDBRANCH  16  17
ENDBRANCH  14  16
ENDBRANCH   1  14
TORSDOF 4
ENDMDL
MODEL 8
REMARK VINA RESULT:    -6.384      5.187      7.411
REMARK INTER + INTRA:          -8.297
REMARK INTER:                  -7.874
REMARK INTRA:                  -0.422
REMARK UNBOUND:                -0.420
REMARK  Name = 
REMARK  5 active torsions:
REMARK  status: ('A' for Active; 'I' for Inactive)
REMARK    1  A    between atoms: C_1  and  C_2
REMARK    2  A    between atoms: C_2  and  C_3
REMARK    3  A    between atoms: C_2  and  C_14
REMARK    4  A    between atoms: C_3  and  N_4
REMARK    5  A    between atoms: C_9  and  C_10
REMARK                            x       y       z     vdW  Elec       q    Type
REMARK                         _______ _______ _______ _____ _____    ______ ____
ROOT
ATOM      1  N   UNL     1      47.104   5.195  15.461  0.00  0.00    +0.000 N 
ATOM      2  C   UNL     1      47.809   4.665  16.524  0.00  0.00    +0.000 A 
ATOM      3  N   UNL     1      47.518   5.178  17.726  0.00  0.00    +0.000 NA
ATOM      4  C   UNL     1      48.210   4.720  18.786  0.00  0.00    +0.000 A 
ATOM      5  C   UNL     1      49.177   3.758  18.692  0.00  0.00    +0.000 A 
ATOM      6  C   UNL     1      49.389   3.288  17.420  0.00  0.00    +0.000 A 
ATOM      7  N   UNL     1      48.724   3.716  16.320  0.00  0.00    +0.000 NA
ATOM      8  H   UNL     1      46.276   5.630  15.854  0.00  0.00    +0.000 HD
ENDROOT
BRANCH   6   9
ATOM      9  C   UNL     1      50.418   2.230  17.187  0.00  0.00    +0.000 C 
ATOM     10  N   UNL     1      51.413   2.160  18.124  0.00  0.00    +0.000 N 
ATOM     11  O   UNL     1      50.376   1.470  16.227  0.00  0.00    +0.000 OA
ATOM     12  H   UNL     1      51.384   2.776  18.929  0.00  0.00    +0.000 HD
ATOM     13  H   UNL     1      52.117   1.441  18.052  0.00  0.00    +0.000 HD
ENDBRANCH   6   9
BRANCH   1  14
ATOM     14  C   UNL     1      46.847   4.287  14.364  0.00  0.00    +0.000 C 
BRANCH  14  16
ATOM     15  C   UNL     1      47.511   6.345  12.976  0.00  0.00    +0.000 C 
ATOM     16  C   UNL     1      46.645   5.135  13.140  0.00  0.00    +0.000 C 
BRANCH  16  17
ATOM     17  C   UNL     1      45.335   5.078  12.475  0.00  0.00    +0.000 A 
ATOM     18  C   UNL     1      44.152   5.115  13.222  0.00  0.00    +0.000 A 
ATOM     19  C   UNL     1      42.911   5.150  12.581  0.00  0.00    +0.000 A 
ATOM     20  C   UNL     1      42.844   5.151  11.190  0.00  0.00    +0.000 A 
ATOM     21  C   UNL     1      44.015   5.094  10.437  0.00  0.00    +0.000 A 
ATOM     22  C   UNL     1      45.252   5.048  11.077  0.00  0.00    +0.000 A 
ENDBRANCH  16  17
ENDBRANCH  14  16
ENDBRANCH   1  14
TORSDOF 4
ENDMDL
MODEL 9
REMARK VINA RESULT:    -6.373      2.833      6.546
REMARK INTER + INTRA:          -8.284
REMARK INTER:                  -7.846
REMARK INTRA:                  -0.438
REMARK UNBOUND:                -0.420
REMARK  Name = 
REMARK  5 active torsions:
REMARK  status: ('A' for Active; 'I' for Inactive)
REMARK    1  A    between atoms: C_1  and  C_2
REMARK    2  A    between atoms: C_2  and  C_3
REMARK    3  A    between atoms: C_2  and  C_14
REMARK    4  A    between atoms: C_3  and  N_4
REMARK    5  A    between atoms: C_9  and  C_10
REMARK                            x       y       z     vdW  Elec       q    Type
REMARK                         _______ _______ _______ _____ _____    ______ ____
ROOT
ATOM      1  N   UNL     1      45.441   5.659  13.399  0.00  0.00    +0.000 N 
ATOM      2  C   UNL     1      44.910   4.787  12.469  0.00  0.00    +0.000 A 
ATOM      3  N   UNL     1      44.125   3.821  12.963  0.00  0.00    +0.000 NA
ATOM      4  C   UNL     1      43.618   2.924  12.097  0.00  0.00    +0.000 A 
ATOM      5  C   UNL     1      43.857   2.961  10.752  0.00  0.00    +0.000 A 
ATOM      6  C   UNL     1      44.662   3.997  10.346  0.00  0.00    +0.000 A 
ATOM      7  N   UNL     1      45.200   4.924  11.174  0.00  0.00    +0.000 NA
ATOM      8  H   UNL     1      44.860   5.586  14.228  0.00  0.00    +0.000 HD
ENDROOT
BRANCH   6   9
ATOM      9  C   UNL     1      44.993   4.149   8.897  0.00  0.00    +0.000 C 
ATOM     10  N   UNL     1      44.287   3.345   8.044  0.00  0.00    +0.000 N 
ATOM     11  O   UNL     1      45.836   4.942   8.494  0.00  0.00    +0.000 OA
ATOM     12  H   UNL     1      43.566   2.737   8.415  0.00  0.00    +0.000 HD
ATOM     13  H   UNL     1      44.429   3.426   7.049  0.00  0.00    +0.000 HD
ENDBRANCH   6   9
BRANCH   1  14
ATOM     14  C   UNL     1      45.664   7.011  12.935  0.00  0.00    +0.000 C 
BRANCH  14  16
ATOM     15  C   UNL     1      47.989   6.482  13.893  0.00  0.00    +0.000 C 
ATOM     16  C   UNL     1      47.152   7.213  12.889  0.00  0.00    +0.000 C 
BRANCH  16  17
ATOM     17  C   UNL     1      47.658   8.450  12.278  0.00  0.00    +0.000 A 
ATOM     18  C   UNL     1      46.838   9.579  12.165  0.00  0.00    +0.000 A 
ATOM     19  C   UNL     1      47.350  10.779  11.666  0.00  0.00    +0.000 A 
ATOM     20  C   UNL     1      48.685  10.860  11.277  0.00  0.00    +0.000 A 
ATOM     21  C   UNL     1      49.505   9.737  11.366  0.00  0.00    +0.000 A 
ATOM     22  C   UNL     1      48.991   8.536  11.854  0.00  0.00    +0.000 A 
ENDBRANCH  16  17
ENDBRANCH  14  16
ENDBRANCH   1  14
TORSDOF 4
ENDMDL
