MODEL 1
REMARK VINA RESULT:    -8.105      0.000      0.000
REMARK INTER + INTRA:         -10.552
REMARK INTER:                 -10.000
REMARK INTRA:                  -0.552
REMARK UNBOUND:                -0.552
REMARK  Name = 
REMARK  5 active torsions:
REMARK  status: ('A' for Active; 'I' for Inactive)
REMARK    1  A    between atoms: C_1  and  C_2
REMARK    2  A    between atoms: C_2  and  O_3
REMARK    3  A    between atoms: C_2  and  C_13
REMARK    4  A    between atoms: O_3  and  C_4
REMARK    5  A    between atoms: C_7  and  C_8
REMARK                            x       y       z     vdW  Elec       q    Type
REMARK                         _______ _______ _______ _____ _____    ______ ____
ROOT
ATOM      1  C   UNL     1      44.549   3.951   8.983  0.00  0.00    +0.000 A 
ATOM      2  C   UNL     1      44.501   2.577   9.165  0.00  0.00    +0.000 A 
ATOM      3  C   UNL     1      45.472   1.790   8.544  0.00  0.00    +0.000 A 
ATOM      4  C   UNL     1      46.429   2.387   7.718  0.00  0.00    +0.000 A 
ATOM      5  C   UNL     1      46.354   3.765   7.560  0.00  0.00    +0.000 A 
ATOM      6  N   UNL     1      45.444   4.565   8.181  0.00  0.00    +0.000 NA
ENDROOT
BRANCH   4   7
ATOM      7  C   UNL     1      47.449   1.523   7.068  0.00  0.00    +0.000 C 
ATOM      8  N   UNL     1      48.523   2.108   6.455  0.00  0.00    +0.000 N 
ATOM      9  O   UNL     1      47.345   0.305   7.073  0.00  0.00    +0.000 OA
ATOM     10  H   UNL     1      48.705   3.094   6.380  0.00  0.00    +0.000 HD
ATOM     11  H   UNL     1      49.188   1.474   6.024  0.00  0.00    +0.000 HD
ENDBRANCH   4   7
BRANCH   1  12
ATOM     12  O   UNL     1      43.614   4.700   9.668  0.00  0.00    +0.000 OA
BRANCH  12  14
ATOM     13  C   UNL     1      42.559   5.425  11.748  0.00  0.00    +0.000 C 
ATOM     14  C   UNL     1      43.555   4.460  11.088  0.00  0.00    +0.000 C 
BRANCH  14  15
ATOM     15  C   UNL     1      44.986   4.665  11.685  0.00  0.00    +0.000 C 
ATOM     16  C   UNL     1      45.386   3.505  12.621  0.00  0.00    +0.000 C 
ATOM     17  C   UNL     1      46.701   3.744  13.358  0.00  0.00    +0.000 C 
ATOM     18  C   UNL     1      46.690   5.075  14.095  0.00  0.00    +0.000 C 
ATOM     19  C   UNL     1      46.429   6.219  13.124  0.00  0.00    +0.000 C 
ATOM     20  C   UNL     1      45.100   6.031  12.393  0.00  0.00    +0.000 C 
ENDBRANCH  14  15
ENDBRANCH  12  14
ENDBRANCH   1  12
TORSDOF 4
ENDMDL
MODEL 2
REMARK VINA RESULT:    -6.724      3.436      6.305
REMARK INTER + INTRA:          -8.848
REMARK INTER:                  -8.242
REMARK INTRA:                  -0.606
REMARK UNBOUND:                -0.552
REMARK  Name = 
REMARK  5 active torsions:
REMARK  status: ('A' for Active; 'I' for Inactive)
REMARK    1  A    between atoms: C_1  and  C_2
REMARK    2  A    between atoms: C_2  and  O_3
REMARK    3  A    between atoms: C_2  and  C_13
REMARK    4  A    between atoms: O_3  and  C_4
REMARK    5  A    between atoms: C_7  and  C_8
REMARK                            x       y       z     vdW  Elec       q    Type
REMARK                         _______ _______ _______ _____ _____    ______ ____
ROOT
ATOM      1  C   UNL     1      45.818   4.658  12.805  0.00  0.00    +0.000 A 
ATOM      2  C   UNL     1      46.364   5.847  12.349  0.00  0.00    +0.000 A 
ATOM      3  C   UNL     1      47.329   6.479  13.134  0.00  0.00    +0.000 A 
ATOM      4  C   UNL     1      47.681   5.938  14.374  0.00  0.00    +0.000 A 
ATOM      5  C   UNL     1      47.033   4.772  14.761  0.00  0.00    +0.000 A 
ATOM      6  N   UNL     1      46.116   4.111  14.001  0.00  0.00    +0.000 NA
ENDROOT
BRANCH   4   7
ATOM      7  C   UNL     1      48.710   6.635  15.191  0.00  0.00    +0.000 C 
ATOM      8  N   UNL     1      48.368   7.110  16.427  0.00  0.00    +0.000 N 
ATOM      9  O   UNL     1      49.850   6.789  14.778  0.00  0.00    +0.000 OA
ATOM     10  H   UNL     1      47.464   7.050  16.861  0.00  0.00    +0.000 HD
ATOM     11  H   UNL     1      49.106   7.580  16.942  0.00  0.00    +0.000 HD
ENDBRANCH   4   7
BRANCH   1  12
ATOM     12  O   UNL     1      44.918   4.028  11.968  0.00  0.00    +0.000 OA
BRANCH  12  14
ATOM     13  C   UNL     1      43.008   5.234  11.038  0.00  0.00    +0.000 C 
ATOM     14  C   UNL     1      44.472   4.813  10.844  0.00  0.00    +0.000 C 
BRANCH  14  15
ATOM     15  C   UNL     1      44.622   3.951   9.548  0.00  0.00    +0.000 C 
ATOM     16  C   UNL     1      44.903   2.470   9.874  0.00  0.00    +0.000 C 
ATOM     17  C   UNL     1      45.225   1.626   8.644  0.00  0.00    +0.000 C 
ATOM     18  C   UNL     1      46.354   2.240   7.830  0.00  0.00    +0.000 C 
ATOM     19  C   UNL     1      45.993   3.656   7.403  0.00  0.00    +0.000 C 
ATOM     20  C   UNL     1      45.700   4.541   8.613  0.00  0.00    +0.000 C 
ENDBRANCH  14  15
ENDBRANCH  12  14
ENDBRANCH   1  12
TORSDOF 4
ENDMDL
MODEL 3
REMARK VINA RESULT:    -6.119      3.499      6.450
REMARK INTER + INTRA:          -8.102
REMARK INTER:                  -7.593
REMARK INTRA:                  -0.509
REMARK UNBOUND:                -0.552
REMARK  Name = 
REMARK  5 active torsions:
REMARK  status: ('A' for Active; 'I' for Inactive)
REMARK    1  A    between atoms: C_1  and  C_2
REMARK    2  A    between atoms: C_2  and  O_3
REMARK    3  A    between atoms: C_2  and  C_13
REMARK    4  A    between atoms: O_3  and  C_4
REMARK    5  A    between atoms: C_7  and  C_8
REMARK                            x       y       z     vdW  Elec       q    Type
REMARK                         _______ _______ _______ _____ _____    ______ ____
ROOT
ATOM      1  C   UNL     1      45.784   6.434  12.012  0.00  0.00    +0.000 A 
ATOM      2  C   UNL     1      47.095   6.569  11.582  0.00  0.00    +0.000 A 
ATOM      3  C   UNL     1      47.781   7.743  11.898  0.00  0.00    +0.000 A 
ATOM      4  C   UNL     1      47.125   8.769  12.585  0.00  0.00    +0.000 A 
ATOM      5  C   UNL     1      45.794   8.553  12.921  0.00  0.00    +0.000 A 
ATOM      6  N   UNL     1      45.110   7.405  12.661  0.00  0.00    +0.000 NA
ENDROOT
BRANCH   4   7
ATOM      7  C   UNL     1      47.880  10.010  12.905  0.00  0.00    +0.000 C 
ATOM      8  N   UNL     1      48.248  10.248  14.200  0.00  0.00    +0.000 N 
ATOM      9  O   UNL     1      48.175  10.814  12.034  0.00  0.00    +0.000 OA
ATOM     10  H   UNL     1      48.051   9.665  14.995  0.00  0.00    +0.000 HD
ATOM     11  H   UNL     1      48.758  11.110  14.365  0.00  0.00    +0.000 HD
ENDBRANCH   4   7
BRANCH   1  12
ATOM     12  O   UNL     1      45.163   5.232  11.740  0.00  0.00    +0.000 OA
BRANCH  12  14
ATOM     13  C   UNL     1      42.733   4.998  11.657  0.00  0.00    +0.000 C 
ATOM     14  C   UNL     1      44.015   5.317  10.873  0.00  0.00    +0.000 C 
BRANCH  14  15
ATOM     15  C   UNL     1      44.201   4.298   9.701  0.00  0.00    +0.000 C 
ATOM     16  C   UNL     1      44.239   2.842  10.209  0.00  0.00    +0.000 C 
ATOM     17  C   UNL     1      44.589   1.827   9.124  0.00  0.00    +0.000 C 
ATOM     18  C   UNL     1      45.879   2.202   8.410  0.00  0.00    +0.000 C 
ATOM     19  C   UNL     1      45.766   3.592   7.799  0.00  0.00    +0.000 C 
ATOM     20  C   UNL     1      45.452   4.641   8.865  0.00  0.00    +0.000 C 
ENDBRANCH  14  15
ENDBRANCH  12  14
ENDBRANCH   1  12
TORSDOF 4
ENDMDL
MODEL 4
REMARK VINA RESULT:    -5.706      3.523      6.142
REMARK INTER + INTRA:          -7.593
REMARK INTER:                  -6.946
REMARK INTRA:                  -0.647
REMARK UNBOUND:                -0.552
REMARK  Name = 
REMARK  5 active torsions:
REMARK  status: ('A' for Active; 'I' for Inactive)
REMARK    1  A    between atoms: C_1  and  C_2
REMARK    2  A    between atoms: C_2  and  O_3
REMARK    3  A    between atoms: C_2  and  C_13
REMARK    4  A    between atoms: O_3  and  C_4
REMARK    5  A    between atoms: C_7  and  C_8
REMARK                            x       y       z     vdW  Elec       q    Type
REMARK                         _______ _______ _______ _____ _____    ______ ____
ROOT
ATOM      1  C   UNL     1      46.491   6.024  12.957  0.00  0.00    +0.000 A 
ATOM      2  C   UNL     1      46.144   7.293  12.520  0.00  0.00    +0.000 A 
ATOM      3  C   UNL     1      47.164   8.204  12.244  0.00  0.00    +0.000 A 
ATOM      4  C   UNL     1      48.497   7.843  12.461  0.00  0.00    +0.000 A 
ATOM      5  C   UNL     1      48.733   6.565  12.952  0.00  0.00    +0.000 A 
ATOM      6  N   UNL     1      47.763   5.641  13.196  0.00  0.00    +0.000 NA
ENDROOT
BRANCH   4   7
ATOM      7  C   UNL     1      49.563   8.835  12.160  0.00  0.00    +0.000 C 
ATOM      8  N   UNL     1      50.831   8.608  12.619  0.00  0.00    +0.000 N 
ATOM      9  O   UNL     1      49.326   9.843  11.511  0.00  0.00    +0.000 OA
ATOM     10  H   UNL     1      51.137   7.824  13.168  0.00  0.00    +0.000 HD
ATOM     11  H   UNL     1      51.520   9.317  12.389  0.00  0.00    +0.000 HD
ENDBRANCH   4   7
BRANCH   1  12
ATOM     12  O   UNL     1      45.457   5.131  13.155  0.00  0.00    +0.000 OA
BRANCH  12  14
ATOM     13  C   UNL     1      43.169   4.470  12.617  0.00  0.00    +0.000 C 
ATOM     14  C   UNL     1      44.477   5.084  12.099  0.00  0.00    +0.000 C 
BRANCH  14  15
ATOM     15  C   UNL     1      45.052   4.226  10.925  0.00  0.00    +0.000 C 
ATOM     16  C   UNL     1      45.346   5.085   9.678  0.00  0.00    +0.000 C 
ATOM     17  C   UNL     1      45.748   4.266   8.455  0.00  0.00    +0.000 C 
ATOM     18  C   UNL     1      44.725   3.180   8.154  0.00  0.00    +0.000 C 
ATOM     19  C   UNL     1      44.554   2.262   9.357  0.00  0.00    +0.000 C 
ATOM     20  C   UNL     1      44.115   3.045  10.593  0.00  0.00    +0.000 C 
ENDBRANCH  14  15
ENDBRANCH  12  14
ENDBRANCH   1  12
TORSDOF 4
ENDMDL
MODEL 5
REMARK VINA RESULT:    -5.581      4.434      6.429
REMARK INTER + INTRA:          -7.438
REMARK INTER:                  -7.073
REMARK INTRA:                  -0.365
REMARK UNBOUND:                -0.552
REMARK  Name = 
REMARK  5 active torsions:
REMARK  status: ('A' for Active; 'I' for Inactive)
REMARK    1  A    between atoms: C_1  and  C_2
REMARK    2  A    between atoms: C_2  and  O_3
REMARK    3  A    between atoms: C_2  and  C_13
REMARK    4  A    between atoms: O_3  and  C_4
REMARK    5  A    between atoms: C_7  and  C_8
REMARK                            x       y       z     vdW  Elec       q    Type
REMARK                         _______ _______ _______ _____ _____    ______ ____
ROOT
ATOM      1  C   UNL     1      46.686   5.351  13.510  0.00  0.00    +0.000 A 
ATOM      2  C   UNL     1      46.581   6.461  12.685  0.00  0.00    +0.000 A 
ATOM      3  C   UNL     1      45.367   6.697  12.040  0.00  0.00    +0.000 A 
ATOM      4  C   UNL     1      44.310   5.795  12.192  0.00  0.00    +0.000 A 
ATOM      5  C   UNL     1      44.539   4.686  12.998  0.00  0.00    +0.000 A 
ATOM      6  N   UNL     1      45.698   4.447  13.670  0.00  0.00    +0.000 NA
ENDROOT
BRANCH   4   7
ATOM      7  C   UNL     1      43.029   6.071  11.490  0.00  0.00    +0.000 C 
ATOM      8  N   UNL     1      42.759   7.347  11.077  0.00  0.00    +0.000 N 
ATOM      9  O   UNL     1      42.219   5.182  11.277  0.00  0.00    +0.000 OA
ATOM     10  H   UNL     1      43.344   8.154  11.206  0.00  0.00    +0.000 HD
ATOM     11  H   UNL     1      41.870   7.482  10.606  0.00  0.00    +0.000 HD
ENDBRANCH   4   7
BRANCH   1  12
ATOM     12  O   UNL     1      47.880   5.189  14.183  0.00  0.00    +0.000 OA
BRANCH  12  14
ATOM     13  C   UNL     1      49.304   6.960  15.077  0.00  0.00    +0.000 C 
ATOM     14  C   UNL     1      48.075   6.070  15.308  0.00  0.00    +0.000 C 
BRANCH  14  15
ATOM     15  C   UNL     1      48.269   5.199  16.592  0.00  0.00    +0.000 C 
ATOM     16  C   UNL     1      49.735   5.207  17.073  0.00  0.00    +0.000 C 
ATOM     17  C   UNL     1      50.006   4.237  18.220  0.00  0.00    +0.000 C 
ATOM     18  C   UNL     1      49.541   2.830  17.877  0.00  0.00    +0.000 C 
ATOM     19  C   UNL     1      48.056   2.827  17.539  0.00  0.00    +0.000 C 
ATOM     20  C   UNL     1      47.753   3.761  16.369  0.00  0.00    +0.000 C 
ENDBRANCH  14  15
ENDBRANCH  12  14
ENDBRANCH   1  12
TORSDOF 4
ENDMDL
MODEL 6
REMARK VINA RESULT:    -5.581      3.751      5.681
REMARK INTER + INTRA:          -7.438
REMARK INTER:                  -6.870
REMARK INTRA:                  -0.568
REMARK UNBOUND:                -0.552
REMARK  Name = 
REMARK  5 active torsions:
REMARK  status: ('A' for Active; 'I' for Inactive)
REMARK    1  A    between atoms: C_1  and  C_2
REMARK    2  A    between atoms: C_2  and  O_3
REMARK    3  A    between atoms: C_2  and  C_13
REMARK    4  A    between atoms: O_3  and  C_4
REMARK    5  A    between atoms: C_7  and  C_8
REMARK                            x       y       z     vdW  Elec       q    Type
REMARK                         _______ _______ _______ _____ _____    ______ ____
ROOT
ATOM      1  C   UNL     1      46.353   6.057  12.340  0.00  0.00    +0.000 A 
ATOM      2  C   UNL     1      46.016   5.994  10.997  0.00  0.00    +0.000 A 
ATOM      3  C   UNL     1      45.224   4.931  10.560  0.00  0.00    +0.000 A 
ATOM      4  C   UNL     1      44.837   3.935  11.460  0.00  0.00    +0.000 A 
ATOM      5  C   UNL     1      45.275   4.065  12.773  0.00  0.00    +0.000 A 
ATOM      6  N   UNL     1      46.015   5.109  13.238  0.00  0.00    +0.000 NA
ENDROOT
BRANCH   4   7
ATOM      7  C   UNL     1      43.996   2.813  10.966  0.00  0.00    +0.000 C 
ATOM      8  N   UNL     1      44.386   2.133   9.845  0.00  0.00    +0.000 N 
ATOM      9  O   UNL     1      42.968   2.489  11.543  0.00  0.00    +0.000 OA
ATOM     10  H   UNL     1      45.201   2.318   9.287  0.00  0.00    +0.000 HD
ATOM     11  H   UNL     1      43.775   1.379   9.548  0.00  0.00    +0.000 HD
ENDBRANCH   4   7
BRANCH   1  12
ATOM     12  O   UNL     1      47.079   7.158  12.745  0.00  0.00    +0.000 OA
BRANCH  12  14
ATOM     13  C   UNL     1      49.176   7.168  13.999  0.00  0.00    +0.000 C 
ATOM     14  C   UNL     1      48.510   7.030  12.622  0.00  0.00    +0.000 C 
BRANCH  14  15
ATOM     15  C   UNL     1      49.026   8.146  11.655  0.00  0.00    +0.000 C 
ATOM     16  C   UNL     1      50.555   8.329  11.756  0.00  0.00    +0.000 C 
ATOM     17  C   UNL     1      51.080   9.519  10.959  0.00  0.00    +0.000 C 
ATOM     18  C   UNL     1      50.342  10.799  11.323  0.00  0.00    +0.000 C 
ATOM     19  C   UNL     1      48.847  10.637  11.083  0.00  0.00    +0.000 C 
ATOM     20  C   UNL     1      48.279   9.475  11.896  0.00  0.00    +0.000 C 
ENDBRANCH  14  15
ENDBRANCH  12  14
ENDBRANCH   1  12
TORSDOF 4
ENDMDL
MODEL 7
REMARK VINA RESULT:    -5.442      5.328      7.671
REMARK INTER + INTRA:          -7.266
REMARK INTER:                  -6.812
REMARK INTRA:                  -0.454
REMARK UNBOUND:                -0.552
REMARK  Name = 
REMARK  5 active torsions:
REMARK  status: ('A' for Active; 'I' for Inactive)
REMARK    1  A    between atoms: C_1  and  C_2
REMARK    2  A    between atoms: C_2  and  O_3
REMARK    3  A    between atoms: C_2  and  C_13
REMARK    4  A    between atoms: O_3  and  C_4
REMARK    5  A    between atoms: C_7  and  C_8
REMARK                            x       y       z     vdW  Elec       q    Type
REMARK                         _______ _______ _______ _____ _____    ______ ____
ROOT
ATOM      1  C   UNL     1      47.539   3.992  15.934  0.00  0.00    +0.000 A 
ATOM      2  C   UNL     1      48.250   4.945  16.647  0.00  0.00    +0.000 A 
ATOM      3  C   UNL     1      49.432   4.557  17.280  0.00  0.00    +0.000 A 
ATOM      4  C   UNL     1      49.842   3.222  17.229  0.00  0.00    +0.000 A 
ATOM      5  C   UNL     1      49.027   2.337  16.534  0.00  0.00    +0.000 A 
ATOM      6  N   UNL     1      47.890   2.691  15.875  0.00  0.00    +0.000 NA
ENDROOT
BRANCH   4   7
ATOM      7  C   UNL     1      51.104   2.836  17.915  0.00  0.00    +0.000 C 
ATOM      8  N   UNL     1      51.558   1.552  17.798  0.00  0.00    +0.000 N 
ATOM      9  O   UNL     1      51.739   3.645  18.576  0.00  0.00    +0.000 OA
ATOM     10  H   UNL     1      51.116   0.804  17.293  0.00  0.00    +0.000 HD
ATOM     11  H   UNL     1      52.422   1.340  18.288  0.00  0.00    +0.000 HD
ENDBRANCH   4   7
BRANCH   1  12
ATOM     12  O   UNL     1      46.413   4.430  15.267  0.00  0.00    +0.000 OA
BRANCH  12  14
ATOM     13  C   UNL     1      47.157   5.626  13.271  0.00  0.00    +0.000 C 
ATOM     14  C   UNL     1      46.486   4.362  13.828  0.00  0.00    +0.000 C 
BRANCH  14  15
ATOM     15  C   UNL     1      45.035   4.224  13.264  0.00  0.00    +0.000 C 
ATOM     16  C   UNL     1      44.997   3.357  11.988  0.00  0.00    +0.000 C 
ATOM     17  C   UNL     1      43.632   3.334  11.307  0.00  0.00    +0.000 C 
ATOM     18  C   UNL     1      43.122   4.743  11.038  0.00  0.00    +0.000 C 
ATOM     19  C   UNL     1      43.038   5.535  12.336  0.00  0.00    +0.000 C 
ATOM     20  C   UNL     1      44.399   5.610  13.027  0.00  0.00    +0.000 C 
ENDBRANCH  14  15
ENDBRANCH  12  14
ENDBRANCH   1  12
TORSDOF 4
ENDMDL
MODEL 8
REMARK VINA RESULT:    -5.280      4.067      6.315
REMARK INTER + INTRA:          -7.067
REMARK INTER:                  -6.538
REMARK INTRA:                  -0.529
REMARK UNBOUND:                -0.552
REMARK  Name = 
REMARK  5 active torsions:
REMARK  status: ('A' for Active; 'I' for Inactive)
REMARK    1  A    between atoms: C_1  and  C_2
REMARK    2  A    between atoms: C_2  and  O_3
REMARK    3  A    between atoms: C_2  and  C_13
REMARK    4  A    between atoms: O_3  and  C_4
REMARK    5  A    between atoms: C_7  and  C_8
REMARK                            x       y       z     vdW  Elec       q    Type
REMARK                         _______ _______ _______ _____ _____    ______ ____
ROOT
ATOM      1  C   UNL     1      46.980   5.428  13.416  0.00  0.00    +0.000 A 
ATOM      2  C   UNL     1      46.385   6.560  12.880  0.00  0.00    +0.000 A 
ATOM      3  C   UNL     1      45.104   6.444  12.338  0.00  0.00    +0.000 A 
ATOM      4  C   UNL     1      44.476   5.195  12.297  0.00  0.00    +0.000 A 
ATOM      5  C   UNL     1      45.184   4.116  12.811  0.00  0.00    +0.000 A 
ATOM      6  N   UNL     1      46.417   4.203  13.381  0.00  0.00    +0.000 NA
ENDROOT
BRANCH   4   7
ATOM      7  C   UNL     1      43.113   5.101  11.711  0.00  0.00    +0.000 C 
ATOM      8  N   UNL     1      42.323   6.217  11.681  0.00  0.00    +0.000 N 
ATOM      9  O   UNL     1      42.690   4.048  11.257  0.00  0.00    +0.000 OA
ATOM     10  H   UNL     1      42.561   7.128  12.033  0.00  0.00    +0.000 HD
ATOM     11  H   UNL     1      41.401   6.098  11.274  0.00  0.00    +0.000 HD
ENDBRANCH   4   7
BRANCH   1  12
ATOM     12  O   UNL     1      48.218   5.598  14.003  0.00  0.00    +0.000 OA
BRANCH  12  14
ATOM     13  C   UNL     1      49.111   7.449  15.323  0.00  0.00    +0.000 C 
ATOM     14  C   UNL     1      48.200   6.213  15.307  0.00  0.00    +0.000 C 
BRANCH  14  15
ATOM     15  C   UNL     1      48.689   5.164  16.357  0.00  0.00    +0.000 C 
ATOM     16  C   UNL     1      47.555   4.209  16.785  0.00  0.00    +0.000 C 
ATOM     17  C   UNL     1      47.941   3.279  17.931  0.00  0.00    +0.000 C 
ATOM     18  C   UNL     1      48.488   4.059  19.117  0.00  0.00    +0.000 C 
ATOM     19  C   UNL     1      49.695   4.888  18.698  0.00  0.00    +0.000 C 
ATOM     20  C   UNL     1      49.335   5.859  17.574  0.00  0.00    +0.000 C 
ENDBRANCH  14  15
ENDBRANCH  12  14
ENDBRANCH   1  12
TORSDOF 4
ENDMDL
MODEL 9
REMARK VINA RESULT:    -5.244      3.845      6.046
REMARK INTER + INTRA:          -7.023
REMARK INTER:                  -6.408
REMARK INTRA:                  -0.615
REMARK UNBOUND:                -0.552
REMARK  Name = 
REMARK  5 active torsions:
REMARK  status: ('A' for Active; 'I' for Inactive)
REMARK    1  A    between atoms: C_1  and  C_2
REMARK    2  A    between atoms: C_2  and  O_3
REMARK    3  A    between atoms: C_2  and  C_13
REMARK    4  A    between atoms: O_3  and  C_4
REMARK    5  A    between atoms: C_7  and  C_8
REMARK                            x       y       z     vdW  Elec       q    Type
REMARK                         _______ _______ _______ _____ _____    ______ ____
ROOT
ATOM      1  C   UNL     1      47.151   6.014  12.570  0.00  0.00    +0.000 A 
ATOM      2  C   UNL     1      46.396   5.316  13.500  0.00  0.00    +0.000 A 
ATOM      3  C   UNL     1      45.078   4.992  13.178  0.00  0.00    +0.000 A 
ATOM      4  C   UNL     1      44.533   5.419  11.964  0.00  0.00    +0.000 A 
ATOM      5  C   UNL     1      45.359   6.160  11.128  0.00  0.00    +0.000 A 
ATOM      6  N   UNL     1      46.660   6.459  11.396  0.00  0.00    +0.000 NA
ENDROOT
BRANCH   4   7
ATOM      7  C   UNL     1      43.124   5.063  11.649  0.00  0.00    +0.000 C 
ATOM      8  N   UNL     1      42.155   6.021  11.762  0.00  0.00    +0.000 N 
ATOM      9  O   UNL     1      42.821   3.934  11.291  0.00  0.00    +0.000 OA
ATOM     10  H   UNL     1      42.286   6.973  12.056  0.00  0.00    +0.000 HD
ATOM     11  H   UNL     1      41.210   5.725  11.538  0.00  0.00    +0.000 HD
ENDBRANCH   4   7
BRANCH   1  12
ATOM     12  O   UNL     1      48.470   6.255  12.898  0.00  0.00    +0.000 OA
BRANCH  12  14
ATOM     13  C   UNL     1      50.118   7.713  11.837  0.00  0.00    +0.000 C 
ATOM     14  C   UNL     1      48.896   7.626  12.763  0.00  0.00    +0.000 C 
BRANCH  14  15
ATOM     15  C   UNL     1      49.251   8.177  14.182  0.00  0.00    +0.000 C 
ATOM     16  C   UNL     1      49.793   7.068  15.108  0.00  0.00    +0.000 C 
ATOM     17  C   UNL     1      49.992   7.523  16.551  0.00  0.00    +0.000 C 
ATOM     18  C   UNL     1      48.724   8.148  17.115  0.00  0.00    +0.000 C 
ATOM     19  C   UNL     1      48.286   9.328  16.259  0.00  0.00    +0.000 C 
ATOM     20  C   UNL     1      48.042   8.901  14.812  0.00  0.00    +0.000 C 
ENDBRANCH  14  15
ENDBRANCH  12  14
ENDBRANCH   1  12
TORSDOF 4
ENDMDL
