MODEL 1
REMARK VINA RESULT:    -9.287      0.000      0.000
REMARK INTER + INTRA:         -12.142
REMARK INTER:                 -11.459
REMARK INTRA:                  -0.683
REMARK UNBOUND:                -0.683
REMARK  Name = 
REMARK  4 active torsions:
REMARK  status: ('A' for Active; 'I' for Inactive)
REMARK    1  A    between atoms: C_2  and  C_4
REMARK    2  A    between atoms: N_8  and  C_9
REMARK    3  A    between atoms: C_9  and  C_10
REMARK    4  A    between atoms: C_14  and  C_15
REMARK                            x       y       z     vdW  Elec       q    Type
REMARK                         _______ _______ _______ _____ _____    ______ ____
ROOT
ATOM      1  C   UNL     1      44.118   4.944  11.517  0.00  0.00    +0.000 C 
ATOM      2  C   UNL     1      42.861   4.946  12.369  0.00  0.00    +0.000 C 
ATOM      3  C   UNL     1      43.002   5.941  11.268  0.00  0.00    +0.000 C 
ENDROOT
BRANCH   1   8
ATOM      4  C   UNL     1      46.544   2.763   7.429  0.00  0.00    +0.000 A 
ATOM      5  C   UNL     1      46.385   4.112   7.742  0.00  0.00    +0.000 A 
ATOM      6  C   UNL     1      45.647   4.468   8.876  0.00  0.00    +0.000 A 
ATOM      7  C   UNL     1      45.101   3.469   9.672  0.00  0.00    +0.000 A 
ATOM      8  N   UNL     1      44.270   3.704  10.758  0.00  0.00    +0.000 N 
ATOM      9  N   UNL     1      45.273   2.160   9.390  0.00  0.00    +0.000 NA
ATOM     10  C   UNL     1      45.967   1.832   8.274  0.00  0.00    +0.000 A 
ATOM     11  H   UNL     1      44.139   2.819  11.239  0.00  0.00    +0.000 HD
BRANCH   4  13
ATOM     12  N   UNL     1      47.165   3.024   5.095  0.00  0.00    +0.000 N 
ATOM     13  C   UNL     1      47.263   2.278   6.235  0.00  0.00    +0.000 C 
ATOM     14  O   UNL     1      47.954   1.268   6.272  0.00  0.00    +0.000 OA
ATOM     15  H   UNL     1      47.752   2.738   4.321  0.00  0.00    +0.000 HD
ATOM     16  H   UNL     1      46.836   3.979   5.104  0.00  0.00    +0.000 HD
ENDBRANCH   4  13
ENDBRANCH   1   8
BRANCH   1  17
ATOM     17  C   UNL     1      45.447   5.495  12.019  0.00  0.00    +0.000 A 
ATOM     18  C   UNL     1      46.032   6.633  11.445  0.00  0.00    +0.000 A 
ATOM     19  C   UNL     1      47.091   7.289  12.072  0.00  0.00    +0.000 A 
ATOM     20  C   UNL     1      47.591   6.815  13.286  0.00  0.00    +0.000 A 
ATOM     21  C   UNL     1      47.072   5.655  13.882  0.00  0.00    +0.000 A 
ATOM     22  C   UNL     1      46.025   5.001  13.208  0.00  0.00    +0.000 A 
BRANCH  21  23
ATOM     23  C   UNL     1      47.529   5.192  15.213  0.00  0.00    +0.000 A 
ATOM     24  C   UNL     1      48.552   5.834  15.922  0.00  0.00    +0.000 A 
ATOM     25  N   UNL     1      49.059   5.414  17.112  0.00  0.00    +0.000 NA
ATOM     26  C   UNL     1      48.508   4.299  17.637  0.00  0.00    +0.000 A 
ATOM     27  C   UNL     1      47.488   3.597  17.026  0.00  0.00    +0.000 A 
ATOM     28  F   UNL     1      46.993   2.487  17.583  0.00  0.00    +0.000 F 
ATOM     29  C   UNL     1      47.000   4.039  15.800  0.00  0.00    +0.000 A 
ENDBRANCH  21  23
ENDBRANCH   1  17
TORSDOF 4
ENDMDL
MODEL 2
REMARK VINA RESULT:    -9.213      2.745      3.879
REMARK INTER + INTRA:         -12.051
REMARK INTER:                 -10.884
REMARK INTRA:                  -1.167
REMARK UNBOUND:                -0.683
REMARK  Name = 
REMARK  4 active torsions:
REMARK  status: ('A' for Active; 'I' for Inactive)
REMARK    1  A    between atoms: C_2  and  C_4
REMARK    2  A    between atoms: N_8  and  C_9
REMARK    3  A    between atoms: C_9  and  C_10
REMARK    4  A    between atoms: C_14  and  C_15
REMARK                            x       y       z     vdW  Elec       q    Type
REMARK                         _______ _______ _______ _____ _____    ______ ____
ROOT
ATOM      1  C   UNL     1      43.856   4.992  11.512  0.00  0.00    +0.000 C 
ATOM      2  C   UNL     1      42.423   5.172  11.983  0.00  0.00    +0.000 C 
ATOM      3  C   UNL     1      43.006   6.148  11.018  0.00  0.00    +0.000 C 
ENDROOT
BRANCH   1   8
ATOM      4  C   UNL     1      46.476   2.801   7.551  0.00  0.00    +0.000 A 
ATOM      5  C   UNL     1      46.308   4.151   7.858  0.00  0.00    +0.000 A 
ATOM      6  C   UNL     1      45.515   4.510   8.953  0.00  0.00    +0.000 A 
ATOM      7  C   UNL     1      44.923   3.513   9.718  0.00  0.00    +0.000 A 
ATOM      8  N   UNL     1      44.040   3.752  10.761  0.00  0.00    +0.000 N 
ATOM      9  N   UNL     1      45.101   2.203   9.443  0.00  0.00    +0.000 NA
ATOM     10  C   UNL     1      45.850   1.873   8.364  0.00  0.00    +0.000 A 
ATOM     11  H   UNL     1      43.878   2.867  11.233  0.00  0.00    +0.000 HD
BRANCH   4  13
ATOM     12  N   UNL     1      47.184   3.039   5.239  0.00  0.00    +0.000 N 
ATOM     13  C   UNL     1      47.251   2.314   6.395  0.00  0.00    +0.000 C 
ATOM     14  O   UNL     1      47.961   1.319   6.476  0.00  0.00    +0.000 OA
ATOM     15  H   UNL     1      47.807   2.754   4.494  0.00  0.00    +0.000 HD
ATOM     16  H   UNL     1      46.835   3.987   5.220  0.00  0.00    +0.000 HD
ENDBRANCH   4  13
ENDBRANCH   1   8
BRANCH   1  17
ATOM     17  C   UNL     1      45.054   5.332  12.391  0.00  0.00    +0.000 A 
ATOM     18  C   UNL     1      45.565   4.414  13.320  0.00  0.00    +0.000 A 
ATOM     19  C   UNL     1      46.808   4.616  13.919  0.00  0.00    +0.000 A 
ATOM     20  C   UNL     1      47.564   5.747  13.603  0.00  0.00    +0.000 A 
ATOM     21  C   UNL     1      47.081   6.718  12.714  0.00  0.00    +0.000 A 
ATOM     22  C   UNL     1      45.810   6.498  12.151  0.00  0.00    +0.000 A 
BRANCH  21  23
ATOM     23  C   UNL     1      47.909   7.875  12.299  0.00  0.00    +0.000 A 
ATOM     24  C   UNL     1      47.387   9.170  12.187  0.00  0.00    +0.000 A 
ATOM     25  N   UNL     1      48.080  10.254  11.745  0.00  0.00    +0.000 NA
ATOM     26  C   UNL     1      49.370  10.043  11.408  0.00  0.00    +0.000 A 
ATOM     27  C   UNL     1      49.984   8.809  11.492  0.00  0.00    +0.000 A 
ATOM     28  F   UNL     1      51.261   8.655  11.126  0.00  0.00    +0.000 F 
ATOM     29  C   UNL     1      49.247   7.713  11.930  0.00  0.00    +0.000 A 
ENDBRANCH  21  23
ENDBRANCH   1  17
TORSDOF 4
ENDMDL
MODEL 3
REMARK VINA RESULT:    -7.625      3.558      7.806
REMARK INTER + INTRA:         -10.092
REMARK INTER:                 -10.132
REMARK INTRA:                   0.040
REMARK UNBOUND:                -0.683
REMARK  Name = 
REMARK  4 active torsions:
REMARK  status: ('A' for Active; 'I' for Inactive)
REMARK    1  A    between atoms: C_2  and  C_4
REMARK    2  A    between atoms: N_8  and  C_9
REMARK    3  A    between atoms: C_9  and  C_10
REMARK    4  A    between atoms: C_14  and  C_15
REMARK                            x       y       z     vdW  Elec       q    Type
REMARK                         _______ _______ _______ _____ _____    ______ ____
ROOT
ATOM      1  C   UNL     1      48.597   7.731  12.778  0.00  0.00    +0.000 C 
ATOM      2  C   UNL     1      49.712   7.296  11.844  0.00  0.00    +0.000 C 
ATOM      3  C   UNL     1      49.358   8.741  11.940  0.00  0.00    +0.000 C 
ENDROOT
BRANCH   1   8
ATOM      4  C   UNL     1      47.853   4.324  16.675  0.00  0.00    +0.000 A 
ATOM      5  C   UNL     1      47.156   4.455  15.475  0.00  0.00    +0.000 A 
ATOM      6  C   UNL     1      47.503   5.484  14.592  0.00  0.00    +0.000 A 
ATOM      7  C   UNL     1      48.543   6.343  14.926  0.00  0.00    +0.000 A 
ATOM      8  N   UNL     1      48.907   7.454  14.179  0.00  0.00    +0.000 N 
ATOM      9  N   UNL     1      49.239   6.206  16.075  0.00  0.00    +0.000 NA
ATOM     10  C   UNL     1      48.873   5.222  16.930  0.00  0.00    +0.000 A 
ATOM     11  H   UNL     1      49.776   7.811  14.566  0.00  0.00    +0.000 HD
BRANCH   4  13
ATOM     12  N   UNL     1      48.368   3.223  18.779  0.00  0.00    +0.000 N 
ATOM     13  C   UNL     1      47.540   3.306  17.697  0.00  0.00    +0.000 C 
ATOM     14  O   UNL     1      46.552   2.588  17.600  0.00  0.00    +0.000 OA
ATOM     15  H   UNL     1      48.076   2.598  19.520  0.00  0.00    +0.000 HD
ATOM     16  H   UNL     1      49.015   3.961  19.018  0.00  0.00    +0.000 HD
ENDBRANCH   4  13
ENDBRANCH   1   8
BRANCH   1  17
ATOM     17  C   UNL     1      47.124   7.519  12.447  0.00  0.00    +0.000 A 
ATOM     18  C   UNL     1      46.178   8.538  12.628  0.00  0.00    +0.000 A 
ATOM     19  C   UNL     1      44.901   8.438  12.076  0.00  0.00    +0.000 A 
ATOM     20  C   UNL     1      44.542   7.310  11.337  0.00  0.00    +0.000 A 
ATOM     21  C   UNL     1      45.434   6.241  11.163  0.00  0.00    +0.000 A 
ATOM     22  C   UNL     1      46.704   6.361  11.758  0.00  0.00    +0.000 A 
BRANCH  21  23
ATOM     23  C   UNL     1      45.101   5.079  10.305  0.00  0.00    +0.000 A 
ATOM     24  C   UNL     1      44.290   4.027  10.748  0.00  0.00    +0.000 A 
ATOM     25  N   UNL     1      44.008   2.906  10.032  0.00  0.00    +0.000 NA
ATOM     26  C   UNL     1      44.553   2.830   8.799  0.00  0.00    +0.000 A 
ATOM     27  C   UNL     1      45.357   3.816   8.263  0.00  0.00    +0.000 A 
ATOM     28  F   UNL     1      45.885   3.680   7.042  0.00  0.00    +0.000 F 
ATOM     29  C   UNL     1      45.644   4.945   9.025  0.00  0.00    +0.000 A 
ENDBRANCH  21  23
ENDBRANCH   1  17
TORSDOF 4
ENDMDL
MODEL 4
REMARK VINA RESULT:    -7.214      4.245      8.615
REMARK INTER + INTRA:          -9.585
REMARK INTER:                  -8.644
REMARK INTRA:                  -0.941
REMARK UNBOUND:                -0.683
REMARK  Name = 
REMARK  4 active torsions:
REMARK  status: ('A' for Active; 'I' for Inactive)
REMARK    1  A    between atoms: C_2  and  C_4
REMARK    2  A    between atoms: N_8  and  C_9
REMARK    3  A    between atoms: C_9  and  C_10
REMARK    4  A    between atoms: C_14  and  C_15
REMARK                            x       y       z     vdW  Elec       q    Type
REMARK                         _______ _______ _______ _____ _____    ______ ____
ROOT
ATOM      1  C   UNL     1      48.954   7.773  12.536  0.00  0.00    +0.000 C 
ATOM      2  C   UNL     1      49.942   7.817  11.383  0.00  0.00    +0.000 C 
ATOM      3  C   UNL     1      49.576   9.081  12.083  0.00  0.00    +0.000 C 
ENDROOT
BRANCH   1   8
ATOM      4  C   UNL     1      48.881   7.365  17.749  0.00  0.00    +0.000 A 
ATOM      5  C   UNL     1      48.508   8.441  16.944  0.00  0.00    +0.000 A 
ATOM      6  C   UNL     1      48.661   8.342  15.557  0.00  0.00    +0.000 A 
ATOM      7  C   UNL     1      49.168   7.169  15.012  0.00  0.00    +0.000 A 
ATOM      8  N   UNL     1      49.456   6.995  13.666  0.00  0.00    +0.000 N 
ATOM      9  N   UNL     1      49.508   6.114  15.783  0.00  0.00    +0.000 NA
ATOM     10  C   UNL     1      49.379   6.235  17.126  0.00  0.00    +0.000 A 
ATOM     11  H   UNL     1      49.672   6.013  13.524  0.00  0.00    +0.000 HD
BRANCH   4  13
ATOM     12  N   UNL     1      49.828   6.794  19.913  0.00  0.00    +0.000 N 
ATOM     13  C   UNL     1      48.806   7.381  19.223  0.00  0.00    +0.000 C 
ATOM     14  O   UNL     1      47.883   7.932  19.809  0.00  0.00    +0.000 OA
ATOM     15  H   UNL     1      49.815   6.912  20.918  0.00  0.00    +0.000 HD
ATOM     16  H   UNL     1      50.714   6.577  19.478  0.00  0.00    +0.000 HD
ENDBRANCH   4  13
ENDBRANCH   1   8
BRANCH   1  17
ATOM     17  C   UNL     1      47.455   7.602  12.322  0.00  0.00    +0.000 A 
ATOM     18  C   UNL     1      46.562   8.668  12.504  0.00  0.00    +0.000 A 
ATOM     19  C   UNL     1      45.246   8.589  12.049  0.00  0.00    +0.000 A 
ATOM     20  C   UNL     1      44.794   7.434  11.407  0.00  0.00    +0.000 A 
ATOM     21  C   UNL     1      45.632   6.321  11.239  0.00  0.00    +0.000 A 
ATOM     22  C   UNL     1      46.944   6.425  11.735  0.00  0.00    +0.000 A 
BRANCH  21  23
ATOM     23  C   UNL     1      45.196   5.126  10.479  0.00  0.00    +0.000 A 
ATOM     24  C   UNL     1      44.480   4.079  11.073  0.00  0.00    +0.000 A 
ATOM     25  N   UNL     1      44.115   2.929  10.445  0.00  0.00    +0.000 NA
ATOM     26  C   UNL     1      44.470   2.817   9.147  0.00  0.00    +0.000 A 
ATOM     27  C   UNL     1      45.167   3.795   8.464  0.00  0.00    +0.000 A 
ATOM     28  F   UNL     1      45.509   3.623   7.183  0.00  0.00    +0.000 F 
ATOM     29  C   UNL     1      45.543   4.954   9.137  0.00  0.00    +0.000 A 
ENDBRANCH  21  23
ENDBRANCH   1  17
TORSDOF 4
ENDMDL
MODEL 5
REMARK VINA RESULT:    -6.905      4.040      8.351
REMARK INTER + INTRA:          -9.204
REMARK INTER:                  -8.586
REMARK INTRA:                  -0.618
REMARK UNBOUND:                -0.683
REMARK  Name = 
REMARK  4 active torsions:
REMARK  status: ('A' for Active; 'I' for Inactive)
REMARK    1  A    between atoms: C_2  and  C_4
REMARK    2  A    between atoms: N_8  and  C_9
REMARK    3  A    between atoms: C_9  and  C_10
REMARK    4  A    between atoms: C_14  and  C_15
REMARK                            x       y       z     vdW  Elec       q    Type
REMARK                         _______ _______ _______ _____ _____    ______ ____
ROOT
ATOM      1  C   UNL     1      48.177   4.746  17.064  0.00  0.00    +0.000 C 
ATOM      2  C   UNL     1      47.152   4.850  18.180  0.00  0.00    +0.000 C 
ATOM      3  C   UNL     1      47.162   3.643  17.304  0.00  0.00    +0.000 C 
ENDROOT
BRANCH   1   8
ATOM      4  C   UNL     1      52.354   1.660  17.686  0.00  0.00    +0.000 A 
ATOM      5  C   UNL     1      51.033   1.310  17.407  0.00  0.00    +0.000 A 
ATOM      6  C   UNL     1      50.062   2.313  17.332  0.00  0.00    +0.000 A 
ATOM      7  C   UNL     1      50.437   3.637  17.524  0.00  0.00    +0.000 A 
ATOM      8  N   UNL     1      49.547   4.701  17.572  0.00  0.00    +0.000 N 
ATOM      9  N   UNL     1      51.718   3.986  17.769  0.00  0.00    +0.000 NA
ATOM     10  C   UNL     1      52.641   3.001  17.865  0.00  0.00    +0.000 A 
ATOM     11  H   UNL     1      50.094   5.557  17.576  0.00  0.00    +0.000 HD
BRANCH   4  13
ATOM     12  N   UNL     1      53.751  -0.093  16.749  0.00  0.00    +0.000 N 
ATOM     13  C   UNL     1      53.447   0.680  17.833  0.00  0.00    +0.000 C 
ATOM     14  O   UNL     1      54.086   0.588  18.874  0.00  0.00    +0.000 OA
ATOM     15  H   UNL     1      54.573  -0.678  16.833  0.00  0.00    +0.000 HD
ATOM     16  H   UNL     1      53.436   0.140  15.818  0.00  0.00    +0.000 HD
ENDBRANCH   4  13
ENDBRANCH   1   8
BRANCH   1  17
ATOM     17  C   UNL     1      48.056   5.535  15.766  0.00  0.00    +0.000 A 
ATOM     18  C   UNL     1      49.012   6.493  15.399  0.00  0.00    +0.000 A 
ATOM     19  C   UNL     1      49.049   7.011  14.104  0.00  0.00    +0.000 A 
ATOM     20  C   UNL     1      48.123   6.583  13.150  0.00  0.00    +0.000 A 
ATOM     21  C   UNL     1      47.117   5.661  13.477  0.00  0.00    +0.000 A 
ATOM     22  C   UNL     1      47.090   5.182  14.799  0.00  0.00    +0.000 A 
BRANCH  21  23
ATOM     23  C   UNL     1      46.186   5.129  12.454  0.00  0.00    +0.000 A 
ATOM     24  C   UNL     1      46.016   5.738  11.204  0.00  0.00    +0.000 A 
ATOM     25  N   UNL     1      45.128   5.337  10.256  0.00  0.00    +0.000 NA
ATOM     26  C   UNL     1      44.373   4.259  10.560  0.00  0.00    +0.000 A 
ATOM     27  C   UNL     1      44.469   3.579  11.759  0.00  0.00    +0.000 A 
ATOM     28  F   UNL     1      43.682   2.529  12.014  0.00  0.00    +0.000 F 
ATOM     29  C   UNL     1      45.375   4.023  12.719  0.00  0.00    +0.000 A 
ENDBRANCH  21  23
ENDBRANCH   1  17
TORSDOF 4
ENDMDL
MODEL 6
REMARK VINA RESULT:    -6.899      3.583      5.189
REMARK INTER + INTRA:          -9.196
REMARK INTER:                  -8.062
REMARK INTRA:                  -1.134
REMARK UNBOUND:                -0.683
REMARK  Name = 
REMARK  4 active torsions:
REMARK  status: ('A' for Active; 'I' for Inactive)
REMARK    1  A    between atoms: C_2  and  C_4
REMARK    2  A    between atoms: N_8  and  C_9
REMARK    3  A    between atoms: C_9  and  C_10
REMARK    4  A    between atoms: C_14  and  C_15
REMARK                            x       y       z     vdW  Elec       q    Type
REMARK                         _______ _______ _______ _____ _____    ______ ____
ROOT
ATOM      1  C   UNL     1      48.912   8.461  12.586  0.00  0.00    +0.000 C 
ATOM      2  C   UNL     1      49.922   9.236  11.758  0.00  0.00    +0.000 C 
ATOM      3  C   UNL     1      49.981   7.746  11.781  0.00  0.00    +0.000 C 
ENDROOT
BRANCH   1   8
ATOM      4  C   UNL     1      44.369   6.029  11.690  0.00  0.00    +0.000 A 
ATOM      5  C   UNL     1      45.637   5.483  11.890  0.00  0.00    +0.000 A 
ATOM      6  C   UNL     1      46.729   6.339  12.065  0.00  0.00    +0.000 A 
ATOM      7  C   UNL     1      46.525   7.713  12.048  0.00  0.00    +0.000 A 
ATOM      8  N   UNL     1      47.543   8.653  12.111  0.00  0.00    +0.000 N 
ATOM      9  N   UNL     1      45.297   8.249  11.881  0.00  0.00    +0.000 NA
ATOM     10  C   UNL     1      44.254   7.407  11.686  0.00  0.00    +0.000 A 
ATOM     11  H   UNL     1      47.110   9.565  12.227  0.00  0.00    +0.000 HD
BRANCH   4  13
ATOM     12  N   UNL     1      41.951   5.797  11.722  0.00  0.00    +0.000 N 
ATOM     13  C   UNL     1      43.158   5.220  11.449  0.00  0.00    +0.000 C 
ATOM     14  O   UNL     1      43.228   4.089  10.986  0.00  0.00    +0.000 OA
ATOM     15  H   UNL     1      41.131   5.271  11.447  0.00  0.00    +0.000 HD
ATOM     16  H   UNL     1      41.847   6.795  11.843  0.00  0.00    +0.000 HD
ENDBRANCH   4  13
ENDBRANCH   1   8
BRANCH   1  17
ATOM     17  C   UNL     1      49.001   8.366  14.104  0.00  0.00    +0.000 A 
ATOM     18  C   UNL     1      48.675   9.453  14.927  0.00  0.00    +0.000 A 
ATOM     19  C   UNL     1      48.493   9.286  16.300  0.00  0.00    +0.000 A 
ATOM     20  C   UNL     1      48.641   8.024  16.879  0.00  0.00    +0.000 A 
ATOM     21  C   UNL     1      49.010   6.910  16.109  0.00  0.00    +0.000 A 
ATOM     22  C   UNL     1      49.214   7.120  14.733  0.00  0.00    +0.000 A 
BRANCH  21  23
ATOM     23  C   UNL     1      49.081   5.549  16.691  0.00  0.00    +0.000 A 
ATOM     24  C   UNL     1      50.294   4.948  17.049  0.00  0.00    +0.000 A 
ATOM     25  N   UNL     1      50.426   3.679  17.521  0.00  0.00    +0.000 NA
ATOM     26  C   UNL     1      49.285   2.970  17.659  0.00  0.00    +0.000 A 
ATOM     27  C   UNL     1      48.037   3.472  17.346  0.00  0.00    +0.000 A 
ATOM     28  F   UNL     1      46.942   2.718  17.485  0.00  0.00    +0.000 F 
ATOM     29  C   UNL     1      47.933   4.768  16.848  0.00  0.00    +0.000 A 
ENDBRANCH  21  23
ENDBRANCH   1  17
TORSDOF 4
ENDMDL
MODEL 7
REMARK VINA RESULT:    -6.483      2.077      3.149
REMARK INTER + INTRA:          -8.682
REMARK INTER:                  -7.793
REMARK INTRA:                  -0.889
REMARK UNBOUND:                -0.683
REMARK  Name = 
REMARK  4 active torsions:
REMARK  status: ('A' for Active; 'I' for Inactive)
REMARK    1  A    between atoms: C_2  and  C_4
REMARK    2  A    between atoms: N_8  and  C_9
REMARK    3  A    between atoms: C_9  and  C_10
REMARK    4  A    between atoms: C_14  and  C_15
REMARK                            x       y       z     vdW  Elec       q    Type
REMARK                         _______ _______ _______ _____ _____    ______ ____
ROOT
ATOM      1  C   UNL     1      45.951   7.989  12.567  0.00  0.00    +0.000 C 
ATOM      2  C   UNL     1      45.230   9.279  12.919  0.00  0.00    +0.000 C 
ATOM      3  C   UNL     1      46.027   9.203  11.660  0.00  0.00    +0.000 C 
ENDROOT
BRANCH   1   8
ATOM      4  C   UNL     1      44.941   3.873   9.502  0.00  0.00    +0.000 A 
ATOM      5  C   UNL     1      45.786   4.958   9.271  0.00  0.00    +0.000 A 
ATOM      6  C   UNL     1      45.863   5.979  10.223  0.00  0.00    +0.000 A 
ATOM      7  C   UNL     1      45.106   5.884  11.384  0.00  0.00    +0.000 A 
ATOM      8  N   UNL     1      45.026   6.880  12.347  0.00  0.00    +0.000 N 
ATOM      9  N   UNL     1      44.305   4.824  11.627  0.00  0.00    +0.000 NA
ATOM     10  C   UNL     1      44.221   3.856  10.683  0.00  0.00    +0.000 A 
ATOM     11  H   UNL     1      44.528   6.494  13.145  0.00  0.00    +0.000 HD
BRANCH   4  13
ATOM     12  N   UNL     1      44.615   1.507   9.058  0.00  0.00    +0.000 N 
ATOM     13  C   UNL     1      44.749   2.765   8.546  0.00  0.00    +0.000 C 
ATOM     14  O   UNL     1      44.673   2.969   7.341  0.00  0.00    +0.000 OA
ATOM     15  H   UNL     1      44.373   0.778   8.398  0.00  0.00    +0.000 HD
ATOM     16  H   UNL     1      44.404   1.343  10.033  0.00  0.00    +0.000 HD
ENDBRANCH   4  13
ENDBRANCH   1   8
BRANCH   1  17
ATOM     17  C   UNL     1      47.236   7.556  13.261  0.00  0.00    +0.000 A 
ATOM     18  C   UNL     1      48.400   8.336  13.201  0.00  0.00    +0.000 A 
ATOM     19  C   UNL     1      49.478   8.083  14.050  0.00  0.00    +0.000 A 
ATOM     20  C   UNL     1      49.415   7.037  14.973  0.00  0.00    +0.000 A 
ATOM     21  C   UNL     1      48.293   6.198  15.044  0.00  0.00    +0.000 A 
ATOM     22  C   UNL     1      47.236   6.462  14.154  0.00  0.00    +0.000 A 
BRANCH  21  23
ATOM     23  C   UNL     1      48.172   5.143  16.078  0.00  0.00    +0.000 A 
ATOM     24  C   UNL     1      47.131   4.207  16.078  0.00  0.00    +0.000 A 
ATOM     25  N   UNL     1      46.931   3.264  17.037  0.00  0.00    +0.000 NA
ATOM     26  C   UNL     1      47.825   3.239  18.049  0.00  0.00    +0.000 A 
ATOM     27  C   UNL     1      48.893   4.110  18.138  0.00  0.00    +0.000 A 
ATOM     28  F   UNL     1      49.737   4.053  19.174  0.00  0.00    +0.000 F 
ATOM     29  C   UNL     1      49.064   5.077  17.152  0.00  0.00    +0.000 A 
ENDBRANCH  21  23
ENDBRANCH   1  17
TORSDOF 4
ENDMDL
MODEL 8
REMARK VINA RESULT:    -6.440      4.346      6.081
REMARK INTER + INTRA:          -8.629
REMARK INTER:                  -7.633
REMARK INTRA:                  -0.996
REMARK UNBOUND:                -0.683
REMARK  Name = 
REMARK  4 active torsions:
REMARK  status: ('A' for Active; 'I' for Inactive)
REMARK    1  A    between atoms: C_2  and  C_4
REMARK    2  A    between atoms: N_8  and  C_9
REMARK    3  A    between atoms: C_9  and  C_10
REMARK    4  A    between atoms: C_14  and  C_15
REMARK                            x       y       z     vdW  Elec       q    Type
REMARK                         _______ _______ _______ _____ _____    ______ ____
ROOT
ATOM      1  C   UNL     1      45.874   9.019  12.209  0.00  0.00    +0.000 C 
ATOM      2  C   UNL     1      45.284  10.419  12.203  0.00  0.00    +0.000 C 
ATOM      3  C   UNL     1      45.768   9.822  10.925  0.00  0.00    +0.000 C 
ENDROOT
BRANCH   1   8
ATOM      4  C   UNL     1      44.231   4.140  11.289  0.00  0.00    +0.000 A 
ATOM      5  C   UNL     1      45.048   4.957  10.508  0.00  0.00    +0.000 A 
ATOM      6  C   UNL     1      45.319   6.261  10.935  0.00  0.00    +0.000 A 
ATOM      7  C   UNL     1      44.779   6.708  12.135  0.00  0.00    +0.000 A 
ATOM      8  N   UNL     1      44.897   8.008  12.606  0.00  0.00    +0.000 N 
ATOM      9  N   UNL     1      44.008   5.915  12.909  0.00  0.00    +0.000 NA
ATOM     10  C   UNL     1      43.734   4.664  12.468  0.00  0.00    +0.000 A 
ATOM     11  H   UNL     1      44.541   8.021  13.558  0.00  0.00    +0.000 HD
BRANCH   4  13
ATOM     12  N   UNL     1      44.515   2.187   9.872  0.00  0.00    +0.000 N 
ATOM     13  C   UNL     1      43.845   2.767  10.911  0.00  0.00    +0.000 C 
ATOM     14  O   UNL     1      42.983   2.153  11.529  0.00  0.00    +0.000 OA
ATOM     15  H   UNL     1      44.314   1.209   9.700  0.00  0.00    +0.000 HD
ATOM     16  H   UNL     1      45.392   2.552   9.527  0.00  0.00    +0.000 HD
ENDBRANCH   4  13
ENDBRANCH   1   8
BRANCH   1  17
ATOM     17  C   UNL     1      47.274   8.725  12.734  0.00  0.00    +0.000 A 
ATOM     18  C   UNL     1      47.475   8.040  13.941  0.00  0.00    +0.000 A 
ATOM     19  C   UNL     1      48.730   7.536  14.280  0.00  0.00    +0.000 A 
ATOM     20  C   UNL     1      49.814   7.714  13.418  0.00  0.00    +0.000 A 
ATOM     21  C   UNL     1      49.679   8.430  12.219  0.00  0.00    +0.000 A 
ATOM     22  C   UNL     1      48.406   8.950  11.922  0.00  0.00    +0.000 A 
BRANCH  21  23
ATOM     23  C   UNL     1      50.796   8.548  11.251  0.00  0.00    +0.000 A 
ATOM     24  C   UNL     1      51.303   9.787  10.838  0.00  0.00    +0.000 A 
ATOM     25  N   UNL     1      52.276   9.957   9.904  0.00  0.00    +0.000 NA
ATOM     26  C   UNL     1      52.786   8.833   9.357  0.00  0.00    +0.000 A 
ATOM     27  C   UNL     1      52.364   7.563   9.701  0.00  0.00    +0.000 A 
ATOM     28  F   UNL     1      52.891   6.485   9.113  0.00  0.00    +0.000 F 
ATOM     29  C   UNL     1      51.354   7.418  10.648  0.00  0.00    +0.000 A 
ENDBRANCH  21  23
ENDBRANCH   1  17
TORSDOF 4
ENDMDL
MODEL 9
REMARK VINA RESULT:    -6.318      4.208      7.859
REMARK INTER + INTRA:          -8.479
REMARK INTER:                  -7.590
REMARK INTRA:                  -0.888
REMARK UNBOUND:                -0.683
REMARK  Name = 
REMARK  4 active torsions:
REMARK  status: ('A' for Active; 'I' for Inactive)
REMARK    1  A    between atoms: C_2  and  C_4
REMARK    2  A    between atoms: N_8  and  C_9
REMARK    3  A    between atoms: C_9  and  C_10
REMARK    4  A    between atoms: C_14  and  C_15
REMARK                            x       y       z     vdW  Elec       q    Type
REMARK                         _______ _______ _______ _____ _____    ______ ____
ROOT
ATOM      1  C   UNL     1      45.588   8.224  11.816  0.00  0.00    +0.000 C 
ATOM      2  C   UNL     1      44.960   9.366  11.036  0.00  0.00    +0.000 C 
ATOM      3  C   UNL     1      44.769   9.294  12.514  0.00  0.00    +0.000 C 
ENDROOT
BRANCH   1   8
ATOM      4  C   UNL     1      49.951   8.010  14.691  0.00  0.00    +0.000 A 
ATOM      5  C   UNL     1      48.641   8.261  15.096  0.00  0.00    +0.000 A 
ATOM      6  C   UNL     1      47.628   8.319  14.133  0.00  0.00    +0.000 A 
ATOM      7  C   UNL     1      47.948   8.113  12.797  0.00  0.00    +0.000 A 
ATOM      8  N   UNL     1      47.048   8.246  11.750  0.00  0.00    +0.000 N 
ATOM      9  N   UNL     1      49.211   7.845  12.400  0.00  0.00    +0.000 NA
ATOM     10  C   UNL     1      50.184   7.818  13.342  0.00  0.00    +0.000 A 
ATOM     11  H   UNL     1      47.503   7.900  10.910  0.00  0.00    +0.000 HD
BRANCH   4  13
ATOM     12  N   UNL     1      51.807   6.807  15.698  0.00  0.00    +0.000 N 
ATOM     13  C   UNL     1      51.101   7.973  15.616  0.00  0.00    +0.000 C 
ATOM     14  O   UNL     1      51.436   8.961  16.257  0.00  0.00    +0.000 OA
ATOM     15  H   UNL     1      52.655   6.835  16.250  0.00  0.00    +0.000 HD
ATOM     16  H   UNL     1      51.727   6.081  15.000  0.00  0.00    +0.000 HD
ENDBRANCH   4  13
ENDBRANCH   1   8
BRANCH   1  17
ATOM     17  C   UNL     1      45.018   6.811  11.797  0.00  0.00    +0.000 A 
ATOM     18  C   UNL     1      43.886   6.468  12.550  0.00  0.00    +0.000 A 
ATOM     19  C   UNL     1      43.210   5.268  12.325  0.00  0.00    +0.000 A 
ATOM     20  C   UNL     1      43.660   4.383  11.343  0.00  0.00    +0.000 A 
ATOM     21  C   UNL     1      44.813   4.657  10.592  0.00  0.00    +0.000 A 
ATOM     22  C   UNL     1      45.487   5.861  10.865  0.00  0.00    +0.000 A 
BRANCH  21  23
ATOM     23  C   UNL     1      45.249   3.773   9.485  0.00  0.00    +0.000 A 
ATOM     24  C   UNL     1      45.259   2.377   9.598  0.00  0.00    +0.000 A 
ATOM     25  N   UNL     1      45.713   1.521   8.644  0.00  0.00    +0.000 NA
ATOM     26  C   UNL     1      46.173   2.082   7.505  0.00  0.00    +0.000 A 
ATOM     27  C   UNL     1      46.197   3.446   7.288  0.00  0.00    +0.000 A 
ATOM     28  F   UNL     1      46.681   3.948   6.147  0.00  0.00    +0.000 F 
ATOM     29  C   UNL     1      45.742   4.300   8.289  0.00  0.00    +0.000 A 
ENDBRANCH  21  23
ENDBRANCH   1  17
TORSDOF 4
ENDMDL
