MODEL 1
REMARK VINA RESULT:    -6.691      0.000      0.000
REMARK INTER + INTRA:          -7.927
REMARK INTER:                  -7.865
REMARK INTRA:                  -0.063
REMARK UNBOUND:                -0.063
REMARK  Name = 
REMARK  3 active torsions:
REMARK  status: ('A' for Active; 'I' for Inactive)
REMARK    1  A    between atoms: C_2  and  C_3
REMARK    2  A    between atoms: C_6  and  C_7
REMARK    3  A    between atoms: C_7  and  C_8
REMARK                            x       y       z     vdW  Elec       q    Type
REMARK                         _______ _______ _______ _____ _____    ______ ____
ROOT
ATOM      1  C   UNL     1      44.409   4.433  11.012  0.00  0.00    +0.000 C 
ATOM      2  C   UNL     1      43.308   5.479  10.817  0.00  0.00    +0.000 C 
ATOM      3  C   UNL     1      42.938   4.132  11.338  0.00  0.00    +0.000 C 
ENDROOT
BRANCH   1   7
ATOM      4  C   UNL     1      47.088   4.884  14.297  0.00  0.00    +0.000 A 
ATOM      5  N   UNL     1      46.731   5.999  13.639  0.00  0.00    +0.000 NA
ATOM      6  C   UNL     1      45.886   5.825  12.592  0.00  0.00    +0.000 A 
ATOM      7  C   UNL     1      45.373   4.599  12.176  0.00  0.00    +0.000 A 
ATOM      8  C   UNL     1      45.840   3.536  12.936  0.00  0.00    +0.000 A 
ATOM      9  N   UNL     1      46.680   3.638  13.992  0.00  0.00    +0.000 NA
BRANCH   4  11
ATOM     10  N   UNL     1      48.657   5.145  16.362  0.00  0.00    +0.000 NA
ATOM     11  C   UNL     1      47.953   5.025  15.447  0.00  0.00    +0.000 C 
ENDBRANCH   4  11
ENDBRANCH   1   7
BRANCH   1  12
ATOM     12  C   UNL     1      44.943   3.768   9.740  0.00  0.00    +0.000 A 
ATOM     13  C   UNL     1      45.522   4.536   8.715  0.00  0.00    +0.000 A 
ATOM     14  C   UNL     1      46.243   3.937   7.681  0.00  0.00    +0.000 A 
ATOM     15  C   UNL     1      46.345   2.551   7.616  0.00  0.00    +0.000 A 
ATOM     16  C   UNL     1      45.695   1.764   8.562  0.00  0.00    +0.000 A 
ATOM     17  C   UNL     1      45.002   2.369   9.613  0.00  0.00    +0.000 A 
ENDBRANCH   1  12
TORSDOF 3
ENDMDL
MODEL 2
REMARK VINA RESULT:    -6.547      3.075      5.829
REMARK INTER + INTRA:          -7.758
REMARK INTER:                  -7.699
REMARK INTRA:                  -0.060
REMARK UNBOUND:                -0.063
REMARK  Name = 
REMARK  3 active torsions:
REMARK  status: ('A' for Active; 'I' for Inactive)
REMARK    1  A    between atoms: C_2  and  C_3
REMARK    2  A    between atoms: C_6  and  C_7
REMARK    3  A    between atoms: C_7  and  C_8
REMARK                            x       y       z     vdW  Elec       q    Type
REMARK                         _______ _______ _______ _____ _____    ______ ____
ROOT
ATOM      1  C   UNL     1      44.470   4.151  11.282  0.00  0.00    +0.000 C 
ATOM      2  C   UNL     1      43.396   3.215  11.841  0.00  0.00    +0.000 C 
ATOM      3  C   UNL     1      42.989   4.557  11.339  0.00  0.00    +0.000 C 
ENDROOT
BRANCH   1   7
ATOM      4  C   UNL     1      46.170   3.259   7.476  0.00  0.00    +0.000 A 
ATOM      5  N   UNL     1      46.090   4.554   7.823  0.00  0.00    +0.000 NA
ATOM      6  C   UNL     1      45.534   4.809   9.034  0.00  0.00    +0.000 A 
ATOM      7  C   UNL     1      45.067   3.841   9.918  0.00  0.00    +0.000 A 
ATOM      8  C   UNL     1      45.199   2.552   9.421  0.00  0.00    +0.000 A 
ATOM      9  N   UNL     1      45.743   2.226   8.225  0.00  0.00    +0.000 NA
BRANCH   4  11
ATOM     10  N   UNL     1      47.305   2.671   5.203  0.00  0.00    +0.000 NA
ATOM     11  C   UNL     1      46.793   2.935   6.211  0.00  0.00    +0.000 C 
ENDBRANCH   4  11
ENDBRANCH   1   7
BRANCH   1  12
ATOM     12  C   UNL     1      45.374   4.836  12.310  0.00  0.00    +0.000 A 
ATOM     13  C   UNL     1      46.028   4.088  13.305  0.00  0.00    +0.000 A 
ATOM     14  C   UNL     1      47.048   4.647  14.076  0.00  0.00    +0.000 A 
ATOM     15  C   UNL     1      47.390   5.986  13.913  0.00  0.00    +0.000 A 
ATOM     16  C   UNL     1      46.688   6.774  13.007  0.00  0.00    +0.000 A 
ATOM     17  C   UNL     1      45.690   6.203  12.214  0.00  0.00    +0.000 A 
ENDBRANCH   1  12
TORSDOF 3
ENDMDL
MODEL 3
REMARK VINA RESULT:    -6.470      0.829      1.399
REMARK INTER + INTRA:          -7.668
REMARK INTER:                  -7.674
REMARK INTRA:                   0.006
REMARK UNBOUND:                -0.063
REMARK  Name = 
REMARK  3 active torsions:
REMARK  status: ('A' for Active; 'I' for Inactive)
REMARK    1  A    between atoms: C_2  and  C_3
REMARK    2  A    between atoms: C_6  and  C_7
REMARK    3  A    between atoms: C_7  and  C_8
REMARK                            x       y       z     vdW  Elec       q    Type
REMARK                         _______ _______ _______ _____ _____    ______ ____
ROOT
ATOM      1  C   UNL     1      44.441   4.642  11.122  0.00  0.00    +0.000 C 
ATOM      2  C   UNL     1      43.172   5.488  10.992  0.00  0.00    +0.000 C 
ATOM      3  C   UNL     1      43.094   4.177  11.695  0.00  0.00    +0.000 C 
ENDROOT
BRANCH   1   7
ATOM      4  C   UNL     1      47.465   5.902  13.851  0.00  0.00    +0.000 A 
ATOM      5  N   UNL     1      47.181   4.590  13.813  0.00  0.00    +0.000 NA
ATOM      6  C   UNL     1      46.208   4.219  12.944  0.00  0.00    +0.000 A 
ATOM      7  C   UNL     1      45.513   5.086  12.106  0.00  0.00    +0.000 A 
ATOM      8  C   UNL     1      45.899   6.410  12.265  0.00  0.00    +0.000 A 
ATOM      9  N   UNL     1      46.861   6.849  13.110  0.00  0.00    +0.000 NA
BRANCH   4  11
ATOM     10  N   UNL     1      49.379   6.677  15.442  0.00  0.00    +0.000 NA
ATOM     11  C   UNL     1      48.525   6.340  14.732  0.00  0.00    +0.000 C 
ENDBRANCH   4  11
ENDBRANCH   1   7
BRANCH   1  12
ATOM     12  C   UNL     1      44.900   3.911   9.859  0.00  0.00    +0.000 A 
ATOM     13  C   UNL     1      45.481   4.616   8.790  0.00  0.00    +0.000 A 
ATOM     14  C   UNL     1      46.138   3.948   7.755  0.00  0.00    +0.000 A 
ATOM     15  C   UNL     1      46.171   2.557   7.735  0.00  0.00    +0.000 A 
ATOM     16  C   UNL     1      45.515   1.834   8.727  0.00  0.00    +0.000 A 
ATOM     17  C   UNL     1      44.887   2.507   9.778  0.00  0.00    +0.000 A 
ENDBRANCH   1  12
TORSDOF 3
ENDMDL
MODEL 4
REMARK VINA RESULT:    -5.932      1.095      1.315
REMARK INTER + INTRA:          -7.035
REMARK INTER:                  -6.978
REMARK INTRA:                  -0.057
REMARK UNBOUND:                -0.063
REMARK  Name = 
REMARK  3 active torsions:
REMARK  status: ('A' for Active; 'I' for Inactive)
REMARK    1  A    between atoms: C_2  and  C_3
REMARK    2  A    between atoms: C_6  and  C_7
REMARK    3  A    between atoms: C_7  and  C_8
REMARK                            x       y       z     vdW  Elec       q    Type
REMARK                         _______ _______ _______ _____ _____    ______ ____
ROOT
ATOM      1  C   UNL     1      45.081   5.708  11.393  0.00  0.00    +0.000 C 
ATOM      2  C   UNL     1      44.897   7.179  11.009  0.00  0.00    +0.000 C 
ATOM      3  C   UNL     1      43.755   6.448  11.627  0.00  0.00    +0.000 C 
ENDROOT
BRANCH   1   7
ATOM      4  C   UNL     1      47.435   4.780  14.824  0.00  0.00    +0.000 A 
ATOM      5  N   UNL     1      47.909   5.722  13.991  0.00  0.00    +0.000 NA
ATOM      6  C   UNL     1      47.145   5.989  12.902  0.00  0.00    +0.000 A 
ATOM      7  C   UNL     1      45.931   5.374  12.609  0.00  0.00    +0.000 A 
ATOM      8  C   UNL     1      45.575   4.414  13.546  0.00  0.00    +0.000 A 
ATOM      9  N   UNL     1      46.287   4.098  14.653  0.00  0.00    +0.000 NA
BRANCH   4  11
ATOM     10  N   UNL     1      48.792   4.251  16.986  0.00  0.00    +0.000 NA
ATOM     11  C   UNL     1      48.194   4.491  16.020  0.00  0.00    +0.000 C 
ENDBRANCH   4  11
ENDBRANCH   1   7
BRANCH   1  12
ATOM     12  C   UNL     1      45.070   4.701  10.239  0.00  0.00    +0.000 A 
ATOM     13  C   UNL     1      45.704   4.998   9.019  0.00  0.00    +0.000 A 
ATOM     14  C   UNL     1      45.930   4.007   8.064  0.00  0.00    +0.000 A 
ATOM     15  C   UNL     1      45.470   2.711   8.280  0.00  0.00    +0.000 A 
ATOM     16  C   UNL     1      44.751   2.417   9.435  0.00  0.00    +0.000 A 
ATOM     17  C   UNL     1      44.555   3.404  10.403  0.00  0.00    +0.000 A 
ENDBRANCH   1  12
TORSDOF 3
ENDMDL
MODEL 5
REMARK VINA RESULT:    -5.888      3.244      5.941
REMARK INTER + INTRA:          -6.984
REMARK INTER:                  -7.058
REMARK INTRA:                   0.075
REMARK UNBOUND:                -0.063
REMARK  Name = 
REMARK  3 active torsions:
REMARK  status: ('A' for Active; 'I' for Inactive)
REMARK    1  A    between atoms: C_2  and  C_3
REMARK    2  A    between atoms: C_6  and  C_7
REMARK    3  A    between atoms: C_7  and  C_8
REMARK                            x       y       z     vdW  Elec       q    Type
REMARK                         _______ _______ _______ _____ _____    ______ ____
ROOT
ATOM      1  C   UNL     1      44.533   4.850  10.972  0.00  0.00    +0.000 C 
ATOM      2  C   UNL     1      43.708   3.990  11.932  0.00  0.00    +0.000 C 
ATOM      3  C   UNL     1      42.999   4.914  11.003  0.00  0.00    +0.000 C 
ENDROOT
BRANCH   1   7
ATOM      4  C   UNL     1      46.354   2.987   7.597  0.00  0.00    +0.000 A 
ATOM      5  N   UNL     1      45.782   2.182   8.508  0.00  0.00    +0.000 NA
ATOM      6  C   UNL     1      45.220   2.801   9.576  0.00  0.00    +0.000 A 
ATOM      7  C   UNL     1      45.190   4.178   9.776  0.00  0.00    +0.000 A 
ATOM      8  C   UNL     1      45.832   4.881   8.766  0.00  0.00    +0.000 A 
ATOM      9  N   UNL     1      46.411   4.330   7.674  0.00  0.00    +0.000 NA
BRANCH   4  11
ATOM     10  N   UNL     1      47.404   1.886   5.480  0.00  0.00    +0.000 NA
ATOM     11  C   UNL     1      46.929   2.376   6.420  0.00  0.00    +0.000 C 
ENDBRANCH   4  11
ENDBRANCH   1   7
BRANCH   1  12
ATOM     12  C   UNL     1      45.248   6.055  11.588  0.00  0.00    +0.000 A 
ATOM     13  C   UNL     1      44.745   7.357  11.414  0.00  0.00    +0.000 A 
ATOM     14  C   UNL     1      45.225   8.425  12.173  0.00  0.00    +0.000 A 
ATOM     15  C   UNL     1      46.264   8.225  13.078  0.00  0.00    +0.000 A 
ATOM     16  C   UNL     1      46.847   6.967  13.194  0.00  0.00    +0.000 A 
ATOM     17  C   UNL     1      46.342   5.894  12.456  0.00  0.00    +0.000 A 
ENDBRANCH   1  12
TORSDOF 3
ENDMDL
MODEL 6
REMARK VINA RESULT:    -5.778      1.138      2.055
REMARK INTER + INTRA:          -6.855
REMARK INTER:                  -6.841
REMARK INTRA:                  -0.013
REMARK UNBOUND:                -0.063
REMARK  Name = 
REMARK  3 active torsions:
REMARK  status: ('A' for Active; 'I' for Inactive)
REMARK    1  A    between atoms: C_2  and  C_3
REMARK    2  A    between atoms: C_6  and  C_7
REMARK    3  A    between atoms: C_7  and  C_8
REMARK                            x       y       z     vdW  Elec       q    Type
REMARK                         _______ _______ _______ _____ _____    ______ ____
ROOT
ATOM      1  C   UNL     1      45.192   5.618  11.556  0.00  0.00    +0.000 C 
ATOM      2  C   UNL     1      44.966   7.073  11.140  0.00  0.00    +0.000 C 
ATOM      3  C   UNL     1      43.829   6.307  11.724  0.00  0.00    +0.000 C 
ENDROOT
BRANCH   1   7
ATOM      4  C   UNL     1      47.497   4.827  15.054  0.00  0.00    +0.000 A 
ATOM      5  N   UNL     1      46.419   4.054  14.842  0.00  0.00    +0.000 NA
ATOM      6  C   UNL     1      45.698   4.335  13.727  0.00  0.00    +0.000 A 
ATOM      7  C   UNL     1      46.003   5.337  12.811  0.00  0.00    +0.000 A 
ATOM      8  C   UNL     1      47.130   6.064  13.167  0.00  0.00    +0.000 A 
ATOM      9  N   UNL     1      47.896   5.838  14.261  0.00  0.00    +0.000 NA
BRANCH   4  11
ATOM     10  N   UNL     1      48.972   4.313  17.141  0.00  0.00    +0.000 NA
ATOM     11  C   UNL     1      48.320   4.538  16.207  0.00  0.00    +0.000 C 
ENDBRANCH   4  11
ENDBRANCH   1   7
BRANCH   1  12
ATOM     12  C   UNL     1      45.269   4.594  10.421  0.00  0.00    +0.000 A 
ATOM     13  C   UNL     1      44.765   3.292  10.590  0.00  0.00    +0.000 A 
ATOM     14  C   UNL     1      44.589   2.438   9.501  0.00  0.00    +0.000 A 
ATOM     15  C   UNL     1      44.974   2.845   8.227  0.00  0.00    +0.000 A 
ATOM     16  C   UNL     1      45.569   4.090   8.049  0.00  0.00    +0.000 A 
ATOM     17  C   UNL     1      45.714   4.954   9.136  0.00  0.00    +0.000 A 
ENDBRANCH   1  12
TORSDOF 3
ENDMDL
MODEL 7
REMARK VINA RESULT:    -5.292      3.218      5.989
REMARK INTER + INTRA:          -6.283
REMARK INTER:                  -6.475
REMARK INTRA:                   0.192
REMARK UNBOUND:                -0.063
REMARK  Name = 
REMARK  3 active torsions:
REMARK  status: ('A' for Active; 'I' for Inactive)
REMARK    1  A    between atoms: C_2  and  C_3
REMARK    2  A    between atoms: C_6  and  C_7
REMARK    3  A    between atoms: C_7  and  C_8
REMARK                            x       y       z     vdW  Elec       q    Type
REMARK                         _______ _______ _______ _____ _____    ______ ____
ROOT
ATOM      1  C   UNL     1      47.415   7.203  12.895  0.00  0.00    +0.000 C 
ATOM      2  C   UNL     1      48.919   6.948  12.777  0.00  0.00    +0.000 C 
ATOM      3  C   UNL     1      48.317   7.089  14.133  0.00  0.00    +0.000 C 
ENDROOT
BRANCH   1   7
ATOM      4  C   UNL     1      44.708   4.012  12.077  0.00  0.00    +0.000 A 
ATOM      5  N   UNL     1      45.121   4.155  13.347  0.00  0.00    +0.000 NA
ATOM      6  C   UNL     1      45.990   5.172  13.577  0.00  0.00    +0.000 A 
ATOM      7  C   UNL     1      46.458   6.056  12.608  0.00  0.00    +0.000 A 
ATOM      8  C   UNL     1      45.961   5.778  11.343  0.00  0.00    +0.000 A 
ATOM      9  N   UNL     1      45.092   4.783  11.043  0.00  0.00    +0.000 NA
BRANCH   4  11
ATOM     10  N   UNL     1      42.968   2.138  11.568  0.00  0.00    +0.000 NA
ATOM     11  C   UNL     1      43.749   2.968  11.792  0.00  0.00    +0.000 C 
ENDBRANCH   4  11
ENDBRANCH   1   7
BRANCH   1  12
ATOM     12  C   UNL     1      46.940   8.619  12.563  0.00  0.00    +0.000 A 
ATOM     13  C   UNL     1      47.827   9.567  12.021  0.00  0.00    +0.000 A 
ATOM     14  C   UNL     1      47.360  10.763  11.473  0.00  0.00    +0.000 A 
ATOM     15  C   UNL     1      46.002  11.065  11.513  0.00  0.00    +0.000 A 
ATOM     16  C   UNL     1      45.117  10.189  12.135  0.00  0.00    +0.000 A 
ATOM     17  C   UNL     1      45.584   8.979  12.653  0.00  0.00    +0.000 A 
ENDBRANCH   1  12
TORSDOF 3
ENDMDL
MODEL 8
REMARK VINA RESULT:    -5.275      2.093      3.647
REMARK INTER + INTRA:          -6.264
REMARK INTER:                  -6.503
REMARK INTRA:                   0.240
REMARK UNBOUND:                -0.063
REMARK  Name = 
REMARK  3 active torsions:
REMARK  status: ('A' for Active; 'I' for Inactive)
REMARK    1  A    between atoms: C_2  and  C_3
REMARK    2  A    between atoms: C_6  and  C_7
REMARK    3  A    between atoms: C_7  and  C_8
REMARK                            x       y       z     vdW  Elec       q    Type
REMARK                         _______ _______ _______ _____ _____    ______ ____
ROOT
ATOM      1  C   UNL     1      46.578   6.366  12.738  0.00  0.00    +0.000 C 
ATOM      2  C   UNL     1      47.549   7.016  11.750  0.00  0.00    +0.000 C 
ATOM      3  C   UNL     1      46.743   7.890  12.648  0.00  0.00    +0.000 C 
ENDROOT
BRANCH   1   7
ATOM      4  C   UNL     1      48.138   4.390  16.178  0.00  0.00    +0.000 A 
ATOM      5  N   UNL     1      48.602   5.623  15.916  0.00  0.00    +0.000 NA
ATOM      6  C   UNL     1      48.096   6.223  14.810  0.00  0.00    +0.000 A 
ATOM      7  C   UNL     1      47.147   5.662  13.961  0.00  0.00    +0.000 A 
ATOM      8  C   UNL     1      46.773   4.383  14.345  0.00  0.00    +0.000 A 
ATOM      9  N   UNL     1      47.235   3.725  15.435  0.00  0.00    +0.000 NA
BRANCH   4  11
ATOM     10  N   UNL     1      48.999   3.206  18.336  0.00  0.00    +0.000 NA
ATOM     11  C   UNL     1      48.617   3.727  17.371  0.00  0.00    +0.000 C 
ENDBRANCH   4  11
ENDBRANCH   1   7
BRANCH   1  12
ATOM     12  C   UNL     1      45.278   5.815  12.147  0.00  0.00    +0.000 A 
ATOM     13  C   UNL     1      45.272   5.168  10.898  0.00  0.00    +0.000 A 
ATOM     14  C   UNL     1      44.164   4.438  10.468  0.00  0.00    +0.000 A 
ATOM     15  C   UNL     1      43.014   4.391  11.249  0.00  0.00    +0.000 A 
ATOM     16  C   UNL     1      42.958   5.107  12.442  0.00  0.00    +0.000 A 
ATOM     17  C   UNL     1      44.080   5.810  12.884  0.00  0.00    +0.000 A 
ENDBRANCH   1  12
TORSDOF 3
ENDMDL
MODEL 9
REMARK VINA RESULT:    -5.064      2.994      4.912
REMARK INTER + INTRA:          -6.014
REMARK INTER:                  -6.266
REMARK INTRA:                   0.252
REMARK UNBOUND:                -0.063
REMARK  Name = 
REMARK  3 active torsions:
REMARK  status: ('A' for Active; 'I' for Inactive)
REMARK    1  A    between atoms: C_2  and  C_3
REMARK    2  A    between atoms: C_6  and  C_7
REMARK    3  A    between atoms: C_7  and  C_8
REMARK                            x       y       z     vdW  Elec       q    Type
REMARK                         _______ _______ _______ _____ _____    ______ ____
ROOT
ATOM      1  C   UNL     1      46.753   6.842  12.147  0.00  0.00    +0.000 C 
ATOM      2  C   UNL     1      45.314   7.141  11.719  0.00  0.00    +0.000 C 
ATOM      3  C   UNL     1      46.130   6.202  10.897  0.00  0.00    +0.000 C 
ENDROOT
BRANCH   1   7
ATOM      4  C   UNL     1      47.360   4.354  15.555  0.00  0.00    +0.000 A 
ATOM      5  N   UNL     1      48.151   5.433  15.434  0.00  0.00    +0.000 NA
ATOM      6  C   UNL     1      47.944   6.200  14.335  0.00  0.00    +0.000 A 
ATOM      7  C   UNL     1      46.982   5.953  13.359  0.00  0.00    +0.000 A 
ATOM      8  C   UNL     1      46.251   4.799  13.606  0.00  0.00    +0.000 A 
ATOM      9  N   UNL     1      46.404   3.989  14.680  0.00  0.00    +0.000 NA
BRANCH   4  11
ATOM     10  N   UNL     1      47.635   2.855  17.671  0.00  0.00    +0.000 NA
ATOM     11  C   UNL     1      47.516   3.529  16.732  0.00  0.00    +0.000 C 
ENDBRANCH   4  11
ENDBRANCH   1   7
BRANCH   1  12
ATOM     12  C   UNL     1      47.783   7.941  11.871  0.00  0.00    +0.000 A 
ATOM     13  C   UNL     1      47.476   9.292  12.110  0.00  0.00    +0.000 A 
ATOM     14  C   UNL     1      48.471  10.270  12.117  0.00  0.00    +0.000 A 
ATOM     15  C   UNL     1      49.787   9.926  11.821  0.00  0.00    +0.000 A 
ATOM     16  C   UNL     1      50.099   8.613  11.481  0.00  0.00    +0.000 A 
ATOM     17  C   UNL     1      49.106   7.632  11.507  0.00  0.00    +0.000 A 
ENDBRANCH   1  12
TORSDOF 3
ENDMDL
