MODEL 1
REMARK VINA RESULT:    -8.253      0.000      0.000
REMARK INTER + INTRA:         -13.934
REMARK INTER:                 -12.836
REMARK INTRA:                  -1.098
REMARK UNBOUND:                -1.098
REMARK  Name = 
REMARK  10 active torsions:
REMARK  status: ('A' for Active; 'I' for Inactive)
REMARK    1  A    between atoms: C_2  and  C_3
REMARK    2  A    between atoms: C_3  and  N_4
REMARK    3  A    between atoms: C_5  and  C_7
REMARK    4  A    between atoms: N_17  and  CA_18
REMARK    5  A    between atoms: CA_18  and  C_19
REMARK    6  A    between atoms: CA_18  and  C_21
REMARK    7  A    between atoms: C_19  and  O_20
REMARK    8  A    between atoms: C_24  and  C_25
REMARK    9  A    between atoms: C_25  and  N_26
REMARK   10  A    between atoms: C_27  and  C_29
REMARK                            x       y       z     vdW  Elec       q    Type
REMARK                         _______ _______ _______ _____ _____    ______ ____
ROOT
ATOM      1  CA  UNL     1      47.780   7.324  13.866  0.00  0.00    +0.000 C 
ENDROOT
BRANCH   1   2
ATOM      2  C   UNL     1      46.834   6.583  12.931  0.00  0.00    +0.000 A 
ATOM      3  C   UNL     1      46.518   5.239  13.194  0.00  0.00    +0.000 A 
ATOM      4  C   UNL     1      45.650   4.525  12.359  0.00  0.00    +0.000 A 
ATOM      5  C   UNL     1      45.079   5.137  11.237  0.00  0.00    +0.000 A 
ATOM      6  C   UNL     1      45.357   6.486  10.993  0.00  0.00    +0.000 A 
ATOM      7  C   UNL     1      46.220   7.200  11.831  0.00  0.00    +0.000 A 
BRANCH   5   8
ATOM      8  C   UNL     1      44.148   4.378  10.328  0.00  0.00    +0.000 C 
BRANCH   8   9
ATOM      9  N   UNL     1      44.837   3.310   9.646  0.00  0.00    +0.000 N 
ATOM     10  C   UNL     1      45.581   3.548   8.517  0.00  0.00    +0.000 C 
ATOM     11  O   UNL     1      45.677   4.667   8.013  0.00  0.00    +0.000 OA
ATOM     12  H   UNL     1      44.838   2.394  10.070  0.00  0.00    +0.000 HD
BRANCH  10  13
ATOM     13  C   UNL     1      46.245   2.401   7.967  0.00  0.00    +0.000 A 
ATOM     14  C   UNL     1      46.070   1.037   8.112  0.00  0.00    +0.000 A 
ATOM     15  C   UNL     1      47.051   0.446   7.293  0.00  0.00    +0.000 A 
ATOM     16  N   UNL     1      47.798   1.355   6.666  0.00  0.00    +0.000 NA
ATOM     17  N   UNL     1      47.290   2.525   7.082  0.00  0.00    +0.000 N 
ATOM     18  H   UNL     1      47.691   3.391   6.734  0.00  0.00    +0.000 HD
ENDBRANCH  10  13
ENDBRANCH   8   9
ENDBRANCH   5   8
ENDBRANCH   1   2
BRANCH   1  21
ATOM     19  O   UNL     1      50.181   6.740  15.232  0.00  0.00    +0.000 OA
ATOM     20  C   UNL     1      49.116   6.384  15.734  0.00  0.00    +0.000 C 
ATOM     21  N   UNL     1      47.901   6.593  15.121  0.00  0.00    +0.000 N 
ATOM     22  H   UNL     1      47.077   6.139  15.509  0.00  0.00    +0.000 HD
BRANCH  20  23
ATOM     23  C   UNL     1      49.038   5.600  17.047  0.00  0.00    +0.000 C 
BRANCH  23  24
ATOM     24  N   UNL     1      50.284   4.915  17.321  0.00  0.00    +0.000 N 
ATOM     25  C   UNL     1      50.646   4.547  18.589  0.00  0.00    +0.000 C 
ATOM     26  O   UNL     1      49.907   4.751  19.552  0.00  0.00    +0.000 OA
ATOM     27  H   UNL     1      50.931   4.797  16.547  0.00  0.00    +0.000 HD
BRANCH  25  28
ATOM     28  C   UNL     1      51.923   3.837  18.732  0.00  0.00    +0.000 A 
ATOM     29  C   UNL     1      52.965   4.433  19.431  0.00  0.00    +0.000 A 
ATOM     30  S   UNL     1      54.365   3.466  19.534  0.00  0.00    +0.000 S 
ATOM     31  C   UNL     1      53.649   2.234  18.605  0.00  0.00    +0.000 A 
ATOM     32  N   UNL     1      54.340   1.105  18.292  0.00  0.00    +0.000 NA
ATOM     33  C   UNL     1      53.693   0.272  17.548  0.00  0.00    +0.000 A 
ATOM     34  N   UNL     1      52.414   0.462  17.095  0.00  0.00    +0.000 N 
ATOM     35  C   UNL     1      51.658   1.561  17.430  0.00  0.00    +0.000 A 
ATOM     36  O   UNL     1      50.483   1.659  17.085  0.00  0.00    +0.000 OA
ATOM     37  C   UNL     1      52.351   2.546  18.240  0.00  0.00    +0.000 A 
ATOM     38  H   UNL     1      51.957  -0.241  16.532  0.00  0.00    +0.000 HD
ENDBRANCH  25  28
ENDBRANCH  23  24
ENDBRANCH  20  23
ENDBRANCH   1  21
BRANCH   1  39
ATOM     39  C   UNL     1      47.393   8.812  14.104  0.00  0.00    +0.000 C 
BRANCH  39  40
ATOM     40  O   UNL     1      47.344   9.186  15.481  0.00  0.00    +0.000 OA
ATOM     41  H   UNL     1      46.927  10.069  15.545  0.00  0.00    +0.000 HD
ENDBRANCH  39  40
ENDBRANCH   1  39
TORSDOF 10
ENDMDL
MODEL 2
REMARK VINA RESULT:    -7.831      3.141      3.522
REMARK INTER + INTRA:         -13.278
REMARK INTER:                 -11.884
REMARK INTRA:                  -1.394
REMARK UNBOUND:                -1.098
REMARK  Name = 
REMARK  10 active torsions:
REMARK  status: ('A' for Active; 'I' for Inactive)
REMARK    1  A    between atoms: C_2  and  C_3
REMARK    2  A    between atoms: C_3  and  N_4
REMARK    3  A    between atoms: C_5  and  C_7
REMARK    4  A    between atoms: N_17  and  CA_18
REMARK    5  A    between atoms: CA_18  and  C_19
REMARK    6  A    between atoms: CA_18  and  C_21
REMARK    7  A    between atoms: C_19  and  O_20
REMARK    8  A    between atoms: C_24  and  C_25
REMARK    9  A    between atoms: C_25  and  N_26
REMARK   10  A    between atoms: C_27  and  C_29
REMARK                            x       y       z     vdW  Elec       q    Type
REMARK                         _______ _______ _______ _____ _____    ______ ____
ROOT
ATOM      1  CA  UNL     1      46.864   8.995  12.388  0.00  0.00    +0.000 C 
ENDROOT
BRANCH   1   2
ATOM      2  C   UNL     1      46.146   7.677  12.131  0.00  0.00    +0.000 A 
ATOM      3  C   UNL     1      46.766   6.472  12.502  0.00  0.00    +0.000 A 
ATOM      4  C   UNL     1      46.136   5.240  12.284  0.00  0.00    +0.000 A 
ATOM      5  C   UNL     1      44.871   5.184  11.686  0.00  0.00    +0.000 A 
ATOM      6  C   UNL     1      44.233   6.382  11.352  0.00  0.00    +0.000 A 
ATOM      7  C   UNL     1      44.860   7.613  11.575  0.00  0.00    +0.000 A 
BRANCH   5   8
ATOM      8  C   UNL     1      44.187   3.865  11.441  0.00  0.00    +0.000 C 
BRANCH   8   9
ATOM      9  N   UNL     1      44.956   3.032  10.550  0.00  0.00    +0.000 N 
ATOM     10  C   UNL     1      44.929   3.227   9.191  0.00  0.00    +0.000 C 
ATOM     11  O   UNL     1      44.232   4.092   8.662  0.00  0.00    +0.000 OA
ATOM     12  H   UNL     1      45.592   2.360  10.953  0.00  0.00    +0.000 HD
BRANCH  10  13
ATOM     13  C   UNL     1      45.774   2.352   8.429  0.00  0.00    +0.000 A 
ATOM     14  C   UNL     1      46.717   2.560   7.439  0.00  0.00    +0.000 A 
ATOM     15  C   UNL     1      47.196   1.278   7.106  0.00  0.00    +0.000 A 
ATOM     16  N   UNL     1      46.612   0.320   7.825  0.00  0.00    +0.000 NA
ATOM     17  N   UNL     1      45.764   0.991   8.620  0.00  0.00    +0.000 N 
ATOM     18  H   UNL     1      45.193   0.474   9.283  0.00  0.00    +0.000 HD
ENDBRANCH  10  13
ENDBRANCH   8   9
ENDBRANCH   5   8
ENDBRANCH   1   2
BRANCH   1  21
ATOM     19  O   UNL     1      49.292   8.971  13.830  0.00  0.00    +0.000 OA
ATOM     20  C   UNL     1      48.248   9.204  14.438  0.00  0.00    +0.000 C 
ATOM     21  N   UNL     1      47.016   9.199  13.823  0.00  0.00    +0.000 N 
ATOM     22  H   UNL     1      46.182   9.243  14.406  0.00  0.00    +0.000 HD
BRANCH  20  23
ATOM     23  C   UNL     1      48.202   9.439  15.950  0.00  0.00    +0.000 C 
BRANCH  23  24
ATOM     24  N   UNL     1      48.132   8.185  16.671  0.00  0.00    +0.000 N 
ATOM     25  C   UNL     1      49.193   7.699  17.387  0.00  0.00    +0.000 C 
ATOM     26  O   UNL     1      50.247   8.327  17.478  0.00  0.00    +0.000 OA
ATOM     27  H   UNL     1      47.292   7.626  16.554  0.00  0.00    +0.000 HD
BRANCH  25  28
ATOM     28  C   UNL     1      48.987   6.429  18.094  0.00  0.00    +0.000 A 
ATOM     29  C   UNL     1      49.314   6.332  19.440  0.00  0.00    +0.000 A 
ATOM     30  S   UNL     1      48.984   4.804  20.119  0.00  0.00    +0.000 S 
ATOM     31  C   UNL     1      48.438   4.197  18.626  0.00  0.00    +0.000 A 
ATOM     32  N   UNL     1      48.025   2.907  18.506  0.00  0.00    +0.000 NA
ATOM     33  C   UNL     1      47.677   2.567  17.311  0.00  0.00    +0.000 A 
ATOM     34  N   UNL     1      47.696   3.404  16.225  0.00  0.00    +0.000 N 
ATOM     35  C   UNL     1      48.052   4.729  16.310  0.00  0.00    +0.000 A 
ATOM     36  O   UNL     1      47.970   5.477  15.339  0.00  0.00    +0.000 OA
ATOM     37  C   UNL     1      48.485   5.155  17.628  0.00  0.00    +0.000 A 
ATOM     38  H   UNL     1      47.389   3.079  15.320  0.00  0.00    +0.000 HD
ENDBRANCH  25  28
ENDBRANCH  23  24
ENDBRANCH  20  23
ENDBRANCH   1  21
BRANCH   1  39
ATOM     39  C   UNL     1      46.195  10.221  11.702  0.00  0.00    +0.000 C 
BRANCH  39  40
ATOM     40  O   UNL     1      45.111  10.782  12.445  0.00  0.00    +0.000 OA
ATOM     41  H   UNL     1      44.603  10.050  12.848  0.00  0.00    +0.000 HD
ENDBRANCH  39  40
ENDBRANCH   1  39
TORSDOF 10
ENDMDL
MODEL 3
REMARK VINA RESULT:    -7.750      2.145      2.966
REMARK INTER + INTRA:         -13.152
REMARK INTER:                 -11.532
REMARK INTRA:                  -1.619
REMARK UNBOUND:                -1.098
REMARK  Name = 
REMARK  10 active torsions:
REMARK  status: ('A' for Active; 'I' for Inactive)
REMARK    1  A    between atoms: C_2  and  C_3
REMARK    2  A    between atoms: C_3  and  N_4
REMARK    3  A    between atoms: C_5  and  C_7
REMARK    4  A    between atoms: N_17  and  CA_18
REMARK    5  A    between atoms: CA_18  and  C_19
REMARK    6  A    between atoms: CA_18  and  C_21
REMARK    7  A    between atoms: C_19  and  O_20
REMARK    8  A    between atoms: C_24  and  C_25
REMARK    9  A    between atoms: C_25  and  N_26
REMARK   10  A    between atoms: C_27  and  C_29
REMARK                            x       y       z     vdW  Elec       q    Type
REMARK                         _______ _______ _______ _____ _____    ______ ____
ROOT
ATOM      1  CA  UNL     1      47.117   5.695  14.563  0.00  0.00    +0.000 C 
ENDROOT
BRANCH   1   2
ATOM      2  C   UNL     1      46.384   5.326  13.281  0.00  0.00    +0.000 A 
ATOM      3  C   UNL     1      46.386   6.227  12.203  0.00  0.00    +0.000 A 
ATOM      4  C   UNL     1      45.725   5.923  11.007  0.00  0.00    +0.000 A 
ATOM      5  C   UNL     1      45.042   4.709  10.861  0.00  0.00    +0.000 A 
ATOM      6  C   UNL     1      45.072   3.791  11.915  0.00  0.00    +0.000 A 
ATOM      7  C   UNL     1      45.737   4.093  13.108  0.00  0.00    +0.000 A 
BRANCH   5   8
ATOM      8  C   UNL     1      44.323   4.373   9.581  0.00  0.00    +0.000 C 
BRANCH   8   9
ATOM      9  N   UNL     1      45.251   4.019   8.534  0.00  0.00    +0.000 N 
ATOM     10  C   UNL     1      45.611   2.713   8.313  0.00  0.00    +0.000 C 
ATOM     11  O   UNL     1      45.192   1.786   9.005  0.00  0.00    +0.000 OA
ATOM     12  H   UNL     1      45.558   4.744   7.903  0.00  0.00    +0.000 HD
BRANCH  10  13
ATOM     13  C   UNL     1      46.509   2.503   7.213  0.00  0.00    +0.000 A 
ATOM     14  C   UNL     1      46.666   3.110   5.981  0.00  0.00    +0.000 A 
ATOM     15  C   UNL     1      47.736   2.434   5.366  0.00  0.00    +0.000 A 
ATOM     16  N   UNL     1      48.233   1.469   6.140  0.00  0.00    +0.000 NA
ATOM     17  N   UNL     1      47.482   1.533   7.250  0.00  0.00    +0.000 N 
ATOM     18  H   UNL     1      47.671   0.890   8.014  0.00  0.00    +0.000 HD
ENDBRANCH  10  13
ENDBRANCH   8   9
ENDBRANCH   5   8
ENDBRANCH   1   2
BRANCH   1  21
ATOM     19  O   UNL     1      47.822   8.426  14.685  0.00  0.00    +0.000 OA
ATOM     20  C   UNL     1      48.683   7.610  14.359  0.00  0.00    +0.000 C 
ATOM     21  N   UNL     1      48.419   6.264  14.238  0.00  0.00    +0.000 N 
ATOM     22  H   UNL     1      49.127   5.667  13.816  0.00  0.00    +0.000 HD
BRANCH  20  23
ATOM     23  C   UNL     1      50.108   8.015  13.975  0.00  0.00    +0.000 C 
BRANCH  23  24
ATOM     24  N   UNL     1      51.087   7.258  14.727  0.00  0.00    +0.000 N 
ATOM     25  C   UNL     1      51.668   7.751  15.864  0.00  0.00    +0.000 C 
ATOM     26  O   UNL     1      51.357   8.851  16.319  0.00  0.00    +0.000 OA
ATOM     27  H   UNL     1      51.400   6.377  14.330  0.00  0.00    +0.000 HD
BRANCH  25  28
ATOM     28  C   UNL     1      52.628   6.876  16.549  0.00  0.00    +0.000 A 
ATOM     29  C   UNL     1      53.955   7.270  16.665  0.00  0.00    +0.000 A 
ATOM     30  S   UNL     1      54.930   6.159  17.514  0.00  0.00    +0.000 S 
ATOM     31  C   UNL     1      53.626   5.084  17.716  0.00  0.00    +0.000 A 
ATOM     32  N   UNL     1      53.794   3.895  18.352  0.00  0.00    +0.000 NA
ATOM     33  C   UNL     1      52.735   3.159  18.399  0.00  0.00    +0.000 A 
ATOM     34  N   UNL     1      51.518   3.510  17.873  0.00  0.00    +0.000 N 
ATOM     35  C   UNL     1      51.287   4.724  17.270  0.00  0.00    +0.000 A 
ATOM     36  O   UNL     1      50.164   5.047  16.892  0.00  0.00    +0.000 OA
ATOM     37  C   UNL     1      52.456   5.577  17.162  0.00  0.00    +0.000 A 
ATOM     38  H   UNL     1      50.722   2.896  17.963  0.00  0.00    +0.000 HD
ENDBRANCH  25  28
ENDBRANCH  23  24
ENDBRANCH  20  23
ENDBRANCH   1  21
BRANCH   1  39
ATOM     39  C   UNL     1      47.243   4.521  15.577  0.00  0.00    +0.000 C 
BRANCH  39  40
ATOM     40  O   UNL     1      47.156   4.923  16.945  0.00  0.00    +0.000 OA
ATOM     41  H   UNL     1      46.984   5.885  16.972  0.00  0.00    +0.000 HD
ENDBRANCH  39  40
ENDBRANCH   1  39
TORSDOF 10
ENDMDL
MODEL 4
REMARK VINA RESULT:    -7.693      1.505      2.146
REMARK INTER + INTRA:         -13.063
REMARK INTER:                 -11.379
REMARK INTRA:                  -1.684
REMARK UNBOUND:                -1.098
REMARK  Name = 
REMARK  10 active torsions:
REMARK  status: ('A' for Active; 'I' for Inactive)
REMARK    1  A    between atoms: C_2  and  C_3
REMARK    2  A    between atoms: C_3  and  N_4
REMARK    3  A    between atoms: C_5  and  C_7
REMARK    4  A    between atoms: N_17  and  CA_18
REMARK    5  A    between atoms: CA_18  and  C_19
REMARK    6  A    between atoms: CA_18  and  C_21
REMARK    7  A    between atoms: C_19  and  O_20
REMARK    8  A    between atoms: C_24  and  C_25
REMARK    9  A    between atoms: C_25  and  N_26
REMARK   10  A    between atoms: C_27  and  C_29
REMARK                            x       y       z     vdW  Elec       q    Type
REMARK                         _______ _______ _______ _____ _____    ______ ____
ROOT
ATOM      1  CA  UNL     1      47.197   5.167  15.400  0.00  0.00    +0.000 C 
ENDROOT
BRANCH   1   2
ATOM      2  C   UNL     1      46.634   5.306  13.993  0.00  0.00    +0.000 A 
ATOM      3  C   UNL     1      47.280   6.149  13.073  0.00  0.00    +0.000 A 
ATOM      4  C   UNL     1      46.794   6.302  11.769  0.00  0.00    +0.000 A 
ATOM      5  C   UNL     1      45.646   5.616  11.353  0.00  0.00    +0.000 A 
ATOM      6  C   UNL     1      45.023   4.745  12.252  0.00  0.00    +0.000 A 
ATOM      7  C   UNL     1      45.511   4.589  13.553  0.00  0.00    +0.000 A 
BRANCH   5   8
ATOM      8  C   UNL     1      45.111   5.776   9.955  0.00  0.00    +0.000 C 
BRANCH   8   9
ATOM      9  N   UNL     1      45.827   4.944   9.019  0.00  0.00    +0.000 N 
ATOM     10  C   UNL     1      45.351   3.709   8.654  0.00  0.00    +0.000 C 
ATOM     11  O   UNL     1      44.316   3.236   9.121  0.00  0.00    +0.000 OA
ATOM     12  H   UNL     1      46.641   5.329   8.563  0.00  0.00    +0.000 HD
BRANCH  10  13
ATOM     13  C   UNL     1      46.144   3.009   7.684  0.00  0.00    +0.000 A 
ATOM     14  C   UNL     1      46.712   3.370   6.476  0.00  0.00    +0.000 A 
ATOM     15  C   UNL     1      47.374   2.216   6.016  0.00  0.00    +0.000 A 
ATOM     16  N   UNL     1      47.247   1.192   6.861  0.00  0.00    +0.000 NA
ATOM     17  N   UNL     1      46.508   1.695   7.862  0.00  0.00    +0.000 N 
ATOM     18  H   UNL     1      46.273   1.101   8.652  0.00  0.00    +0.000 HD
ENDBRANCH  10  13
ENDBRANCH   8   9
ENDBRANCH   5   8
ENDBRANCH   1   2
BRANCH   1  21
ATOM     19  O   UNL     1      48.314   6.877  17.350  0.00  0.00    +0.000 OA
ATOM     20  C   UNL     1      49.037   6.465  16.444  0.00  0.00    +0.000 C 
ATOM     21  N   UNL     1      48.568   5.659  15.431  0.00  0.00    +0.000 N 
ATOM     22  H   UNL     1      49.173   5.481  14.632  0.00  0.00    +0.000 HD
BRANCH  20  23
ATOM     23  C   UNL     1      50.505   6.874  16.302  0.00  0.00    +0.000 C 
BRANCH  23  24
ATOM     24  N   UNL     1      51.388   5.816  16.749  0.00  0.00    +0.000 N 
ATOM     25  C   UNL     1      51.663   5.613  18.075  0.00  0.00    +0.000 C 
ATOM     26  O   UNL     1      51.142   6.303  18.951  0.00  0.00    +0.000 OA
ATOM     27  H   UNL     1      51.874   5.281  16.036  0.00  0.00    +0.000 HD
BRANCH  25  28
ATOM     28  C   UNL     1      52.554   4.492  18.401  0.00  0.00    +0.000 A 
ATOM     29  C   UNL     1      53.742   4.735  19.076  0.00  0.00    +0.000 A 
ATOM     30  S   UNL     1      54.644   3.326  19.408  0.00  0.00    +0.000 S 
ATOM     31  C   UNL     1      53.503   2.343  18.615  0.00  0.00    +0.000 A 
ATOM     32  N   UNL     1      53.691   1.001  18.512  0.00  0.00    +0.000 NA
ATOM     33  C   UNL     1      52.771   0.382  17.851  0.00  0.00    +0.000 A 
ATOM     34  N   UNL     1      51.674   0.984  17.292  0.00  0.00    +0.000 N 
ATOM     35  C   UNL     1      51.414   2.328  17.418  0.00  0.00    +0.000 A 
ATOM     36  O   UNL     1      50.376   2.823  16.986  0.00  0.00    +0.000 OA
ATOM     37  C   UNL     1      52.437   3.077  18.125  0.00  0.00    +0.000 A 
ATOM     38  H   UNL     1      50.979   0.437  16.805  0.00  0.00    +0.000 HD
ENDBRANCH  25  28
ENDBRANCH  23  24
ENDBRANCH  20  23
ENDBRANCH   1  21
BRANCH   1  39
ATOM     39  C   UNL     1      47.090   3.728  15.982  0.00  0.00    +0.000 C 
BRANCH  39  40
ATOM     40  O   UNL     1      47.914   2.770  15.316  0.00  0.00    +0.000 OA
ATOM     41  H   UNL     1      48.847   3.044  15.416  0.00  0.00    +0.000 HD
ENDBRANCH  39  40
ENDBRANCH   1  39
TORSDOF 10
ENDMDL
MODEL 5
REMARK VINA RESULT:    -7.429      3.835     10.187
REMARK INTER + INTRA:         -12.653
REMARK INTER:                 -12.128
REMARK INTRA:                  -0.525
REMARK UNBOUND:                -1.098
REMARK  Name = 
REMARK  10 active torsions:
REMARK  status: ('A' for Active; 'I' for Inactive)
REMARK    1  A    between atoms: C_2  and  C_3
REMARK    2  A    between atoms: C_3  and  N_4
REMARK    3  A    between atoms: C_5  and  C_7
REMARK    4  A    between atoms: N_17  and  CA_18
REMARK    5  A    between atoms: CA_18  and  C_19
REMARK    6  A    between atoms: CA_18  and  C_21
REMARK    7  A    between atoms: C_19  and  O_20
REMARK    8  A    between atoms: C_24  and  C_25
REMARK    9  A    between atoms: C_25  and  N_26
REMARK   10  A    between atoms: C_27  and  C_29
REMARK                            x       y       z     vdW  Elec       q    Type
REMARK                         _______ _______ _______ _____ _____    ______ ____
ROOT
ATOM      1  CA  UNL     1      48.128   4.132  17.371  0.00  0.00    +0.000 C 
ENDROOT
BRANCH   1   2
ATOM      2  C   UNL     1      49.486   3.457  17.494  0.00  0.00    +0.000 A 
ATOM      3  C   UNL     1      50.546   4.149  18.105  0.00  0.00    +0.000 A 
ATOM      4  C   UNL     1      51.810   3.561  18.239  0.00  0.00    +0.000 A 
ATOM      5  C   UNL     1      52.046   2.266  17.762  0.00  0.00    +0.000 A 
ATOM      6  C   UNL     1      50.984   1.558  17.190  0.00  0.00    +0.000 A 
ATOM      7  C   UNL     1      49.721   2.144  17.061  0.00  0.00    +0.000 A 
BRANCH   5   8
ATOM      8  C   UNL     1      53.402   1.625  17.896  0.00  0.00    +0.000 C 
BRANCH   8   9
ATOM      9  N   UNL     1      53.294   0.250  18.318  0.00  0.00    +0.000 N 
ATOM     10  C   UNL     1      54.407  -0.542  18.456  0.00  0.00    +0.000 C 
ATOM     11  O   UNL     1      55.541  -0.139  18.200  0.00  0.00    +0.000 OA
ATOM     12  H   UNL     1      52.388  -0.092  18.604  0.00  0.00    +0.000 HD
BRANCH  10  13
ATOM     13  C   UNL     1      54.155  -1.876  18.923  0.00  0.00    +0.000 A 
ATOM     14  C   UNL     1      54.940  -3.008  19.046  0.00  0.00    +0.000 A 
ATOM     15  C   UNL     1      54.089  -3.995  19.578  0.00  0.00    +0.000 A 
ATOM     16  N   UNL     1      52.855  -3.538  19.785  0.00  0.00    +0.000 NA
ATOM     17  N   UNL     1      52.919  -2.257  19.389  0.00  0.00    +0.000 N 
ATOM     18  H   UNL     1      52.089  -1.675  19.456  0.00  0.00    +0.000 HD
ENDBRANCH  10  13
ENDBRANCH   8   9
ENDBRANCH   5   8
ENDBRANCH   1   2
BRANCH   1  21
ATOM     19  O   UNL     1      48.957   6.807  17.009  0.00  0.00    +0.000 OA
ATOM     20  C   UNL     1      48.530   6.186  16.037  0.00  0.00    +0.000 C 
ATOM     21  N   UNL     1      48.069   4.892  16.128  0.00  0.00    +0.000 N 
ATOM     22  H   UNL     1      47.586   4.490  15.327  0.00  0.00    +0.000 HD
BRANCH  20  23
ATOM     23  C   UNL     1      48.386   6.814  14.648  0.00  0.00    +0.000 C 
BRANCH  23  24
ATOM     24  N   UNL     1      47.135   6.430  14.027  0.00  0.00    +0.000 N 
ATOM     25  C   UNL     1      46.913   6.586  12.686  0.00  0.00    +0.000 C 
ATOM     26  O   UNL     1      47.784   7.029  11.938  0.00  0.00    +0.000 OA
ATOM     27  H   UNL     1      46.386   6.123  14.640  0.00  0.00    +0.000 HD
BRANCH  25  28
ATOM     28  C   UNL     1      45.613   6.135  12.175  0.00  0.00    +0.000 A 
ATOM     29  C   UNL     1      44.747   7.054  11.596  0.00  0.00    +0.000 A 
ATOM     30  S   UNL     1      43.296   6.365  11.024  0.00  0.00    +0.000 S 
ATOM     31  C   UNL     1      43.748   4.819  11.573  0.00  0.00    +0.000 A 
ATOM     32  N   UNL     1      42.919   3.754  11.418  0.00  0.00    +0.000 NA
ATOM     33  C   UNL     1      43.368   2.650  11.916  0.00  0.00    +0.000 A 
ATOM     34  N   UNL     1      44.577   2.516  12.549  0.00  0.00    +0.000 N 
ATOM     35  C   UNL     1      45.471   3.552  12.680  0.00  0.00    +0.000 A 
ATOM     36  O   UNL     1      46.584   3.379  13.168  0.00  0.00    +0.000 OA
ATOM     37  C   UNL     1      45.000   4.825  12.165  0.00  0.00    +0.000 A 
ATOM     38  H   UNL     1      44.878   1.617  12.898  0.00  0.00    +0.000 HD
ENDBRANCH  25  28
ENDBRANCH  23  24
ENDBRANCH  20  23
ENDBRANCH   1  21
BRANCH   1  39
ATOM     39  C   UNL     1      47.746   5.009  18.598  0.00  0.00    +0.000 C 
BRANCH  39  40
ATOM     40  O   UNL     1      46.384   5.440  18.604  0.00  0.00    +0.000 OA
ATOM     41  H   UNL     1      46.092   5.520  19.533  0.00  0.00    +0.000 HD
ENDBRANCH  39  40
ENDBRANCH   1  39
TORSDOF 10
ENDMDL
MODEL 6
REMARK VINA RESULT:    -7.367      3.880      9.343
REMARK INTER + INTRA:         -12.556
REMARK INTER:                 -11.018
REMARK INTRA:                  -1.537
REMARK UNBOUND:                -1.098
REMARK  Name = 
REMARK  10 active torsions:
REMARK  status: ('A' for Active; 'I' for Inactive)
REMARK    1  A    between atoms: C_2  and  C_3
REMARK    2  A    between atoms: C_3  and  N_4
REMARK    3  A    between atoms: C_5  and  C_7
REMARK    4  A    between atoms: N_17  and  CA_18
REMARK    5  A    between atoms: CA_18  and  C_19
REMARK    6  A    between atoms: CA_18  and  C_21
REMARK    7  A    between atoms: C_19  and  O_20
REMARK    8  A    between atoms: C_24  and  C_25
REMARK    9  A    between atoms: C_25  and  N_26
REMARK   10  A    between atoms: C_27  and  C_29
REMARK                            x       y       z     vdW  Elec       q    Type
REMARK                         _______ _______ _______ _____ _____    ______ ____
ROOT
ATOM      1  CA  UNL     1      50.574   8.589  14.755  0.00  0.00    +0.000 C 
ENDROOT
BRANCH   1   2
ATOM      2  C   UNL     1      50.287   7.359  15.604  0.00  0.00    +0.000 A 
ATOM      3  C   UNL     1      48.993   6.810  15.605  0.00  0.00    +0.000 A 
ATOM      4  C   UNL     1      48.691   5.677  16.372  0.00  0.00    +0.000 A 
ATOM      5  C   UNL     1      49.675   5.068  17.159  0.00  0.00    +0.000 A 
ATOM      6  C   UNL     1      50.974   5.585  17.130  0.00  0.00    +0.000 A 
ATOM      7  C   UNL     1      51.277   6.714  16.360  0.00  0.00    +0.000 A 
BRANCH   5   8
ATOM      8  C   UNL     1      49.360   3.853  17.992  0.00  0.00    +0.000 C 
BRANCH   8   9
ATOM      9  N   UNL     1      50.538   3.054  18.223  0.00  0.00    +0.000 N 
ATOM     10  C   UNL     1      50.875   2.021  17.384  0.00  0.00    +0.000 C 
ATOM     11  O   UNL     1      50.183   1.703  16.418  0.00  0.00    +0.000 OA
ATOM     12  H   UNL     1      51.166   3.332  18.963  0.00  0.00    +0.000 HD
BRANCH  10  13
ATOM     13  C   UNL     1      52.095   1.339  17.710  0.00  0.00    +0.000 A 
ATOM     14  C   UNL     1      53.433   1.669  17.594  0.00  0.00    +0.000 A 
ATOM     15  C   UNL     1      54.135   0.560  18.101  0.00  0.00    +0.000 A 
ATOM     16  N   UNL     1      53.317  -0.408  18.514  0.00  0.00    +0.000 NA
ATOM     17  N   UNL     1      52.093   0.086  18.275  0.00  0.00    +0.000 N 
ATOM     18  H   UNL     1      51.278  -0.471  18.515  0.00  0.00    +0.000 HD
ENDBRANCH  10  13
ENDBRANCH   8   9
ENDBRANCH   5   8
ENDBRANCH   1   2
BRANCH   1  21
ATOM     19  O   UNL     1      49.296  11.016  14.087  0.00  0.00    +0.000 OA
ATOM     20  C   UNL     1      48.972   9.994  13.483  0.00  0.00    +0.000 C 
ATOM     21  N   UNL     1      49.515   8.762  13.769  0.00  0.00    +0.000 N 
ATOM     22  H   UNL     1      49.095   7.937  13.346  0.00  0.00    +0.000 HD
BRANCH  20  23
ATOM     23  C   UNL     1      47.875   9.973  12.416  0.00  0.00    +0.000 C 
BRANCH  23  24
ATOM     24  N   UNL     1      47.002   8.830  12.586  0.00  0.00    +0.000 N 
ATOM     25  C   UNL     1      47.285   7.612  12.029  0.00  0.00    +0.000 C 
ATOM     26  O   UNL     1      48.316   7.425  11.384  0.00  0.00    +0.000 OA
ATOM     27  H   UNL     1      46.118   8.985  13.061  0.00  0.00    +0.000 HD
BRANCH  25  28
ATOM     28  C   UNL     1      46.333   6.526  12.296  0.00  0.00    +0.000 A 
ATOM     29  C   UNL     1      46.779   5.353  12.890  0.00  0.00    +0.000 A 
ATOM     30  S   UNL     1      45.545   4.208  13.162  0.00  0.00    +0.000 S 
ATOM     31  C   UNL     1      44.375   5.218  12.450  0.00  0.00    +0.000 A 
ATOM     32  N   UNL     1      43.082   4.815  12.336  0.00  0.00    +0.000 NA
ATOM     33  C   UNL     1      42.309   5.660  11.741  0.00  0.00    +0.000 A 
ATOM     34  N   UNL     1      42.713   6.877  11.255  0.00  0.00    +0.000 N 
ATOM     35  C   UNL     1      43.996   7.350  11.397  0.00  0.00    +0.000 A 
ATOM     36  O   UNL     1      44.305   8.482  11.035  0.00  0.00    +0.000 OA
ATOM     37  C   UNL     1      44.915   6.423  12.031  0.00  0.00    +0.000 A 
ATOM     38  H   UNL     1      42.051   7.502  10.818  0.00  0.00    +0.000 HD
ENDBRANCH  25  28
ENDBRANCH  23  24
ENDBRANCH  20  23
ENDBRANCH   1  21
BRANCH   1  39
ATOM     39  C   UNL     1      51.981   8.580  14.090  0.00  0.00    +0.000 C 
BRANCH  39  40
ATOM     40  O   UNL     1      52.891   9.532  14.644  0.00  0.00    +0.000 OA
ATOM     41  H   UNL     1      52.407  10.369  14.791  0.00  0.00    +0.000 HD
ENDBRANCH  39  40
ENDBRANCH   1  39
TORSDOF 10
ENDMDL
MODEL 7
REMARK VINA RESULT:    -7.303      4.495      8.210
REMARK INTER + INTRA:         -12.457
REMARK INTER:                 -10.879
REMARK INTRA:                  -1.578
REMARK UNBOUND:                -1.098
REMARK  Name = 
REMARK  10 active torsions:
REMARK  status: ('A' for Active; 'I' for Inactive)
REMARK    1  A    between atoms: C_2  and  C_3
REMARK    2  A    between atoms: C_3  and  N_4
REMARK    3  A    between atoms: C_5  and  C_7
REMARK    4  A    between atoms: N_17  and  CA_18
REMARK    5  A    between atoms: CA_18  and  C_19
REMARK    6  A    between atoms: CA_18  and  C_21
REMARK    7  A    between atoms: C_19  and  O_20
REMARK    8  A    between atoms: C_24  and  C_25
REMARK    9  A    between atoms: C_25  and  N_26
REMARK   10  A    between atoms: C_27  and  C_29
REMARK                            x       y       z     vdW  Elec       q    Type
REMARK                         _______ _______ _______ _____ _____    ______ ____
ROOT
ATOM      1  CA  UNL     1      50.290   5.540  17.725  0.00  0.00    +0.000 C 
ENDROOT
BRANCH   1   2
ATOM      2  C   UNL     1      50.838   6.419  16.610  0.00  0.00    +0.000 A 
ATOM      3  C   UNL     1      52.224   6.631  16.518  0.00  0.00    +0.000 A 
ATOM      4  C   UNL     1      52.766   7.432  15.505  0.00  0.00    +0.000 A 
ATOM      5  C   UNL     1      51.933   8.044  14.560  0.00  0.00    +0.000 A 
ATOM      6  C   UNL     1      50.557   7.803  14.622  0.00  0.00    +0.000 A 
ATOM      7  C   UNL     1      50.017   6.999  15.632  0.00  0.00    +0.000 A 
BRANCH   5   8
ATOM      8  C   UNL     1      52.504   8.911  13.470  0.00  0.00    +0.000 C 
BRANCH   8   9
ATOM      9  N   UNL     1      52.913   8.125  12.332  0.00  0.00    +0.000 N 
ATOM     10  C   UNL     1      52.131   8.039  11.207  0.00  0.00    +0.000 C 
ATOM     11  O   UNL     1      51.038   8.595  11.118  0.00  0.00    +0.000 OA
ATOM     12  H   UNL     1      53.835   7.713  12.342  0.00  0.00    +0.000 HD
BRANCH  10  13
ATOM     13  C   UNL     1      52.681   7.255  10.137  0.00  0.00    +0.000 A 
ATOM     14  C   UNL     1      52.803   7.454   8.774  0.00  0.00    +0.000 A 
ATOM     15  C   UNL     1      53.443   6.300   8.285  0.00  0.00    +0.000 A 
ATOM     16  N   UNL     1      53.716   5.426   9.254  0.00  0.00    +0.000 NA
ATOM     17  N   UNL     1      53.253   6.026  10.362  0.00  0.00    +0.000 N 
ATOM     18  H   UNL     1      53.350   5.555  11.257  0.00  0.00    +0.000 HD
ENDBRANCH  10  13
ENDBRANCH   8   9
ENDBRANCH   5   8
ENDBRANCH   1   2
BRANCH   1  21
ATOM     19  O   UNL     1      49.647   2.924  16.879  0.00  0.00    +0.000 OA
ATOM     20  C   UNL     1      48.739   3.747  16.991  0.00  0.00    +0.000 C 
ATOM     21  N   UNL     1      48.966   5.054  17.361  0.00  0.00    +0.000 N 
ATOM     22  H   UNL     1      48.200   5.720  17.284  0.00  0.00    +0.000 HD
BRANCH  20  23
ATOM     23  C   UNL     1      47.282   3.427  16.650  0.00  0.00    +0.000 C 
BRANCH  23  24
ATOM     24  N   UNL     1      46.740   4.392  15.715  0.00  0.00    +0.000 N 
ATOM     25  C   UNL     1      46.759   4.182  14.363  0.00  0.00    +0.000 C 
ATOM     26  O   UNL     1      47.208   3.142  13.881  0.00  0.00    +0.000 OA
ATOM     27  H   UNL     1      46.425   5.281  16.093  0.00  0.00    +0.000 HD
BRANCH  25  28
ATOM     28  C   UNL     1      46.157   5.225  13.523  0.00  0.00    +0.000 A 
ATOM     29  C   UNL     1      46.839   6.417  13.315  0.00  0.00    +0.000 A 
ATOM     30  S   UNL     1      46.020   7.507  12.291  0.00  0.00    +0.000 S 
ATOM     31  C   UNL     1      44.698   6.447  12.128  0.00  0.00    +0.000 A 
ATOM     32  N   UNL     1      43.614   6.794  11.386  0.00  0.00    +0.000 NA
ATOM     33  C   UNL     1      42.667   5.916  11.380  0.00  0.00    +0.000 A 
ATOM     34  N   UNL     1      42.712   4.718  12.044  0.00  0.00    +0.000 N 
ATOM     35  C   UNL     1      43.809   4.301  12.761  0.00  0.00    +0.000 A 
ATOM     36  O   UNL     1      43.855   3.183  13.268  0.00  0.00    +0.000 OA
ATOM     37  C   UNL     1      44.890   5.267  12.827  0.00  0.00    +0.000 A 
ATOM     38  H   UNL     1      41.944   4.065  11.981  0.00  0.00    +0.000 HD
ENDBRANCH  25  28
ENDBRANCH  23  24
ENDBRANCH  20  23
ENDBRANCH   1  21
BRANCH   1  39
ATOM     39  C   UNL     1      50.285   6.225  19.122  0.00  0.00    +0.000 C 
BRANCH  39  40
ATOM     40  O   UNL     1      49.964   7.616  19.086  0.00  0.00    +0.000 OA
ATOM     41  H   UNL     1      49.321   7.764  18.364  0.00  0.00    +0.000 HD
ENDBRANCH  39  40
ENDBRANCH   1  39
TORSDOF 10
ENDMDL
MODEL 8
REMARK VINA RESULT:    -7.259      4.111      6.785
REMARK INTER + INTRA:         -12.388
REMARK INTER:                 -11.507
REMARK INTRA:                  -0.880
REMARK UNBOUND:                -1.098
REMARK  Name = 
REMARK  10 active torsions:
REMARK  status: ('A' for Active; 'I' for Inactive)
REMARK    1  A    between atoms: C_2  and  C_3
REMARK    2  A    between atoms: C_3  and  N_4
REMARK    3  A    between atoms: C_5  and  C_7
REMARK    4  A    between atoms: N_17  and  CA_18
REMARK    5  A    between atoms: CA_18  and  C_19
REMARK    6  A    between atoms: CA_18  and  C_21
REMARK    7  A    between atoms: C_19  and  O_20
REMARK    8  A    between atoms: C_24  and  C_25
REMARK    9  A    between atoms: C_25  and  N_26
REMARK   10  A    between atoms: C_27  and  C_29
REMARK                            x       y       z     vdW  Elec       q    Type
REMARK                         _______ _______ _______ _____ _____    ______ ____
ROOT
ATOM      1  CA  UNL     1      47.041   4.901  15.143  0.00  0.00    +0.000 C 
ENDROOT
BRANCH   1   2
ATOM      2  C   UNL     1      46.318   4.738  13.813  0.00  0.00    +0.000 A 
ATOM      3  C   UNL     1      46.142   3.451  13.277  0.00  0.00    +0.000 A 
ATOM      4  C   UNL     1      45.480   3.262  12.058  0.00  0.00    +0.000 A 
ATOM      5  C   UNL     1      44.980   4.356  11.343  0.00  0.00    +0.000 A 
ATOM      6  C   UNL     1      45.116   5.635  11.891  0.00  0.00    +0.000 A 
ATOM      7  C   UNL     1      45.773   5.824  13.111  0.00  0.00    +0.000 A 
BRANCH   5   8
ATOM      8  C   UNL     1      44.271   4.164  10.027  0.00  0.00    +0.000 C 
BRANCH   8   9
ATOM      9  N   UNL     1      45.204   3.879   8.965  0.00  0.00    +0.000 N 
ATOM     10  C   UNL     1      45.449   2.591   8.558  0.00  0.00    +0.000 C 
ATOM     11  O   UNL     1      44.917   1.618   9.090  0.00  0.00    +0.000 OA
ATOM     12  H   UNL     1      45.604   4.656   8.459  0.00  0.00    +0.000 HD
BRANCH  10  13
ATOM     13  C   UNL     1      46.368   2.459   7.463  0.00  0.00    +0.000 A 
ATOM     14  C   UNL     1      46.649   3.236   6.354  0.00  0.00    +0.000 A 
ATOM     15  C   UNL     1      47.665   2.547   5.665  0.00  0.00    +0.000 A 
ATOM     16  N   UNL     1      48.015   1.418   6.281  0.00  0.00    +0.000 NA
ATOM     17  N   UNL     1      47.225   1.388   7.365  0.00  0.00    +0.000 N 
ATOM     18  H   UNL     1      47.305   0.612   8.016  0.00  0.00    +0.000 HD
ENDBRANCH  10  13
ENDBRANCH   8   9
ENDBRANCH   5   8
ENDBRANCH   1   2
BRANCH   1  21
ATOM     19  O   UNL     1      48.290   6.362  17.211  0.00  0.00    +0.000 OA
ATOM     20  C   UNL     1      48.716   6.483  16.063  0.00  0.00    +0.000 C 
ATOM     21  N   UNL     1      48.145   5.839  14.989  0.00  0.00    +0.000 N 
ATOM     22  H   UNL     1      48.443   6.101  14.051  0.00  0.00    +0.000 HD
BRANCH  20  23
ATOM     23  C   UNL     1      49.866   7.426  15.700  0.00  0.00    +0.000 C 
BRANCH  23  24
ATOM     24  N   UNL     1      49.457   8.388  14.697  0.00  0.00    +0.000 N 
ATOM     25  C   UNL     1      50.223   8.657  13.595  0.00  0.00    +0.000 C 
ATOM     26  O   UNL     1      51.282   8.065  13.389  0.00  0.00    +0.000 OA
ATOM     27  H   UNL     1      48.618   8.929  14.885  0.00  0.00    +0.000 HD
BRANCH  25  28
ATOM     28  C   UNL     1      49.685   9.634  12.639  0.00  0.00    +0.000 A 
ATOM     29  C   UNL     1      50.558  10.415  11.893  0.00  0.00    +0.000 A 
ATOM     30  S   UNL     1      49.776  11.473  10.808  0.00  0.00    +0.000 S 
ATOM     31  C   UNL     1      48.239  10.963  11.332  0.00  0.00    +0.000 A 
ATOM     32  N   UNL     1      47.109  11.508  10.811  0.00  0.00    +0.000 NA
ATOM     33  C   UNL     1      46.013  11.060  11.326  0.00  0.00    +0.000 A 
ATOM     34  N   UNL     1      45.947  10.108  12.310  0.00  0.00    +0.000 N 
ATOM     35  C   UNL     1      47.060   9.489  12.827  0.00  0.00    +0.000 A 
ATOM     36  O   UNL     1      46.964   8.575  13.641  0.00  0.00    +0.000 OA
ATOM     37  C   UNL     1      48.322   9.981  12.305  0.00  0.00    +0.000 A 
ATOM     38  H   UNL     1      45.054   9.786  12.655  0.00  0.00    +0.000 HD
ENDBRANCH  25  28
ENDBRANCH  23  24
ENDBRANCH  20  23
ENDBRANCH   1  21
BRANCH   1  39
ATOM     39  C   UNL     1      47.513   3.558  15.770  0.00  0.00    +0.000 C 
BRANCH  39  40
ATOM     40  O   UNL     1      48.752   3.650  16.477  0.00  0.00    +0.000 OA
ATOM     41  H   UNL     1      49.098   4.559  16.372  0.00  0.00    +0.000 HD
ENDBRANCH  39  40
ENDBRANCH   1  39
TORSDOF 10
ENDMDL
MODEL 9
REMARK VINA RESULT:    -6.890      3.863      5.542
REMARK INTER + INTRA:         -11.814
REMARK INTER:                 -10.337
REMARK INTRA:                  -1.477
REMARK UNBOUND:                -1.098
REMARK  Name = 
REMARK  10 active torsions:
REMARK  status: ('A' for Active; 'I' for Inactive)
REMARK    1  A    between atoms: C_2  and  C_3
REMARK    2  A    between atoms: C_3  and  N_4
REMARK    3  A    between atoms: C_5  and  C_7
REMARK    4  A    between atoms: N_17  and  CA_18
REMARK    5  A    between atoms: CA_18  and  C_19
REMARK    6  A    between atoms: CA_18  and  C_21
REMARK    7  A    between atoms: C_19  and  O_20
REMARK    8  A    between atoms: C_24  and  C_25
REMARK    9  A    between atoms: C_25  and  N_26
REMARK   10  A    between atoms: C_27  and  C_29
REMARK                            x       y       z     vdW  Elec       q    Type
REMARK                         _______ _______ _______ _____ _____    ______ ____
ROOT
ATOM      1  CA  UNL     1      47.032   4.639  15.156  0.00  0.00    +0.000 C 
ENDROOT
BRANCH   1   2
ATOM      2  C   UNL     1      46.261   4.614  13.844  0.00  0.00    +0.000 A 
ATOM      3  C   UNL     1      45.985   3.380  13.231  0.00  0.00    +0.000 A 
ATOM      4  C   UNL     1      45.277   3.316  12.024  0.00  0.00    +0.000 A 
ATOM      5  C   UNL     1      44.828   4.486  11.400  0.00  0.00    +0.000 A 
ATOM      6  C   UNL     1      45.064   5.713  12.027  0.00  0.00    +0.000 A 
ATOM      7  C   UNL     1      45.768   5.777  13.234  0.00  0.00    +0.000 A 
BRANCH   5   8
ATOM      8  C   UNL     1      44.070   4.430  10.100  0.00  0.00    +0.000 C 
BRANCH   8   9
ATOM      9  N   UNL     1      44.736   3.585   9.139  0.00  0.00    +0.000 N 
ATOM     10  C   UNL     1      45.742   4.070   8.341  0.00  0.00    +0.000 C 
ATOM     11  O   UNL     1      46.107   5.245   8.378  0.00  0.00    +0.000 OA
ATOM     12  H   UNL     1      44.513   2.601   9.132  0.00  0.00    +0.000 HD
BRANCH  10  13
ATOM     13  C   UNL     1      46.344   3.109   7.461  0.00  0.00    +0.000 A 
ATOM     14  C   UNL     1      46.799   3.164   6.156  0.00  0.00    +0.000 A 
ATOM     15  C   UNL     1      47.285   1.873   5.877  0.00  0.00    +0.000 A 
ATOM     16  N   UNL     1      47.158   1.050   6.918  0.00  0.00    +0.000 NA
ATOM     17  N   UNL     1      46.594   1.819   7.863  0.00  0.00    +0.000 N 
ATOM     18  H   UNL     1      46.396   1.417   8.775  0.00  0.00    +0.000 HD
ENDBRANCH  10  13
ENDBRANCH   8   9
ENDBRANCH   5   8
ENDBRANCH   1   2
BRANCH   1  21
ATOM     19  O   UNL     1      48.217   5.721  17.479  0.00  0.00    +0.000 OA
ATOM     20  C   UNL     1      48.408   6.286  16.403  0.00  0.00    +0.000 C 
ATOM     21  N   UNL     1      47.839   5.850  15.227  0.00  0.00    +0.000 N 
ATOM     22  H   UNL     1      47.907   6.446  14.405  0.00  0.00    +0.000 HD
BRANCH  20  23
ATOM     23  C   UNL     1      49.223   7.575  16.275  0.00  0.00    +0.000 C 
BRANCH  23  24
ATOM     24  N   UNL     1      50.062   7.547  15.095  0.00  0.00    +0.000 N 
ATOM     25  C   UNL     1      49.704   8.179  13.935  0.00  0.00    +0.000 C 
ATOM     26  O   UNL     1      48.664   8.831  13.854  0.00  0.00    +0.000 OA
ATOM     27  H   UNL     1      50.892   6.961  15.126  0.00  0.00    +0.000 HD
BRANCH  25  28
ATOM     28  C   UNL     1      50.653   8.097  12.817  0.00  0.00    +0.000 A 
ATOM     29  C   UNL     1      50.239   7.565  11.603  0.00  0.00    +0.000 A 
ATOM     30  S   UNL     1      51.448   7.572  10.402  0.00  0.00    +0.000 S 
ATOM     31  C   UNL     1      52.588   8.240  11.474  0.00  0.00    +0.000 A 
ATOM     32  N   UNL     1      53.865   8.479  11.075  0.00  0.00    +0.000 NA
ATOM     33  C   UNL     1      54.635   8.949  11.999  0.00  0.00    +0.000 A 
ATOM     34  N   UNL     1      54.238   9.208  13.286  0.00  0.00    +0.000 N 
ATOM     35  C   UNL     1      52.945   9.035  13.719  0.00  0.00    +0.000 A 
ATOM     36  O   UNL     1      52.600   9.364  14.851  0.00  0.00    +0.000 OA
ATOM     37  C   UNL     1      52.046   8.476  12.726  0.00  0.00    +0.000 A 
ATOM     38  H   UNL     1      54.887   9.596  13.955  0.00  0.00    +0.000 HD
ENDBRANCH  25  28
ENDBRANCH  23  24
ENDBRANCH  20  23
ENDBRANCH   1  21
BRANCH   1  39
ATOM     39  C   UNL     1      47.888   3.364  15.407  0.00  0.00    +0.000 C 
BRANCH  39  40
ATOM     40  O   UNL     1      47.823   2.875  16.748  0.00  0.00    +0.000 OA
ATOM     41  H   UNL     1      48.420   3.418  17.302  0.00  0.00    +0.000 HD
ENDBRANCH  39  40
ENDBRANCH   1  39
TORSDOF 10
ENDMDL
