MODEL 1
REMARK VINA RESULT:    -7.387      0.000      0.000
REMARK INTER + INTRA:         -10.993
REMARK INTER:                  -9.979
REMARK INTRA:                  -1.014
REMARK UNBOUND:                -1.014
REMARK  Name = 
REMARK  9 active torsions:
REMARK  status: ('A' for Active; 'I' for Inactive)
REMARK    1  A    between atoms: C_1  and  C_2
REMARK    2  A    between atoms: C_4  and  C_5
REMARK    3  A    between atoms: C_5  and  N_6
REMARK    4  A    between atoms: N_6  and  C_7
REMARK    5  A    between atoms: C_10  and  C_11
REMARK    6  A    between atoms: C_11  and  N_12
REMARK    7  A    between atoms: C_13  and  C_15
REMARK    8  A    between atoms: C_26  and  C_27
REMARK    9  A    between atoms: C_29  and  C_30
REMARK                            x       y       z     vdW  Elec       q    Type
REMARK                         _______ _______ _______ _____ _____    ______ ____
ROOT
ATOM      1  C   UNL     1      47.809   6.759  12.418  0.00  0.00    +0.000 A 
ATOM      2  N   UNL     1      47.338   5.901  13.349  0.00  0.00    +0.000 NA
ATOM      3  C   UNL     1      47.880   5.933  14.594  0.00  0.00    +0.000 A 
ATOM      4  C   UNL     1      48.923   6.762  14.982  0.00  0.00    +0.000 A 
ATOM      5  C   UNL     1      49.430   7.613  14.002  0.00  0.00    +0.000 A 
ATOM      6  C   UNL     1      48.860   7.642  12.718  0.00  0.00    +0.000 A 
ATOM      7  C   UNL     1      49.400   8.605  11.695  0.00  0.00    +0.000 C 
ENDROOT
BRANCH   1   8
ATOM      8  N   UNL     1      47.157   6.860  11.180  0.00  0.00    +0.000 N 
ATOM      9  H   UNL     1      47.573   6.254  10.487  0.00  0.00    +0.000 HD
BRANCH   8  10
ATOM     10  C   UNL     1      45.707   6.684  11.182  0.00  0.00    +0.000 C 
BRANCH  10  14
ATOM     11  C   UNL     1      45.438   3.371   7.457  0.00  0.00    +0.000 C 
ATOM     12  C   UNL     1      45.131   3.812   8.854  0.00  0.00    +0.000 A 
ATOM     13  C   UNL     1      45.607   5.008   9.334  0.00  0.00    +0.000 A 
ATOM     14  C   UNL     1      45.266   5.352  10.622  0.00  0.00    +0.000 A 
ATOM     15  N   UNL     1      44.500   4.545  11.403  0.00  0.00    +0.000 NA
ATOM     16  C   UNL     1      44.098   3.384  10.861  0.00  0.00    +0.000 A 
ATOM     17  C   UNL     1      43.281   2.457  11.710  0.00  0.00    +0.000 C 
ATOM     18  N   UNL     1      44.370   2.980   9.606  0.00  0.00    +0.000 NA
ENDBRANCH  10  14
ENDBRANCH   8  10
ENDBRANCH   1   8
BRANCH   4  19
ATOM     19  C   UNL     1      49.330   6.894  16.418  0.00  0.00    +0.000 C 
BRANCH  19  20
ATOM     20  N   UNL     1      49.846   5.728  17.122  0.00  0.00    +0.000 N 
ATOM     21  C   UNL     1      51.230   5.645  17.164  0.00  0.00    +0.000 C 
ATOM     22  O   UNL     1      51.898   6.496  16.566  0.00  0.00    +0.000 OA
ATOM     23  H   UNL     1      49.261   5.135  17.704  0.00  0.00    +0.000 HD
BRANCH  21  24
ATOM     24  C   UNL     1      51.927   4.582  17.878  0.00  0.00    +0.000 A 
ATOM     25  C   UNL     1      53.014   4.948  18.675  0.00  0.00    +0.000 A 
ATOM     26  S   UNL     1      53.862   3.648  19.361  0.00  0.00    +0.000 S 
ATOM     27  C   UNL     1      52.928   2.543  18.475  0.00  0.00    +0.000 A 
ATOM     28  N   UNL     1      53.313   1.244  18.370  0.00  0.00    +0.000 NA
ATOM     29  C   UNL     1      52.531   0.522  17.645  0.00  0.00    +0.000 A 
ATOM     30  N   UNL     1      51.342   0.957  17.110  0.00  0.00    +0.000 N 
ATOM     31  C   UNL     1      50.873   2.248  17.261  0.00  0.00    +0.000 A 
ATOM     32  O   UNL     1      49.746   2.590  16.917  0.00  0.00    +0.000 OA
ATOM     33  C   UNL     1      51.826   3.142  17.883  0.00  0.00    +0.000 A 
ATOM     34  H   UNL     1      50.726   0.296  16.659  0.00  0.00    +0.000 HD
ENDBRANCH  21  24
ENDBRANCH  19  20
ENDBRANCH   4  19
TORSDOF 6
ENDMDL
MODEL 2
REMARK VINA RESULT:    -7.249      3.756      8.744
REMARK INTER + INTRA:         -10.806
REMARK INTER:                  -9.659
REMARK INTRA:                  -1.147
REMARK UNBOUND:                -1.014
REMARK  Name = 
REMARK  9 active torsions:
REMARK  status: ('A' for Active; 'I' for Inactive)
REMARK    1  A    between atoms: C_1  and  C_2
REMARK    2  A    between atoms: C_4  and  C_5
REMARK    3  A    between atoms: C_5  and  N_6
REMARK    4  A    between atoms: N_6  and  C_7
REMARK    5  A    between atoms: C_10  and  C_11
REMARK    6  A    between atoms: C_11  and  N_12
REMARK    7  A    between atoms: C_13  and  C_15
REMARK    8  A    between atoms: C_26  and  C_27
REMARK    9  A    between atoms: C_29  and  C_30
REMARK                            x       y       z     vdW  Elec       q    Type
REMARK                         _______ _______ _______ _____ _____    ______ ____
ROOT
ATOM      1  C   UNL     1      49.745   7.891  15.369  0.00  0.00    +0.000 A 
ATOM      2  N   UNL     1      49.983   7.076  14.319  0.00  0.00    +0.000 NA
ATOM      3  C   UNL     1      49.080   7.045  13.304  0.00  0.00    +0.000 A 
ATOM      4  C   UNL     1      47.894   7.764  13.279  0.00  0.00    +0.000 A 
ATOM      5  C   UNL     1      47.637   8.569  14.387  0.00  0.00    +0.000 A 
ATOM      6  C   UNL     1      48.573   8.664  15.431  0.00  0.00    +0.000 A 
ATOM      7  C   UNL     1      48.289   9.577  16.593  0.00  0.00    +0.000 C 
ENDROOT
BRANCH   1   8
ATOM      8  N   UNL     1      50.737   8.066  16.346  0.00  0.00    +0.000 N 
ATOM      9  H   UNL     1      50.450   8.725  17.057  0.00  0.00    +0.000 HD
BRANCH   8  10
ATOM     10  C   UNL     1      51.262   6.858  16.976  0.00  0.00    +0.000 C 
BRANCH  10  14
ATOM     11  C   UNL     1      47.553   5.907  20.179  0.00  0.00    +0.000 C 
ATOM     12  C   UNL     1      48.454   5.513  19.052  0.00  0.00    +0.000 A 
ATOM     13  C   UNL     1      49.379   6.396  18.550  0.00  0.00    +0.000 A 
ATOM     14  C   UNL     1      50.184   5.953  17.526  0.00  0.00    +0.000 A 
ATOM     15  N   UNL     1      50.071   4.698  17.013  0.00  0.00    +0.000 NA
ATOM     16  C   UNL     1      49.125   3.910  17.548  0.00  0.00    +0.000 A 
ATOM     17  C   UNL     1      48.953   2.534  16.980  0.00  0.00    +0.000 C 
ATOM     18  N   UNL     1      48.310   4.257  18.562  0.00  0.00    +0.000 NA
ENDBRANCH  10  14
ENDBRANCH   8  10
ENDBRANCH   1   8
BRANCH   4  19
ATOM     19  C   UNL     1      47.049   7.844  12.044  0.00  0.00    +0.000 C 
BRANCH  19  20
ATOM     20  N   UNL     1      46.599   6.613  11.408  0.00  0.00    +0.000 N 
ATOM     21  C   UNL     1      45.423   6.092  11.928  0.00  0.00    +0.000 C 
ATOM     22  O   UNL     1      44.900   6.650  12.899  0.00  0.00    +0.000 OA
ATOM     23  H   UNL     1      46.990   6.272  10.535  0.00  0.00    +0.000 HD
BRANCH  21  24
ATOM     24  C   UNL     1      44.786   4.902  11.378  0.00  0.00    +0.000 A 
ATOM     25  C   UNL     1      43.912   4.197  12.210  0.00  0.00    +0.000 A 
ATOM     26  S   UNL     1      43.320   2.749  11.554  0.00  0.00    +0.000 S 
ATOM     27  C   UNL     1      44.347   2.909  10.214  0.00  0.00    +0.000 A 
ATOM     28  N   UNL     1      44.561   1.859   9.380  0.00  0.00    +0.000 NA
ATOM     29  C   UNL     1      45.386   2.108   8.421  0.00  0.00    +0.000 A 
ATOM     30  N   UNL     1      45.926   3.345   8.161  0.00  0.00    +0.000 N 
ATOM     31  C   UNL     1      45.670   4.460   8.937  0.00  0.00    +0.000 A 
ATOM     32  O   UNL     1      46.027   5.589   8.615  0.00  0.00    +0.000 OA
ATOM     33  C   UNL     1      44.925   4.169  10.142  0.00  0.00    +0.000 A 
ATOM     34  H   UNL     1      46.464   3.487   7.319  0.00  0.00    +0.000 HD
ENDBRANCH  21  24
ENDBRANCH  19  20
ENDBRANCH   4  19
TORSDOF 6
ENDMDL
MODEL 3
REMARK VINA RESULT:    -7.132      3.467      8.320
REMARK INTER + INTRA:         -10.647
REMARK INTER:                  -9.203
REMARK INTRA:                  -1.445
REMARK UNBOUND:                -1.014
REMARK  Name = 
REMARK  9 active torsions:
REMARK  status: ('A' for Active; 'I' for Inactive)
REMARK    1  A    between atoms: C_1  and  C_2
REMARK    2  A    between atoms: C_4  and  C_5
REMARK    3  A    between atoms: C_5  and  N_6
REMARK    4  A    between atoms: N_6  and  C_7
REMARK    5  A    between atoms: C_10  and  C_11
REMARK    6  A    between atoms: C_11  and  N_12
REMARK    7  A    between atoms: C_13  and  C_15
REMARK    8  A    between atoms: C_26  and  C_27
REMARK    9  A    between atoms: C_29  and  C_30
REMARK                            x       y       z     vdW  Elec       q    Type
REMARK                         _______ _______ _______ _____ _____    ______ ____
ROOT
ATOM      1  C   UNL     1      49.602   8.332  16.319  0.00  0.00    +0.000 A 
ATOM      2  N   UNL     1      48.350   8.794  16.107  0.00  0.00    +0.000 NA
ATOM      3  C   UNL     1      47.897   8.874  14.828  0.00  0.00    +0.000 A 
ATOM      4  C   UNL     1      48.642   8.553  13.703  0.00  0.00    +0.000 A 
ATOM      5  C   UNL     1      49.946   8.119  13.932  0.00  0.00    +0.000 A 
ATOM      6  C   UNL     1      50.431   7.975  15.243  0.00  0.00    +0.000 A 
ATOM      7  C   UNL     1      51.828   7.459  15.459  0.00  0.00    +0.000 C 
ENDROOT
BRANCH   1   8
ATOM      8  N   UNL     1      50.032   8.083  17.631  0.00  0.00    +0.000 N 
ATOM      9  H   UNL     1      50.084   8.933  18.176  0.00  0.00    +0.000 HD
BRANCH   8  10
ATOM     10  C   UNL     1      49.305   7.062  18.381  0.00  0.00    +0.000 C 
BRANCH  10  14
ATOM     11  C   UNL     1      47.840   2.786  16.260  0.00  0.00    +0.000 C 
ATOM     12  C   UNL     1      48.874   3.644  16.918  0.00  0.00    +0.000 A 
ATOM     13  C   UNL     1      48.586   4.937  17.283  0.00  0.00    +0.000 A 
ATOM     14  C   UNL     1      49.584   5.656  17.900  0.00  0.00    +0.000 A 
ATOM     15  N   UNL     1      50.813   5.125  18.136  0.00  0.00    +0.000 NA
ATOM     16  C   UNL     1      51.014   3.863  17.725  0.00  0.00    +0.000 A 
ATOM     17  C   UNL     1      52.370   3.261  17.939  0.00  0.00    +0.000 C 
ATOM     18  N   UNL     1      50.090   3.084  17.132  0.00  0.00    +0.000 NA
ENDBRANCH  10  14
ENDBRANCH   8  10
ENDBRANCH   1   8
BRANCH   4  19
ATOM     19  C   UNL     1      48.017   8.466  12.345  0.00  0.00    +0.000 C 
BRANCH  19  20
ATOM     20  N   UNL     1      47.681   7.158  11.798  0.00  0.00    +0.000 N 
ATOM     21  C   UNL     1      46.324   6.941  11.612  0.00  0.00    +0.000 C 
ATOM     22  O   UNL     1      45.525   7.812  11.971  0.00  0.00    +0.000 OA
ATOM     23  H   UNL     1      48.378   6.535  11.399  0.00  0.00    +0.000 HD
BRANCH  21  24
ATOM     24  C   UNL     1      45.803   5.716  11.017  0.00  0.00    +0.000 A 
ATOM     25  C   UNL     1      45.814   5.623   9.623  0.00  0.00    +0.000 A 
ATOM     26  S   UNL     1      45.065   4.234   8.998  0.00  0.00    +0.000 S 
ATOM     27  C   UNL     1      44.535   3.795  10.549  0.00  0.00    +0.000 A 
ATOM     28  N   UNL     1      43.584   2.839  10.706  0.00  0.00    +0.000 NA
ATOM     29  C   UNL     1      43.252   2.625  11.933  0.00  0.00    +0.000 A 
ATOM     30  N   UNL     1      43.867   3.203  13.018  0.00  0.00    +0.000 N 
ATOM     31  C   UNL     1      44.894   4.120  12.904  0.00  0.00    +0.000 A 
ATOM     32  O   UNL     1      45.541   4.516  13.869  0.00  0.00    +0.000 OA
ATOM     33  C   UNL     1      45.145   4.545  11.544  0.00  0.00    +0.000 A 
ATOM     34  H   UNL     1      43.633   2.890  13.949  0.00  0.00    +0.000 HD
ENDBRANCH  21  24
ENDBRANCH  19  20
ENDBRANCH   4  19
TORSDOF 6
ENDMDL
MODEL 4
REMARK VINA RESULT:    -7.129      3.629      8.455
REMARK INTER + INTRA:         -10.644
REMARK INTER:                  -9.396
REMARK INTRA:                  -1.248
REMARK UNBOUND:                -1.014
REMARK  Name = 
REMARK  9 active torsions:
REMARK  status: ('A' for Active; 'I' for Inactive)
REMARK    1  A    between atoms: C_1  and  C_2
REMARK    2  A    between atoms: C_4  and  C_5
REMARK    3  A    between atoms: C_5  and  N_6
REMARK    4  A    between atoms: N_6  and  C_7
REMARK    5  A    between atoms: C_10  and  C_11
REMARK    6  A    between atoms: C_11  and  N_12
REMARK    7  A    between atoms: C_13  and  C_15
REMARK    8  A    between atoms: C_26  and  C_27
REMARK    9  A    between atoms: C_29  and  C_30
REMARK                            x       y       z     vdW  Elec       q    Type
REMARK                         _______ _______ _______ _____ _____    ______ ____
ROOT
ATOM      1  C   UNL     1      49.737   8.651  15.859  0.00  0.00    +0.000 A 
ATOM      2  N   UNL     1      48.472   9.009  15.550  0.00  0.00    +0.000 NA
ATOM      3  C   UNL     1      48.038   8.821  14.276  0.00  0.00    +0.000 A 
ATOM      4  C   UNL     1      48.815   8.321  13.241  0.00  0.00    +0.000 A 
ATOM      5  C   UNL     1      50.131   7.995  13.561  0.00  0.00    +0.000 A 
ATOM      6  C   UNL     1      50.599   8.129  14.880  0.00  0.00    +0.000 A 
ATOM      7  C   UNL     1      52.011   7.725  15.204  0.00  0.00    +0.000 C 
ENDROOT
BRANCH   1   8
ATOM      8  N   UNL     1      50.154   8.679  17.198  0.00  0.00    +0.000 N 
ATOM      9  H   UNL     1      50.209   9.624  17.554  0.00  0.00    +0.000 HD
BRANCH   8  10
ATOM     10  C   UNL     1      49.413   7.841  18.137  0.00  0.00    +0.000 C 
BRANCH  10  14
ATOM     11  C   UNL     1      51.752   3.448  17.747  0.00  0.00    +0.000 C 
ATOM     12  C   UNL     1      50.548   4.320  17.576  0.00  0.00    +0.000 A 
ATOM     13  C   UNL     1      50.568   5.633  17.980  0.00  0.00    +0.000 A 
ATOM     14  C   UNL     1      49.429   6.375  17.772  0.00  0.00    +0.000 A 
ATOM     15  N   UNL     1      48.316   5.840  17.201  0.00  0.00    +0.000 NA
ATOM     16  C   UNL     1      48.377   4.544  16.859  0.00  0.00    +0.000 A 
ATOM     17  C   UNL     1      47.155   3.916  16.260  0.00  0.00    +0.000 C 
ATOM     18  N   UNL     1      49.456   3.752  17.009  0.00  0.00    +0.000 NA
ENDBRANCH  10  14
ENDBRANCH   8  10
ENDBRANCH   1   8
BRANCH   4  19
ATOM     19  C   UNL     1      48.216   7.946  11.920  0.00  0.00    +0.000 C 
BRANCH  19  20
ATOM     20  N   UNL     1      47.371   6.763  11.832  0.00  0.00    +0.000 N 
ATOM     21  C   UNL     1      46.014   7.029  11.726  0.00  0.00    +0.000 C 
ATOM     22  O   UNL     1      45.630   8.203  11.782  0.00  0.00    +0.000 OA
ATOM     23  H   UNL     1      47.744   5.834  11.658  0.00  0.00    +0.000 HD
BRANCH  21  24
ATOM     24  C   UNL     1      45.021   5.974  11.565  0.00  0.00    +0.000 A 
ATOM     25  C   UNL     1      44.080   5.815  12.585  0.00  0.00    +0.000 A 
ATOM     26  S   UNL     1      43.047   4.481  12.397  0.00  0.00    +0.000 S 
ATOM     27  C   UNL     1      43.933   3.958  11.047  0.00  0.00    +0.000 A 
ATOM     28  N   UNL     1      43.762   2.703  10.556  0.00  0.00    +0.000 NA
ATOM     29  C   UNL     1      44.518   2.426   9.549  0.00  0.00    +0.000 A 
ATOM     30  N   UNL     1      45.345   3.328   8.926  0.00  0.00    +0.000 N 
ATOM     31  C   UNL     1      45.488   4.637   9.344  0.00  0.00    +0.000 A 
ATOM     32  O   UNL     1      46.105   5.478   8.697  0.00  0.00    +0.000 OA
ATOM     33  C   UNL     1      44.823   4.922  10.597  0.00  0.00    +0.000 A 
ATOM     34  H   UNL     1      45.811   3.068   8.068  0.00  0.00    +0.000 HD
ENDBRANCH  21  24
ENDBRANCH  19  20
ENDBRANCH   4  19
TORSDOF 6
ENDMDL
MODEL 5
REMARK VINA RESULT:    -6.918      5.388      8.550
REMARK INTER + INTRA:         -10.358
REMARK INTER:                  -9.182
REMARK INTRA:                  -1.177
REMARK UNBOUND:                -1.014
REMARK  Name = 
REMARK  9 active torsions:
REMARK  status: ('A' for Active; 'I' for Inactive)
REMARK    1  A    between atoms: C_1  and  C_2
REMARK    2  A    between atoms: C_4  and  C_5
REMARK    3  A    between atoms: C_5  and  N_6
REMARK    4  A    between atoms: N_6  and  C_7
REMARK    5  A    between atoms: C_10  and  C_11
REMARK    6  A    between atoms: C_11  and  N_12
REMARK    7  A    between atoms: C_13  and  C_15
REMARK    8  A    between atoms: C_26  and  C_27
REMARK    9  A    between atoms: C_29  and  C_30
REMARK                            x       y       z     vdW  Elec       q    Type
REMARK                         _______ _______ _______ _____ _____    ______ ____
ROOT
ATOM      1  C   UNL     1      50.640   8.827  11.322  0.00  0.00    +0.000 A 
ATOM      2  N   UNL     1      50.419   7.628  11.903  0.00  0.00    +0.000 NA
ATOM      3  C   UNL     1      49.192   7.380  12.432  0.00  0.00    +0.000 A 
ATOM      4  C   UNL     1      48.144   8.288  12.460  0.00  0.00    +0.000 A 
ATOM      5  C   UNL     1      48.396   9.537  11.896  0.00  0.00    +0.000 A 
ATOM      6  C   UNL     1      49.636   9.811  11.295  0.00  0.00    +0.000 A 
ATOM      7  C   UNL     1      49.862  11.153  10.652  0.00  0.00    +0.000 C 
ENDROOT
BRANCH   1   8
ATOM      8  N   UNL     1      51.837   9.046  10.624  0.00  0.00    +0.000 N 
ATOM      9  H   UNL     1      52.374   9.801  11.029  0.00  0.00    +0.000 HD
BRANCH   8  10
ATOM     10  C   UNL     1      52.699   7.887  10.414  0.00  0.00    +0.000 C 
BRANCH  10  14
ATOM     11  C   UNL     1      53.429   4.443   6.874  0.00  0.00    +0.000 C 
ATOM     12  C   UNL     1      53.174   5.851   7.310  0.00  0.00    +0.000 A 
ATOM     13  C   UNL     1      53.022   6.159   8.640  0.00  0.00    +0.000 A 
ATOM     14  C   UNL     1      52.809   7.479   8.962  0.00  0.00    +0.000 A 
ATOM     15  N   UNL     1      52.737   8.449   8.012  0.00  0.00    +0.000 NA
ATOM     16  C   UNL     1      52.873   8.056   6.736  0.00  0.00    +0.000 A 
ATOM     17  C   UNL     1      52.764   9.096   5.663  0.00  0.00    +0.000 C 
ATOM     18  N   UNL     1      53.103   6.790   6.335  0.00  0.00    +0.000 NA
ENDBRANCH  10  14
ENDBRANCH   8  10
ENDBRANCH   1   8
BRANCH   4  19
ATOM     19  C   UNL     1      46.761   7.880  12.868  0.00  0.00    +0.000 C 
BRANCH  19  20
ATOM     20  N   UNL     1      45.996   6.994  12.002  0.00  0.00    +0.000 N 
ATOM     21  C   UNL     1      45.833   5.707  12.491  0.00  0.00    +0.000 C 
ATOM     22  O   UNL     1      46.386   5.397  13.552  0.00  0.00    +0.000 OA
ATOM     23  H   UNL     1      45.456   7.333  11.211  0.00  0.00    +0.000 HD
BRANCH  21  24
ATOM     24  C   UNL     1      45.043   4.700  11.793  0.00  0.00    +0.000 A 
ATOM     25  C   UNL     1      44.183   3.911  12.560  0.00  0.00    +0.000 A 
ATOM     26  S   UNL     1      43.404   2.670  11.704  0.00  0.00    +0.000 S 
ATOM     27  C   UNL     1      44.322   3.018  10.320  0.00  0.00    +0.000 A 
ATOM     28  N   UNL     1      44.364   2.141   9.284  0.00  0.00    +0.000 NA
ATOM     29  C   UNL     1      45.123   2.514   8.311  0.00  0.00    +0.000 A 
ATOM     30  N   UNL     1      45.750   3.734   8.237  0.00  0.00    +0.000 N 
ATOM     31  C   UNL     1      45.668   4.689   9.234  0.00  0.00    +0.000 A 
ATOM     32  O   UNL     1      46.099   5.829   9.099  0.00  0.00    +0.000 OA
ATOM     33  C   UNL     1      45.006   4.220  10.432  0.00  0.00    +0.000 A 
ATOM     34  H   UNL     1      46.225   4.001   7.387  0.00  0.00    +0.000 HD
ENDBRANCH  21  24
ENDBRANCH  19  20
ENDBRANCH   4  19
TORSDOF 6
ENDMDL
MODEL 6
REMARK VINA RESULT:    -6.563      2.480      3.830
REMARK INTER + INTRA:          -9.879
REMARK INTER:                  -9.071
REMARK INTRA:                  -0.808
REMARK UNBOUND:                -1.014
REMARK  Name = 
REMARK  9 active torsions:
REMARK  status: ('A' for Active; 'I' for Inactive)
REMARK    1  A    between atoms: C_1  and  C_2
REMARK    2  A    between atoms: C_4  and  C_5
REMARK    3  A    between atoms: C_5  and  N_6
REMARK    4  A    between atoms: N_6  and  C_7
REMARK    5  A    between atoms: C_10  and  C_11
REMARK    6  A    between atoms: C_11  and  N_12
REMARK    7  A    between atoms: C_13  and  C_15
REMARK    8  A    between atoms: C_26  and  C_27
REMARK    9  A    between atoms: C_29  and  C_30
REMARK                            x       y       z     vdW  Elec       q    Type
REMARK                         _______ _______ _______ _____ _____    ______ ____
ROOT
ATOM      1  C   UNL     1      47.609   4.725  16.688  0.00  0.00    +0.000 A 
ATOM      2  N   UNL     1      48.328   5.864  16.588  0.00  0.00    +0.000 NA
ATOM      3  C   UNL     1      49.342   6.071  17.469  0.00  0.00    +0.000 A 
ATOM      4  C   UNL     1      49.677   5.211  18.505  0.00  0.00    +0.000 A 
ATOM      5  C   UNL     1      48.902   4.060  18.625  0.00  0.00    +0.000 A 
ATOM      6  C   UNL     1      47.879   3.789  17.701  0.00  0.00    +0.000 A 
ATOM      7  C   UNL     1      47.089   2.514  17.830  0.00  0.00    +0.000 C 
ENDROOT
BRANCH   1   8
ATOM      8  N   UNL     1      46.671   4.411  15.694  0.00  0.00    +0.000 N 
ATOM      9  H   UNL     1      45.854   5.003  15.749  0.00  0.00    +0.000 HD
BRANCH   8  10
ATOM     10  C   UNL     1      47.158   4.371  14.317  0.00  0.00    +0.000 C 
BRANCH  10  14
ATOM     11  C   UNL     1      44.672   7.531  11.357  0.00  0.00    +0.000 C 
ATOM     12  C   UNL     1      44.911   6.166  11.922  0.00  0.00    +0.000 A 
ATOM     13  C   UNL     1      45.940   5.942  12.805  0.00  0.00    +0.000 A 
ATOM     14  C   UNL     1      46.084   4.664  13.295  0.00  0.00    +0.000 A 
ATOM     15  N   UNL     1      45.256   3.652  12.920  0.00  0.00    +0.000 NA
ATOM     16  C   UNL     1      44.293   3.956  12.035  0.00  0.00    +0.000 A 
ATOM     17  C   UNL     1      43.387   2.854  11.575  0.00  0.00    +0.000 C 
ATOM     18  N   UNL     1      44.071   5.181  11.522  0.00  0.00    +0.000 NA
ENDBRANCH  10  14
ENDBRANCH   8  10
ENDBRANCH   1   8
BRANCH   4  19
ATOM     19  C   UNL     1      50.931   5.396  19.305  0.00  0.00    +0.000 C 
BRANCH  19  20
ATOM     20  N   UNL     1      51.703   4.226  19.699  0.00  0.00    +0.000 N 
ATOM     21  C   UNL     1      52.623   3.796  18.755  0.00  0.00    +0.000 C 
ATOM     22  O   UNL     1      52.672   4.373  17.663  0.00  0.00    +0.000 OA
ATOM     23  H   UNL     1      51.717   3.874  20.653  0.00  0.00    +0.000 HD
BRANCH  21  24
ATOM     24  C   UNL     1      53.528   2.680  18.999  0.00  0.00    +0.000 A 
ATOM     25  C   UNL     1      54.545   2.868  19.938  0.00  0.00    +0.000 A 
ATOM     26  S   UNL     1      55.643   1.581  20.066  0.00  0.00    +0.000 S 
ATOM     27  C   UNL     1      54.916   0.801  18.746  0.00  0.00    +0.000 A 
ATOM     28  N   UNL     1      55.540  -0.236  18.130  0.00  0.00    +0.000 NA
ATOM     29  C   UNL     1      54.893  -0.715  17.123  0.00  0.00    +0.000 A 
ATOM     30  N   UNL     1      53.631  -0.322  16.751  0.00  0.00    +0.000 N 
ATOM     31  C   UNL     1      52.927   0.674  17.401  0.00  0.00    +0.000 A 
ATOM     32  O   UNL     1      51.747   0.916  17.166  0.00  0.00    +0.000 OA
ATOM     33  C   UNL     1      53.705   1.381  18.395  0.00  0.00    +0.000 A 
ATOM     34  H   UNL     1      53.142  -0.832  16.030  0.00  0.00    +0.000 HD
ENDBRANCH  21  24
ENDBRANCH  19  20
ENDBRANCH   4  19
TORSDOF 6
ENDMDL
MODEL 7
REMARK VINA RESULT:    -6.335      3.332      8.859
REMARK INTER + INTRA:          -9.572
REMARK INTER:                  -8.807
REMARK INTRA:                  -0.764
REMARK UNBOUND:                -1.014
REMARK  Name = 
REMARK  9 active torsions:
REMARK  status: ('A' for Active; 'I' for Inactive)
REMARK    1  A    between atoms: C_1  and  C_2
REMARK    2  A    between atoms: C_4  and  C_5
REMARK    3  A    between atoms: C_5  and  N_6
REMARK    4  A    between atoms: N_6  and  C_7
REMARK    5  A    between atoms: C_10  and  C_11
REMARK    6  A    between atoms: C_11  and  N_12
REMARK    7  A    between atoms: C_13  and  C_15
REMARK    8  A    between atoms: C_26  and  C_27
REMARK    9  A    between atoms: C_29  and  C_30
REMARK                            x       y       z     vdW  Elec       q    Type
REMARK                         _______ _______ _______ _____ _____    ______ ____
ROOT
ATOM      1  C   UNL     1      49.999   7.840  16.117  0.00  0.00    +0.000 A 
ATOM      2  N   UNL     1      49.635   6.853  15.269  0.00  0.00    +0.000 NA
ATOM      3  C   UNL     1      48.591   7.073  14.428  0.00  0.00    +0.000 A 
ATOM      4  C   UNL     1      47.831   8.233  14.397  0.00  0.00    +0.000 A 
ATOM      5  C   UNL     1      48.188   9.227  15.304  0.00  0.00    +0.000 A 
ATOM      6  C   UNL     1      49.293   9.054  16.154  0.00  0.00    +0.000 A 
ATOM      7  C   UNL     1      49.683  10.166  17.091  0.00  0.00    +0.000 C 
ENDROOT
BRANCH   1   8
ATOM      8  N   UNL     1      51.171   7.701  16.874  0.00  0.00    +0.000 N 
ATOM      9  H   UNL     1      50.969   7.482  17.840  0.00  0.00    +0.000 HD
BRANCH   8  10
ATOM     10  C   UNL     1      52.183   6.782  16.362  0.00  0.00    +0.000 C 
BRANCH  10  14
ATOM     11  C   UNL     1      54.555   3.561  19.348  0.00  0.00    +0.000 C 
ATOM     12  C   UNL     1      53.382   3.963  18.511  0.00  0.00    +0.000 A 
ATOM     13  C   UNL     1      53.350   5.188  17.889  0.00  0.00    +0.000 A 
ATOM     14  C   UNL     1      52.246   5.477  17.121  0.00  0.00    +0.000 A 
ATOM     15  N   UNL     1      51.214   4.601  16.985  0.00  0.00    +0.000 NA
ATOM     16  C   UNL     1      51.319   3.438  17.648  0.00  0.00    +0.000 A 
ATOM     17  C   UNL     1      50.182   2.466  17.547  0.00  0.00    +0.000 C 
ATOM     18  N   UNL     1      52.371   3.068  18.403  0.00  0.00    +0.000 NA
ENDBRANCH  10  14
ENDBRANCH   8  10
ENDBRANCH   1   8
BRANCH   4  19
ATOM     19  C   UNL     1      46.833   8.490  13.308  0.00  0.00    +0.000 C 
BRANCH  19  20
ATOM     20  N   UNL     1      46.044   7.381  12.790  0.00  0.00    +0.000 N 
ATOM     21  C   UNL     1      46.569   6.778  11.657  0.00  0.00    +0.000 C 
ATOM     22  O   UNL     1      47.592   7.250  11.149  0.00  0.00    +0.000 OA
ATOM     23  H   UNL     1      45.288   6.952  13.317  0.00  0.00    +0.000 HD
BRANCH  21  24
ATOM     24  C   UNL     1      45.951   5.614  11.034  0.00  0.00    +0.000 A 
ATOM     25  C   UNL     1      45.905   5.579   9.638  0.00  0.00    +0.000 A 
ATOM     26  S   UNL     1      45.048   4.267   8.987  0.00  0.00    +0.000 S 
ATOM     27  C   UNL     1      44.547   3.796  10.539  0.00  0.00    +0.000 A 
ATOM     28  N   UNL     1      43.544   2.895  10.694  0.00  0.00    +0.000 NA
ATOM     29  C   UNL     1      43.243   2.650  11.924  0.00  0.00    +0.000 A 
ATOM     30  N   UNL     1      43.932   3.142  13.006  0.00  0.00    +0.000 N 
ATOM     31  C   UNL     1      45.011   3.999  12.890  0.00  0.00    +0.000 A 
ATOM     32  O   UNL     1      45.716   4.312  13.844  0.00  0.00    +0.000 OA
ATOM     33  C   UNL     1      45.238   4.465  11.539  0.00  0.00    +0.000 A 
ATOM     34  H   UNL     1      43.713   2.805  13.932  0.00  0.00    +0.000 HD
ENDBRANCH  21  24
ENDBRANCH  19  20
ENDBRANCH   4  19
TORSDOF 6
ENDMDL
MODEL 8
REMARK VINA RESULT:    -6.139      4.204      9.227
REMARK INTER + INTRA:          -9.306
REMARK INTER:                  -8.565
REMARK INTRA:                  -0.742
REMARK UNBOUND:                -1.014
REMARK  Name = 
REMARK  9 active torsions:
REMARK  status: ('A' for Active; 'I' for Inactive)
REMARK    1  A    between atoms: C_1  and  C_2
REMARK    2  A    between atoms: C_4  and  C_5
REMARK    3  A    between atoms: C_5  and  N_6
REMARK    4  A    between atoms: N_6  and  C_7
REMARK    5  A    between atoms: C_10  and  C_11
REMARK    6  A    between atoms: C_11  and  N_12
REMARK    7  A    between atoms: C_13  and  C_15
REMARK    8  A    between atoms: C_26  and  C_27
REMARK    9  A    between atoms: C_29  and  C_30
REMARK                            x       y       z     vdW  Elec       q    Type
REMARK                         _______ _______ _______ _____ _____    ______ ____
ROOT
ATOM      1  C   UNL     1      47.581   6.337  13.902  0.00  0.00    +0.000 A 
ATOM      2  N   UNL     1      47.563   5.005  14.125  0.00  0.00    +0.000 NA
ATOM      3  C   UNL     1      46.510   4.283  13.659  0.00  0.00    +0.000 A 
ATOM      4  C   UNL     1      45.414   4.820  12.998  0.00  0.00    +0.000 A 
ATOM      5  C   UNL     1      45.422   6.200  12.812  0.00  0.00    +0.000 A 
ATOM      6  C   UNL     1      46.518   6.971  13.236  0.00  0.00    +0.000 A 
ATOM      7  C   UNL     1      46.519   8.454  12.979  0.00  0.00    +0.000 C 
ENDROOT
BRANCH   1   8
ATOM      8  N   UNL     1      48.729   7.075  14.224  0.00  0.00    +0.000 N 
ATOM      9  H   UNL     1      48.975   7.724  13.489  0.00  0.00    +0.000 HD
BRANCH   8  10
ATOM     10  C   UNL     1      48.731   7.765  15.511  0.00  0.00    +0.000 C 
BRANCH  10  14
ATOM     11  C   UNL     1      51.612   4.274  17.619  0.00  0.00    +0.000 C 
ATOM     12  C   UNL     1      50.443   5.209  17.642  0.00  0.00    +0.000 A 
ATOM     13  C   UNL     1      50.195   6.049  16.584  0.00  0.00    +0.000 A 
ATOM     14  C   UNL     1      49.091   6.865  16.671  0.00  0.00    +0.000 A 
ATOM     15  N   UNL     1      48.276   6.860  17.761  0.00  0.00    +0.000 NA
ATOM     16  C   UNL     1      48.608   6.024  18.758  0.00  0.00    +0.000 A 
ATOM     17  C   UNL     1      47.750   6.020  19.987  0.00  0.00    +0.000 C 
ATOM     18  N   UNL     1      49.657   5.180  18.746  0.00  0.00    +0.000 NA
ENDBRANCH  10  14
ENDBRANCH   8  10
ENDBRANCH   1   8
BRANCH   4  19
ATOM     19  C   UNL     1      44.395   3.948  12.331  0.00  0.00    +0.000 C 
BRANCH  19  20
ATOM     20  N   UNL     1      44.838   2.920  11.399  0.00  0.00    +0.000 N 
ATOM     21  C   UNL     1      44.870   3.320  10.072  0.00  0.00    +0.000 C 
ATOM     22  O   UNL     1      44.472   4.452   9.779  0.00  0.00    +0.000 OA
ATOM     23  H   UNL     1      45.276   2.055  11.704  0.00  0.00    +0.000 HD
BRANCH  21  24
ATOM     24  C   UNL     1      45.346   2.447   9.005  0.00  0.00    +0.000 A 
ATOM     25  C   UNL     1      44.954   1.107   9.046  0.00  0.00    +0.000 A 
ATOM     26  S   UNL     1      45.658   0.123   7.856  0.00  0.00    +0.000 S 
ATOM     27  C   UNL     1      46.654   1.403   7.356  0.00  0.00    +0.000 A 
ATOM     28  N   UNL     1      47.720   1.171   6.547  0.00  0.00    +0.000 NA
ATOM     29  C   UNL     1      48.408   2.225   6.270  0.00  0.00    +0.000 A 
ATOM     30  N   UNL     1      48.060   3.501   6.638  0.00  0.00    +0.000 N 
ATOM     31  C   UNL     1      46.939   3.791   7.393  0.00  0.00    +0.000 A 
ATOM     32  O   UNL     1      46.547   4.937   7.589  0.00  0.00    +0.000 OA
ATOM     33  C   UNL     1      46.264   2.617   7.904  0.00  0.00    +0.000 A 
ATOM     34  H   UNL     1      48.583   4.286   6.277  0.00  0.00    +0.000 HD
ENDBRANCH  21  24
ENDBRANCH  19  20
ENDBRANCH   4  19
TORSDOF 6
ENDMDL
MODEL 9
REMARK VINA RESULT:    -5.550      3.404      6.246
REMARK INTER + INTRA:          -8.511
REMARK INTER:                  -7.440
REMARK INTRA:                  -1.071
REMARK UNBOUND:                -1.014
REMARK  Name = 
REMARK  9 active torsions:
REMARK  status: ('A' for Active; 'I' for Inactive)
REMARK    1  A    between atoms: C_1  and  C_2
REMARK    2  A    between atoms: C_4  and  C_5
REMARK    3  A    between atoms: C_5  and  N_6
REMARK    4  A    between atoms: N_6  and  C_7
REMARK    5  A    between atoms: C_10  and  C_11
REMARK    6  A    between atoms: C_11  and  N_12
REMARK    7  A    between atoms: C_13  and  C_15
REMARK    8  A    between atoms: C_26  and  C_27
REMARK    9  A    between atoms: C_29  and  C_30
REMARK                            x       y       z     vdW  Elec       q    Type
REMARK                         _______ _______ _______ _____ _____    ______ ____
ROOT
ATOM      1  C   UNL     1      49.822   4.261  17.528  0.00  0.00    +0.000 A 
ATOM      2  N   UNL     1      50.913   4.868  18.044  0.00  0.00    +0.000 NA
ATOM      3  C   UNL     1      52.055   4.145  18.180  0.00  0.00    +0.000 A 
ATOM      4  C   UNL     1      52.182   2.799  17.866  0.00  0.00    +0.000 A 
ATOM      5  C   UNL     1      51.039   2.172  17.375  0.00  0.00    +0.000 A 
ATOM      6  C   UNL     1      49.855   2.901  17.173  0.00  0.00    +0.000 A 
ATOM      7  C   UNL     1      48.651   2.206  16.598  0.00  0.00    +0.000 C 
ENDROOT
BRANCH   1   8
ATOM      8  N   UNL     1      48.686   5.025  17.223  0.00  0.00    +0.000 N 
ATOM      9  H   UNL     1      48.155   5.254  18.052  0.00  0.00    +0.000 HD
BRANCH   8  10
ATOM     10  C   UNL     1      48.897   6.229  16.425  0.00  0.00    +0.000 C 
BRANCH  10  14
ATOM     11  C   UNL     1      48.522   7.890  11.732  0.00  0.00    +0.000 C 
ATOM     12  C   UNL     1      48.180   6.919  12.817  0.00  0.00    +0.000 A 
ATOM     13  C   UNL     1      48.741   7.034  14.066  0.00  0.00    +0.000 A 
ATOM     14  C   UNL     1      48.362   6.114  15.016  0.00  0.00    +0.000 A 
ATOM     15  N   UNL     1      47.478   5.118  14.740  0.00  0.00    +0.000 NA
ATOM     16  C   UNL     1      46.998   5.066  13.487  0.00  0.00    +0.000 A 
ATOM     17  C   UNL     1      46.049   3.958  13.143  0.00  0.00    +0.000 C 
ATOM     18  N   UNL     1      47.301   5.936  12.505  0.00  0.00    +0.000 NA
ENDBRANCH  10  14
ENDBRANCH   8  10
ENDBRANCH   1   8
BRANCH   4  19
ATOM     19  C   UNL     1      53.516   2.120  17.844  0.00  0.00    +0.000 C 
BRANCH  19  20
ATOM     20  N   UNL     1      53.580   0.670  17.977  0.00  0.00    +0.000 N 
ATOM     21  C   UNL     1      54.514   0.056  17.157  0.00  0.00    +0.000 C 
ATOM     22  O   UNL     1      55.152   0.747  16.356  0.00  0.00    +0.000 OA
ATOM     23  H   UNL     1      53.132   0.170  18.740  0.00  0.00    +0.000 HD
BRANCH  21  24
ATOM     24  C   UNL     1      54.764  -1.380  17.198  0.00  0.00    +0.000 A 
ATOM     25  C   UNL     1      55.112  -2.006  15.998  0.00  0.00    +0.000 A 
ATOM     26  S   UNL     1      55.248  -3.695  16.092  0.00  0.00    +0.000 S 
ATOM     27  C   UNL     1      54.668  -3.676  17.687  0.00  0.00    +0.000 A 
ATOM     28  N   UNL     1      54.263  -4.825  18.286  0.00  0.00    +0.000 NA
ATOM     29  C   UNL     1      53.817  -4.663  19.484  0.00  0.00    +0.000 A 
ATOM     30  N   UNL     1      53.846  -3.474  20.172  0.00  0.00    +0.000 N 
ATOM     31  C   UNL     1      54.325  -2.298  19.627  0.00  0.00    +0.000 A 
ATOM     32  O   UNL     1      54.492  -1.278  20.290  0.00  0.00    +0.000 OA
ATOM     33  C   UNL     1      54.631  -2.394  18.216  0.00  0.00    +0.000 A 
ATOM     34  H   UNL     1      53.594  -3.456  21.149  0.00  0.00    +0.000 HD
ENDBRANCH  21  24
ENDBRANCH  19  20
ENDBRANCH   4  19
TORSDOF 6
ENDMDL
