MODEL 1
REMARK VINA RESULT:    -8.040      0.000      0.000
REMARK INTER + INTRA:         -13.633
REMARK INTER:                 -12.506
REMARK INTRA:                  -1.127
REMARK UNBOUND:                -1.127
REMARK  Name = 
REMARK  11 active torsions:
REMARK  status: ('A' for Active; 'I' for Inactive)
REMARK    1  A    between atoms: C_1  and  C_2
REMARK    2  A    between atoms: C_2  and  N_3
REMARK    3  A    between atoms: C_2  and  C_20
REMARK    4  A    between atoms: N_3  and  C_4
REMARK    5  A    between atoms: C_4  and  C_5
REMARK    6  A    between atoms: C_8  and  C_9
REMARK    7  A    between atoms: C_9  and  C_10
REMARK    8  A    between atoms: C_9  and  C_12
REMARK    9  A    between atoms: C_10  and  O_11
REMARK   10  A    between atoms: C_12  and  N_13
REMARK   11  A    between atoms: C_20  and  C_22
REMARK                            x       y       z     vdW  Elec       q    Type
REMARK                         _______ _______ _______ _____ _____    ______ ____
ROOT
ATOM      1  N   UNL     1      48.577   5.470  15.601  0.00  0.00    +0.000 NA
ATOM      2  H   UNL     1      49.059   4.690  15.144  0.00  0.00    +0.000 HD
ENDROOT
BRANCH   1   4
ATOM      3  C   UNL     1      48.669   7.084  17.401  0.00  0.00    +0.000 C 
ATOM      4  C   UNL     1      49.390   5.905  16.754  0.00  0.00    +0.000 C 
BRANCH   4   5
ATOM      5  C   UNL     1      49.556   4.747  17.769  0.00  0.00    +0.000 C 
ATOM      6  O   UNL     1      48.570   4.229  18.295  0.00  0.00    +0.000 OA
BRANCH   5   7
ATOM      7  C   UNL     1      50.911   4.290  18.097  0.00  0.00    +0.000 A 
ATOM      8  C   UNL     1      51.843   5.082  18.745  0.00  0.00    +0.000 A 
ATOM      9  S   UNL     1      53.282   4.242  19.130  0.00  0.00    +0.000 S 
ATOM     10  C   UNL     1      52.701   2.804  18.427  0.00  0.00    +0.000 A 
ATOM     11  N   UNL     1      53.431   1.659  18.460  0.00  0.00    +0.000 NA
ATOM     12  C   UNL     1      52.854   0.645  17.902  0.00  0.00    +0.000 A 
ATOM     13  N   UNL     1      51.630   0.684  17.280  0.00  0.00    +0.000 N 
ATOM     14  C   UNL     1      50.924   1.857  17.099  0.00  0.00    +0.000 A 
ATOM     15  O   UNL     1      50.001   1.927  16.296  0.00  0.00    +0.000 OA
ATOM     16  C   UNL     1      51.461   2.983  17.844  0.00  0.00    +0.000 A 
ATOM     17  H   UNL     1      51.286  -0.119  16.778  0.00  0.00    +0.000 HD
ENDBRANCH   5   7
ENDBRANCH   4   5
ENDBRANCH   1   4
BRANCH   1  18
ATOM     18  C   UNL     1      48.419   6.539  14.613  0.00  0.00    +0.000 C 
BRANCH  18  19
ATOM     19  C   UNL     1      47.374   6.147  13.611  0.00  0.00    +0.000 A 
ATOM     20  C   UNL     1      46.413   5.176  13.919  0.00  0.00    +0.000 A 
ATOM     21  C   UNL     1      45.478   4.777  12.966  0.00  0.00    +0.000 A 
ATOM     22  C   UNL     1      45.479   5.347  11.682  0.00  0.00    +0.000 A 
ATOM     23  C   UNL     1      46.442   6.321  11.381  0.00  0.00    +0.000 A 
ATOM     24  C   UNL     1      47.373   6.719  12.332  0.00  0.00    +0.000 A 
BRANCH  22  25
ATOM     25  C   UNL     1      44.483   4.836  10.641  0.00  0.00    +0.000 C 
BRANCH  25  26
ATOM     26  C   UNL     1      43.058   5.301  10.998  0.00  0.00    +0.000 C 
BRANCH  26  27
ATOM     27  O   UNL     1      42.964   6.713  11.165  0.00  0.00    +0.000 OA
ATOM     28  H   UNL     1      42.488   7.056  10.387  0.00  0.00    +0.000 HD
ENDBRANCH  26  27
ENDBRANCH  25  26
BRANCH  25  29
ATOM     29  C   UNL     1      44.575   3.304  10.398  0.00  0.00    +0.000 C 
BRANCH  29  30
ATOM     30  N   UNL     1      44.369   2.874   9.003  0.00  0.00    +0.000 NA
ATOM     31  C   UNL     1      45.020   1.583   8.734  0.00  0.00    +0.000 C 
ATOM     32  C   UNL     1      46.353   1.931   8.103  0.00  0.00    +0.000 C 
ATOM     33  C   UNL     1      46.029   3.156   7.274  0.00  0.00    +0.000 C 
ATOM     34  C   UNL     1      44.876   3.825   8.006  0.00  0.00    +0.000 C 
ENDBRANCH  29  30
ENDBRANCH  25  29
ENDBRANCH  22  25
ENDBRANCH  18  19
ENDBRANCH   1  18
TORSDOF 10
ENDMDL
MODEL 2
REMARK VINA RESULT:    -7.775      1.872      2.497
REMARK INTER + INTRA:         -13.221
REMARK INTER:                 -11.681
REMARK INTRA:                  -1.539
REMARK UNBOUND:                -1.127
REMARK  Name = 
REMARK  11 active torsions:
REMARK  status: ('A' for Active; 'I' for Inactive)
REMARK    1  A    between atoms: C_1  and  C_2
REMARK    2  A    between atoms: C_2  and  N_3
REMARK    3  A    between atoms: C_2  and  C_20
REMARK    4  A    between atoms: N_3  and  C_4
REMARK    5  A    between atoms: C_4  and  C_5
REMARK    6  A    between atoms: C_8  and  C_9
REMARK    7  A    between atoms: C_9  and  C_10
REMARK    8  A    between atoms: C_9  and  C_12
REMARK    9  A    between atoms: C_10  and  O_11
REMARK   10  A    between atoms: C_12  and  N_13
REMARK   11  A    between atoms: C_20  and  C_22
REMARK                            x       y       z     vdW  Elec       q    Type
REMARK                         _______ _______ _______ _____ _____    ______ ____
ROOT
ATOM      1  N   UNL     1      49.372   6.507  15.204  0.00  0.00    +0.000 NA
ATOM      2  H   UNL     1      50.315   6.170  14.986  0.00  0.00    +0.000 HD
ENDROOT
BRANCH   1   4
ATOM      3  C   UNL     1      48.691   8.637  16.125  0.00  0.00    +0.000 C 
ATOM      4  C   UNL     1      49.447   7.344  16.416  0.00  0.00    +0.000 C 
BRANCH   4   5
ATOM      5  C   UNL     1      48.816   6.608  17.624  0.00  0.00    +0.000 C 
ATOM      6  O   UNL     1      48.487   7.230  18.635  0.00  0.00    +0.000 OA
BRANCH   5   7
ATOM      7  C   UNL     1      48.629   5.155  17.541  0.00  0.00    +0.000 A 
ATOM      8  C   UNL     1      47.392   4.558  17.371  0.00  0.00    +0.000 A 
ATOM      9  S   UNL     1      47.491   2.864  17.157  0.00  0.00    +0.000 S 
ATOM     10  C   UNL     1      49.188   2.885  17.303  0.00  0.00    +0.000 A 
ATOM     11  N   UNL     1      49.920   1.750  17.163  0.00  0.00    +0.000 NA
ATOM     12  C   UNL     1      51.197   1.924  17.282  0.00  0.00    +0.000 A 
ATOM     13  N   UNL     1      51.801   3.123  17.566  0.00  0.00    +0.000 N 
ATOM     14  C   UNL     1      51.085   4.268  17.857  0.00  0.00    +0.000 A 
ATOM     15  O   UNL     1      51.616   5.233  18.394  0.00  0.00    +0.000 OA
ATOM     16  C   UNL     1      49.663   4.153  17.582  0.00  0.00    +0.000 A 
ATOM     17  H   UNL     1      52.792   3.168  17.744  0.00  0.00    +0.000 HD
ENDBRANCH   5   7
ENDBRANCH   4   5
ENDBRANCH   1   4
BRANCH   1  18
ATOM     18  C   UNL     1      48.891   7.265  14.047  0.00  0.00    +0.000 C 
BRANCH  18  19
ATOM     19  C   UNL     1      47.751   6.533  13.403  0.00  0.00    +0.000 A 
ATOM     20  C   UNL     1      47.057   7.093  12.324  0.00  0.00    +0.000 A 
ATOM     21  C   UNL     1      45.965   6.434  11.764  0.00  0.00    +0.000 A 
ATOM     22  C   UNL     1      45.545   5.192  12.270  0.00  0.00    +0.000 A 
ATOM     23  C   UNL     1      46.246   4.635  13.350  0.00  0.00    +0.000 A 
ATOM     24  C   UNL     1      47.336   5.294  13.906  0.00  0.00    +0.000 A 
BRANCH  22  25
ATOM     25  C   UNL     1      44.302   4.530  11.676  0.00  0.00    +0.000 C 
BRANCH  25  26
ATOM     26  C   UNL     1      43.175   4.480  12.725  0.00  0.00    +0.000 C 
BRANCH  26  27
ATOM     27  O   UNL     1      42.938   5.744  13.341  0.00  0.00    +0.000 OA
ATOM     28  H   UNL     1      43.589   6.364  12.966  0.00  0.00    +0.000 HD
ENDBRANCH  26  27
ENDBRANCH  25  26
BRANCH  25  29
ATOM     29  C   UNL     1      44.589   3.144  11.032  0.00  0.00    +0.000 C 
BRANCH  29  30
ATOM     30  N   UNL     1      44.214   3.021   9.612  0.00  0.00    +0.000 NA
ATOM     31  C   UNL     1      44.687   1.751   9.038  0.00  0.00    +0.000 C 
ATOM     32  C   UNL     1      45.991   2.087   8.343  0.00  0.00    +0.000 C 
ATOM     33  C   UNL     1      45.739   3.477   7.798  0.00  0.00    +0.000 C 
ATOM     34  C   UNL     1      44.739   4.097   8.762  0.00  0.00    +0.000 C 
ENDBRANCH  29  30
ENDBRANCH  25  29
ENDBRANCH  22  25
ENDBRANCH  18  19
ENDBRANCH   1  18
TORSDOF 10
ENDMDL
MODEL 3
REMARK VINA RESULT:    -6.994      1.965      2.701
REMARK INTER + INTRA:         -12.005
REMARK INTER:                 -10.431
REMARK INTRA:                  -1.574
REMARK UNBOUND:                -1.127
REMARK  Name = 
REMARK  11 active torsions:
REMARK  status: ('A' for Active; 'I' for Inactive)
REMARK    1  A    between atoms: C_1  and  C_2
REMARK    2  A    between atoms: C_2  and  N_3
REMARK    3  A    between atoms: C_2  and  C_20
REMARK    4  A    between atoms: N_3  and  C_4
REMARK    5  A    between atoms: C_4  and  C_5
REMARK    6  A    between atoms: C_8  and  C_9
REMARK    7  A    between atoms: C_9  and  C_10
REMARK    8  A    between atoms: C_9  and  C_12
REMARK    9  A    between atoms: C_10  and  O_11
REMARK   10  A    between atoms: C_12  and  N_13
REMARK   11  A    between atoms: C_20  and  C_22
REMARK                            x       y       z     vdW  Elec       q    Type
REMARK                         _______ _______ _______ _____ _____    ______ ____
ROOT
ATOM      1  N   UNL     1      50.530   6.715  15.452  0.00  0.00    +0.000 NA
ATOM      2  H   UNL     1      51.392   6.245  15.159  0.00  0.00    +0.000 HD
ENDROOT
BRANCH   1   4
ATOM      3  C   UNL     1      50.495   8.778  16.714  0.00  0.00    +0.000 C 
ATOM      4  C   UNL     1      50.743   7.275  16.800  0.00  0.00    +0.000 C 
BRANCH   4   5
ATOM      5  C   UNL     1      49.774   6.624  17.818  0.00  0.00    +0.000 C 
ATOM      6  O   UNL     1      49.440   7.226  18.840  0.00  0.00    +0.000 OA
BRANCH   5   7
ATOM      7  C   UNL     1      49.270   5.273  17.543  0.00  0.00    +0.000 A 
ATOM      8  C   UNL     1      47.952   5.007  17.215  0.00  0.00    +0.000 A 
ATOM      9  S   UNL     1      47.684   3.370  16.801  0.00  0.00    +0.000 S 
ATOM     10  C   UNL     1      49.318   2.973  17.064  0.00  0.00    +0.000 A 
ATOM     11  N   UNL     1      49.783   1.718  16.836  0.00  0.00    +0.000 NA
ATOM     12  C   UNL     1      51.049   1.572  17.063  0.00  0.00    +0.000 A 
ATOM     13  N   UNL     1      51.880   2.557  17.534  0.00  0.00    +0.000 N 
ATOM     14  C   UNL     1      51.418   3.802  17.915  0.00  0.00    +0.000 A 
ATOM     15  O   UNL     1      52.100   4.553  18.602  0.00  0.00    +0.000 OA
ATOM     16  C   UNL     1      50.040   4.056  17.530  0.00  0.00    +0.000 A 
ATOM     17  H   UNL     1      52.833   2.347  17.785  0.00  0.00    +0.000 HD
ENDBRANCH   5   7
ENDBRANCH   4   5
ENDBRANCH   1   4
BRANCH   1  18
ATOM     18  C   UNL     1      50.233   7.758  14.469  0.00  0.00    +0.000 C 
BRANCH  18  19
ATOM     19  C   UNL     1      49.102   7.315  13.589  0.00  0.00    +0.000 A 
ATOM     20  C   UNL     1      49.024   7.736  12.256  0.00  0.00    +0.000 A 
ATOM     21  C   UNL     1      47.944   7.365  11.458  0.00  0.00    +0.000 A 
ATOM     22  C   UNL     1      46.918   6.556  11.975  0.00  0.00    +0.000 A 
ATOM     23  C   UNL     1      47.004   6.136  13.311  0.00  0.00    +0.000 A 
ATOM     24  C   UNL     1      48.083   6.505  14.105  0.00  0.00    +0.000 A 
BRANCH  22  25
ATOM     25  C   UNL     1      45.715   6.225  11.093  0.00  0.00    +0.000 C 
BRANCH  25  26
ATOM     26  C   UNL     1      44.496   7.063  11.521  0.00  0.00    +0.000 C 
BRANCH  26  27
ATOM     27  O   UNL     1      43.471   6.278  12.125  0.00  0.00    +0.000 OA
ATOM     28  H   UNL     1      43.327   5.511  11.543  0.00  0.00    +0.000 HD
ENDBRANCH  26  27
ENDBRANCH  25  26
BRANCH  25  29
ATOM     29  C   UNL     1      45.405   4.704  11.016  0.00  0.00    +0.000 C 
BRANCH  29  30
ATOM     30  N   UNL     1      44.614   4.280   9.848  0.00  0.00    +0.000 NA
ATOM     31  C   UNL     1      44.246   2.858   9.931  0.00  0.00    +0.000 C 
ATOM     32  C   UNL     1      45.283   2.127   9.104  0.00  0.00    +0.000 C 
ATOM     33  C   UNL     1      45.560   3.092   7.971  0.00  0.00    +0.000 C 
ATOM     34  C   UNL     1      45.301   4.470   8.563  0.00  0.00    +0.000 C 
ENDBRANCH  29  30
ENDBRANCH  25  29
ENDBRANCH  22  25
ENDBRANCH  18  19
ENDBRANCH   1  18
TORSDOF 10
ENDMDL
MODEL 4
REMARK VINA RESULT:    -6.990      2.408      3.173
REMARK INTER + INTRA:         -11.998
REMARK INTER:                 -10.205
REMARK INTRA:                  -1.793
REMARK UNBOUND:                -1.127
REMARK  Name = 
REMARK  11 active torsions:
REMARK  status: ('A' for Active; 'I' for Inactive)
REMARK    1  A    between atoms: C_1  and  C_2
REMARK    2  A    between atoms: C_2  and  N_3
REMARK    3  A    between atoms: C_2  and  C_20
REMARK    4  A    between atoms: N_3  and  C_4
REMARK    5  A    between atoms: C_4  and  C_5
REMARK    6  A    between atoms: C_8  and  C_9
REMARK    7  A    between atoms: C_9  and  C_10
REMARK    8  A    between atoms: C_9  and  C_12
REMARK    9  A    between atoms: C_10  and  O_11
REMARK   10  A    between atoms: C_12  and  N_13
REMARK   11  A    between atoms: C_20  and  C_22
REMARK                            x       y       z     vdW  Elec       q    Type
REMARK                         _______ _______ _______ _____ _____    ______ ____
ROOT
ATOM      1  N   UNL     1      50.250   6.619  14.997  0.00  0.00    +0.000 NA
ATOM      2  H   UNL     1      50.760   5.883  14.498  0.00  0.00    +0.000 HD
ENDROOT
BRANCH   1   4
ATOM      3  C   UNL     1      50.843   8.818  15.809  0.00  0.00    +0.000 C 
ATOM      4  C   UNL     1      51.204   7.337  15.864  0.00  0.00    +0.000 C 
BRANCH   4   5
ATOM      5  C   UNL     1      51.117   6.812  17.319  0.00  0.00    +0.000 C 
ATOM      6  O   UNL     1      52.135   6.680  18.000  0.00  0.00    +0.000 OA
BRANCH   5   7
ATOM      7  C   UNL     1      49.799   6.466  17.863  0.00  0.00    +0.000 A 
ATOM      8  C   UNL     1      49.021   7.352  18.588  0.00  0.00    +0.000 A 
ATOM      9  S   UNL     1      47.474   6.729  18.965  0.00  0.00    +0.000 S 
ATOM     10  C   UNL     1      47.810   5.255  18.183  0.00  0.00    +0.000 A 
ATOM     11  N   UNL     1      46.873   4.277  18.090  0.00  0.00    +0.000 NA
ATOM     12  C   UNL     1      47.267   3.222  17.452  0.00  0.00    +0.000 A 
ATOM     13  N   UNL     1      48.526   3.044  16.935  0.00  0.00    +0.000 N 
ATOM     14  C   UNL     1      49.549   3.951  17.134  0.00  0.00    +0.000 A 
ATOM     15  O   UNL     1      50.718   3.647  16.933  0.00  0.00    +0.000 OA
ATOM     16  C   UNL     1      49.107   5.212  17.705  0.00  0.00    +0.000 A 
ATOM     17  H   UNL     1      48.796   2.158  16.539  0.00  0.00    +0.000 HD
ENDBRANCH   5   7
ENDBRANCH   4   5
ENDBRANCH   1   4
BRANCH   1  18
ATOM     18  C   UNL     1      49.650   7.504  13.997  0.00  0.00    +0.000 C 
BRANCH  18  19
ATOM     19  C   UNL     1      48.435   6.850  13.409  0.00  0.00    +0.000 A 
ATOM     20  C   UNL     1      47.913   7.277  12.182  0.00  0.00    +0.000 A 
ATOM     21  C   UNL     1      46.754   6.702  11.666  0.00  0.00    +0.000 A 
ATOM     22  C   UNL     1      46.091   5.680  12.366  0.00  0.00    +0.000 A 
ATOM     23  C   UNL     1      46.620   5.255  13.593  0.00  0.00    +0.000 A 
ATOM     24  C   UNL     1      47.778   5.828  14.105  0.00  0.00    +0.000 A 
BRANCH  22  25
ATOM     25  C   UNL     1      44.785   5.120  11.804  0.00  0.00    +0.000 C 
BRANCH  25  26
ATOM     26  C   UNL     1      43.614   5.459  12.746  0.00  0.00    +0.000 C 
BRANCH  26  27
ATOM     27  O   UNL     1      42.425   4.738  12.429  0.00  0.00    +0.000 OA
ATOM     28  H   UNL     1      41.832   4.826  13.196  0.00  0.00    +0.000 HD
ENDBRANCH  26  27
ENDBRANCH  25  26
BRANCH  25  29
ATOM     29  C   UNL     1      44.861   3.607  11.454  0.00  0.00    +0.000 C 
BRANCH  29  30
ATOM     30  N   UNL     1      44.183   3.215  10.206  0.00  0.00    +0.000 NA
ATOM     31  C   UNL     1      44.848   2.068   9.568  0.00  0.00    +0.000 C 
ATOM     32  C   UNL     1      45.761   2.668   8.518  0.00  0.00    +0.000 C 
ATOM     33  C   UNL     1      44.969   3.857   8.016  0.00  0.00    +0.000 C 
ATOM     34  C   UNL     1      44.117   4.284   9.202  0.00  0.00    +0.000 C 
ENDBRANCH  29  30
ENDBRANCH  25  29
ENDBRANCH  22  25
ENDBRANCH  18  19
ENDBRANCH   1  18
TORSDOF 10
ENDMDL
MODEL 5
REMARK VINA RESULT:    -6.837      2.855      3.292
REMARK INTER + INTRA:         -11.761
REMARK INTER:                 -10.316
REMARK INTRA:                  -1.445
REMARK UNBOUND:                -1.127
REMARK  Name = 
REMARK  11 active torsions:
REMARK  status: ('A' for Active; 'I' for Inactive)
REMARK    1  A    between atoms: C_1  and  C_2
REMARK    2  A    between atoms: C_2  and  N_3
REMARK    3  A    between atoms: C_2  and  C_20
REMARK    4  A    between atoms: N_3  and  C_4
REMARK    5  A    between atoms: C_4  and  C_5
REMARK    6  A    between atoms: C_8  and  C_9
REMARK    7  A    between atoms: C_9  and  C_10
REMARK    8  A    between atoms: C_9  and  C_12
REMARK    9  A    between atoms: C_10  and  O_11
REMARK   10  A    between atoms: C_12  and  N_13
REMARK   11  A    between atoms: C_20  and  C_22
REMARK                            x       y       z     vdW  Elec       q    Type
REMARK                         _______ _______ _______ _____ _____    ______ ____
ROOT
ATOM      1  N   UNL     1      48.073   7.696  15.464  0.00  0.00    +0.000 NA
ATOM      2  H   UNL     1      47.498   7.188  16.143  0.00  0.00    +0.000 HD
ENDROOT
BRANCH   1   4
ATOM      3  C   UNL     1      49.318   9.770  15.504  0.00  0.00    +0.000 C 
ATOM      4  C   UNL     1      49.122   8.427  16.201  0.00  0.00    +0.000 C 
BRANCH   4   5
ATOM      5  C   UNL     1      48.700   8.639  17.677  0.00  0.00    +0.000 C 
ATOM      6  O   UNL     1      47.775   9.401  17.961  0.00  0.00    +0.000 OA
BRANCH   5   7
ATOM      7  C   UNL     1      49.434   7.922  18.726  0.00  0.00    +0.000 A 
ATOM      8  C   UNL     1      50.533   8.451  19.380  0.00  0.00    +0.000 A 
ATOM      9  S   UNL     1      51.092   7.459  20.656  0.00  0.00    +0.000 S 
ATOM     10  C   UNL     1      49.890   6.292  20.357  0.00  0.00    +0.000 A 
ATOM     11  N   UNL     1      49.769   5.189  21.139  0.00  0.00    +0.000 NA
ATOM     12  C   UNL     1      48.798   4.402  20.801  0.00  0.00    +0.000 A 
ATOM     13  N   UNL     1      47.965   4.601  19.728  0.00  0.00    +0.000 N 
ATOM     14  C   UNL     1      48.146   5.631  18.826  0.00  0.00    +0.000 A 
ATOM     15  O   UNL     1      47.596   5.623  17.731  0.00  0.00    +0.000 OA
ATOM     16  C   UNL     1      49.120   6.620  19.255  0.00  0.00    +0.000 A 
ATOM     17  H   UNL     1      47.295   3.897  19.463  0.00  0.00    +0.000 HD
ENDBRANCH   5   7
ENDBRANCH   4   5
ENDBRANCH   1   4
BRANCH   1  18
ATOM     18  C   UNL     1      48.643   6.715  14.538  0.00  0.00    +0.000 C 
BRANCH  18  19
ATOM     19  C   UNL     1      47.577   6.231  13.599  0.00  0.00    +0.000 A 
ATOM     20  C   UNL     1      47.264   6.949  12.439  0.00  0.00    +0.000 A 
ATOM     21  C   UNL     1      46.237   6.524  11.598  0.00  0.00    +0.000 A 
ATOM     22  C   UNL     1      45.503   5.364  11.897  0.00  0.00    +0.000 A 
ATOM     23  C   UNL     1      45.824   4.648  13.060  0.00  0.00    +0.000 A 
ATOM     24  C   UNL     1      46.850   5.073  13.896  0.00  0.00    +0.000 A 
BRANCH  22  25
ATOM     25  C   UNL     1      44.340   4.966  10.990  0.00  0.00    +0.000 C 
BRANCH  25  26
ATOM     26  C   UNL     1      43.014   5.507  11.558  0.00  0.00    +0.000 C 
BRANCH  26  27
ATOM     27  O   UNL     1      42.721   6.829  11.111  0.00  0.00    +0.000 OA
ATOM     28  H   UNL     1      43.559   7.324  11.134  0.00  0.00    +0.000 HD
ENDBRANCH  26  27
ENDBRANCH  25  26
BRANCH  25  29
ATOM     29  C   UNL     1      44.288   3.442  10.685  0.00  0.00    +0.000 C 
BRANCH  29  30
ATOM     30  N   UNL     1      44.118   3.090   9.264  0.00  0.00    +0.000 NA
ATOM     31  C   UNL     1      44.677   1.762   8.966  0.00  0.00    +0.000 C 
ATOM     32  C   UNL     1      46.063   2.026   8.414  0.00  0.00    +0.000 C 
ATOM     33  C   UNL     1      45.879   3.307   7.627  0.00  0.00    +0.000 C 
ATOM     34  C   UNL     1      44.748   4.038   8.336  0.00  0.00    +0.000 C 
ENDBRANCH  29  30
ENDBRANCH  25  29
ENDBRANCH  22  25
ENDBRANCH  18  19
ENDBRANCH   1  18
TORSDOF 10
ENDMDL
MODEL 6
REMARK VINA RESULT:    -6.711      2.479      3.128
REMARK INTER + INTRA:         -11.565
REMARK INTER:                 -10.412
REMARK INTRA:                  -1.153
REMARK UNBOUND:                -1.127
REMARK  Name = 
REMARK  11 active torsions:
REMARK  status: ('A' for Active; 'I' for Inactive)
REMARK    1  A    between atoms: C_1  and  C_2
REMARK    2  A    between atoms: C_2  and  N_3
REMARK    3  A    between atoms: C_2  and  C_20
REMARK    4  A    between atoms: N_3  and  C_4
REMARK    5  A    between atoms: C_4  and  C_5
REMARK    6  A    between atoms: C_8  and  C_9
REMARK    7  A    between atoms: C_9  and  C_10
REMARK    8  A    between atoms: C_9  and  C_12
REMARK    9  A    between atoms: C_10  and  O_11
REMARK   10  A    between atoms: C_12  and  N_13
REMARK   11  A    between atoms: C_20  and  C_22
REMARK                            x       y       z     vdW  Elec       q    Type
REMARK                         _______ _______ _______ _____ _____    ______ ____
ROOT
ATOM      1  N   UNL     1      49.636   6.868  14.116  0.00  0.00    +0.000 NA
ATOM      2  H   UNL     1      49.490   7.146  13.140  0.00  0.00    +0.000 HD
ENDROOT
BRANCH   1   4
ATOM      3  C   UNL     1      49.327   8.922  15.356  0.00  0.00    +0.000 C 
ATOM      4  C   UNL     1      50.366   7.952  14.802  0.00  0.00    +0.000 C 
BRANCH   4   5
ATOM      5  C   UNL     1      51.237   7.379  15.947  0.00  0.00    +0.000 C 
ATOM      6  O   UNL     1      52.323   6.851  15.705  0.00  0.00    +0.000 OA
BRANCH   5   7
ATOM      7  C   UNL     1      50.736   7.470  17.324  0.00  0.00    +0.000 A 
ATOM      8  C   UNL     1      50.911   8.587  18.123  0.00  0.00    +0.000 A 
ATOM      9  S   UNL     1      50.094   8.472  19.620  0.00  0.00    +0.000 S 
ATOM     10  C   UNL     1      49.499   6.922  19.245  0.00  0.00    +0.000 A 
ATOM     11  N   UNL     1      48.670   6.261  20.094  0.00  0.00    +0.000 NA
ATOM     12  C   UNL     1      48.286   5.102  19.666  0.00  0.00    +0.000 A 
ATOM     13  N   UNL     1      48.687   4.530  18.485  0.00  0.00    +0.000 N 
ATOM     14  C   UNL     1      49.639   5.104  17.664  0.00  0.00    +0.000 A 
ATOM     15  O   UNL     1      50.199   4.457  16.788  0.00  0.00    +0.000 OA
ATOM     16  C   UNL     1      49.976   6.470  18.028  0.00  0.00    +0.000 A 
ATOM     17  H   UNL     1      48.429   3.582  18.261  0.00  0.00    +0.000 HD
ENDBRANCH   5   7
ENDBRANCH   4   5
ENDBRANCH   1   4
BRANCH   1  18
ATOM     18  C   UNL     1      48.322   6.633  14.715  0.00  0.00    +0.000 C 
BRANCH  18  19
ATOM     19  C   UNL     1      47.365   6.160  13.661  0.00  0.00    +0.000 A 
ATOM     20  C   UNL     1      46.628   4.982  13.837  0.00  0.00    +0.000 A 
ATOM     21  C   UNL     1      45.781   4.519  12.833  0.00  0.00    +0.000 A 
ATOM     22  C   UNL     1      45.646   5.229  11.628  0.00  0.00    +0.000 A 
ATOM     23  C   UNL     1      46.385   6.410  11.459  0.00  0.00    +0.000 A 
ATOM     24  C   UNL     1      47.228   6.871  12.463  0.00  0.00    +0.000 A 
BRANCH  22  25
ATOM     25  C   UNL     1      44.761   4.656  10.522  0.00  0.00    +0.000 C 
BRANCH  25  26
ATOM     26  C   UNL     1      43.278   4.938  10.830  0.00  0.00    +0.000 C 
BRANCH  26  27
ATOM     27  O   UNL     1      42.573   3.776  11.261  0.00  0.00    +0.000 OA
ATOM     28  H   UNL     1      41.632   3.933  11.069  0.00  0.00    +0.000 HD
ENDBRANCH  26  27
ENDBRANCH  25  26
BRANCH  25  29
ATOM     29  C   UNL     1      45.041   3.157  10.222  0.00  0.00    +0.000 C 
BRANCH  29  30
ATOM     30  N   UNL     1      44.769   2.731   8.838  0.00  0.00    +0.000 NA
ATOM     31  C   UNL     1      45.246   1.361   8.591  0.00  0.00    +0.000 C 
ATOM     32  C   UNL     1      46.607   1.521   7.945  0.00  0.00    +0.000 C 
ATOM     33  C   UNL     1      46.437   2.761   7.093  0.00  0.00    +0.000 C 
ATOM     34  C   UNL     1      45.387   3.589   7.819  0.00  0.00    +0.000 C 
ENDBRANCH  29  30
ENDBRANCH  25  29
ENDBRANCH  22  25
ENDBRANCH  18  19
ENDBRANCH   1  18
TORSDOF 10
ENDMDL
MODEL 7
REMARK VINA RESULT:    -6.535      5.438      6.952
REMARK INTER + INTRA:         -11.291
REMARK INTER:                 -10.086
REMARK INTRA:                  -1.206
REMARK UNBOUND:                -1.127
REMARK  Name = 
REMARK  11 active torsions:
REMARK  status: ('A' for Active; 'I' for Inactive)
REMARK    1  A    between atoms: C_1  and  C_2
REMARK    2  A    between atoms: C_2  and  N_3
REMARK    3  A    between atoms: C_2  and  C_20
REMARK    4  A    between atoms: N_3  and  C_4
REMARK    5  A    between atoms: C_4  and  C_5
REMARK    6  A    between atoms: C_8  and  C_9
REMARK    7  A    between atoms: C_9  and  C_10
REMARK    8  A    between atoms: C_9  and  C_12
REMARK    9  A    between atoms: C_10  and  O_11
REMARK   10  A    between atoms: C_12  and  N_13
REMARK   11  A    between atoms: C_20  and  C_22
REMARK                            x       y       z     vdW  Elec       q    Type
REMARK                         _______ _______ _______ _____ _____    ______ ____
ROOT
ATOM      1  N   UNL     1      50.281   7.296  12.253  0.00  0.00    +0.000 NA
ATOM      2  H   UNL     1      49.835   6.776  11.490  0.00  0.00    +0.000 HD
ENDROOT
BRANCH   1   4
ATOM      3  C   UNL     1      50.368   9.629  12.885  0.00  0.00    +0.000 C 
ATOM      4  C   UNL     1      50.633   8.639  11.755  0.00  0.00    +0.000 C 
BRANCH   4   5
ATOM      5  C   UNL     1      52.122   8.687  11.331  0.00  0.00    +0.000 C 
ATOM      6  O   UNL     1      53.016   8.474  12.152  0.00  0.00    +0.000 OA
BRANCH   5   7
ATOM      7  C   UNL     1      52.445   9.002   9.934  0.00  0.00    +0.000 A 
ATOM      8  C   UNL     1      52.210  10.240   9.362  0.00  0.00    +0.000 A 
ATOM      9  S   UNL     1      52.821  10.367   7.770  0.00  0.00    +0.000 S 
ATOM     10  C   UNL     1      53.401   8.767   7.800  0.00  0.00    +0.000 A 
ATOM     11  N   UNL     1      54.087   8.246   6.750  0.00  0.00    +0.000 NA
ATOM     12  C   UNL     1      54.479   7.025   6.925  0.00  0.00    +0.000 A 
ATOM     13  N   UNL     1      54.213   6.268   8.039  0.00  0.00    +0.000 N 
ATOM     14  C   UNL     1      53.397   6.710   9.063  0.00  0.00    +0.000 A 
ATOM     15  O   UNL     1      52.931   5.934   9.887  0.00  0.00    +0.000 OA
ATOM     16  C   UNL     1      53.069   8.124   8.978  0.00  0.00    +0.000 A 
ATOM     17  H   UNL     1      54.461   5.292   8.066  0.00  0.00    +0.000 HD
ENDBRANCH   5   7
ENDBRANCH   4   5
ENDBRANCH   1   4
BRANCH   1  18
ATOM     18  C   UNL     1      49.330   7.360  13.365  0.00  0.00    +0.000 C 
BRANCH  18  19
ATOM     19  C   UNL     1      48.040   6.707  12.963  0.00  0.00    +0.000 A 
ATOM     20  C   UNL     1      47.531   5.620  13.685  0.00  0.00    +0.000 A 
ATOM     21  C   UNL     1      46.362   4.984  13.276  0.00  0.00    +0.000 A 
ATOM     22  C   UNL     1      45.669   5.425  12.136  0.00  0.00    +0.000 A 
ATOM     23  C   UNL     1      46.183   6.515  11.419  0.00  0.00    +0.000 A 
ATOM     24  C   UNL     1      47.349   7.150  11.829  0.00  0.00    +0.000 A 
BRANCH  22  25
ATOM     25  C   UNL     1      44.428   4.660  11.678  0.00  0.00    +0.000 C 
BRANCH  25  26
ATOM     26  C   UNL     1      43.414   4.554  12.833  0.00  0.00    +0.000 C 
BRANCH  26  27
ATOM     27  O   UNL     1      42.990   5.828  13.314  0.00  0.00    +0.000 OA
ATOM     28  H   UNL     1      43.162   5.836  14.273  0.00  0.00    +0.000 HD
ENDBRANCH  26  27
ENDBRANCH  25  26
BRANCH  25  29
ATOM     29  C   UNL     1      44.753   3.284  11.032  0.00  0.00    +0.000 C 
BRANCH  29  30
ATOM     30  N   UNL     1      44.297   3.118   9.641  0.00  0.00    +0.000 NA
ATOM     31  C   UNL     1      44.650   1.792   9.111  0.00  0.00    +0.000 C 
ATOM     32  C   UNL     1      45.936   2.000   8.337  0.00  0.00    +0.000 C 
ATOM     33  C   UNL     1      45.752   3.376   7.732  0.00  0.00    +0.000 C 
ATOM     34  C   UNL     1      44.848   4.112   8.711  0.00  0.00    +0.000 C 
ENDBRANCH  29  30
ENDBRANCH  25  29
ENDBRANCH  22  25
ENDBRANCH  18  19
ENDBRANCH   1  18
TORSDOF 10
ENDMDL
MODEL 8
REMARK VINA RESULT:    -6.531      2.669      3.774
REMARK INTER + INTRA:         -11.284
REMARK INTER:                  -9.599
REMARK INTRA:                  -1.685
REMARK UNBOUND:                -1.127
REMARK  Name = 
REMARK  11 active torsions:
REMARK  status: ('A' for Active; 'I' for Inactive)
REMARK    1  A    between atoms: C_1  and  C_2
REMARK    2  A    between atoms: C_2  and  N_3
REMARK    3  A    between atoms: C_2  and  C_20
REMARK    4  A    between atoms: N_3  and  C_4
REMARK    5  A    between atoms: C_4  and  C_5
REMARK    6  A    between atoms: C_8  and  C_9
REMARK    7  A    between atoms: C_9  and  C_10
REMARK    8  A    between atoms: C_9  and  C_12
REMARK    9  A    between atoms: C_10  and  O_11
REMARK   10  A    between atoms: C_12  and  N_13
REMARK   11  A    between atoms: C_20  and  C_22
REMARK                            x       y       z     vdW  Elec       q    Type
REMARK                         _______ _______ _______ _____ _____    ______ ____
ROOT
ATOM      1  N   UNL     1      50.397   7.031  14.460  0.00  0.00    +0.000 NA
ATOM      2  H   UNL     1      50.717   6.129  14.092  0.00  0.00    +0.000 HD
ENDROOT
BRANCH   1   4
ATOM      3  C   UNL     1      51.393   9.219  14.735  0.00  0.00    +0.000 C 
ATOM      4  C   UNL     1      51.559   7.733  15.039  0.00  0.00    +0.000 C 
BRANCH   4   5
ATOM      5  C   UNL     1      51.628   7.498  16.569  0.00  0.00    +0.000 C 
ATOM      6  O   UNL     1      52.224   8.291  17.299  0.00  0.00    +0.000 OA
BRANCH   5   7
ATOM      7  C   UNL     1      50.976   6.306  17.126  0.00  0.00    +0.000 A 
ATOM      8  C   UNL     1      51.619   5.089  17.271  0.00  0.00    +0.000 A 
ATOM      9  S   UNL     1      50.667   3.924  18.084  0.00  0.00    +0.000 S 
ATOM     10  C   UNL     1      49.368   5.012  18.249  0.00  0.00    +0.000 A 
ATOM     11  N   UNL     1      48.236   4.661  18.911  0.00  0.00    +0.000 NA
ATOM     12  C   UNL     1      47.344   5.598  18.970  0.00  0.00    +0.000 A 
ATOM     13  N   UNL     1      47.470   6.837  18.394  0.00  0.00    +0.000 N 
ATOM     14  C   UNL     1      48.541   7.181  17.592  0.00  0.00    +0.000 A 
ATOM     15  O   UNL     1      48.496   8.158  16.854  0.00  0.00    +0.000 OA
ATOM     16  C   UNL     1      49.630   6.220  17.629  0.00  0.00    +0.000 A 
ATOM     17  H   UNL     1      46.695   7.482  18.393  0.00  0.00    +0.000 HD
ENDBRANCH   5   7
ENDBRANCH   4   5
ENDBRANCH   1   4
BRANCH   1  18
ATOM     18  C   UNL     1      49.805   7.782  13.351  0.00  0.00    +0.000 C 
BRANCH  18  19
ATOM     19  C   UNL     1      48.455   7.216  13.024  0.00  0.00    +0.000 A 
ATOM     20  C   UNL     1      47.736   7.673  11.913  0.00  0.00    +0.000 A 
ATOM     21  C   UNL     1      46.460   7.183  11.644  0.00  0.00    +0.000 A 
ATOM     22  C   UNL     1      45.874   6.218  12.480  0.00  0.00    +0.000 A 
ATOM     23  C   UNL     1      46.601   5.763  13.590  0.00  0.00    +0.000 A 
ATOM     24  C   UNL     1      47.874   6.251  13.856  0.00  0.00    +0.000 A 
BRANCH  22  25
ATOM     25  C   UNL     1      44.447   5.753  12.194  0.00  0.00    +0.000 C 
BRANCH  25  26
ATOM     26  C   UNL     1      44.004   4.719  13.246  0.00  0.00    +0.000 C 
BRANCH  26  27
ATOM     27  O   UNL     1      42.636   4.862  13.619  0.00  0.00    +0.000 OA
ATOM     28  H   UNL     1      42.463   4.200  14.311  0.00  0.00    +0.000 HD
ENDBRANCH  26  27
ENDBRANCH  25  26
BRANCH  25  29
ATOM     29  C   UNL     1      44.239   5.257  10.735  0.00  0.00    +0.000 C 
BRANCH  29  30
ATOM     30  N   UNL     1      45.220   4.265  10.262  0.00  0.00    +0.000 NA
ATOM     31  C   UNL     1      45.676   4.564   8.896  0.00  0.00    +0.000 C 
ATOM     32  C   UNL     1      44.826   3.696   7.991  0.00  0.00    +0.000 C 
ATOM     33  C   UNL     1      44.646   2.430   8.802  0.00  0.00    +0.000 C 
ATOM     34  C   UNL     1      44.714   2.886  10.252  0.00  0.00    +0.000 C 
ENDBRANCH  29  30
ENDBRANCH  25  29
ENDBRANCH  22  25
ENDBRANCH  18  19
ENDBRANCH   1  18
TORSDOF 10
ENDMDL
MODEL 9
REMARK VINA RESULT:    -6.270      2.480      3.587
REMARK INTER + INTRA:         -10.879
REMARK INTER:                  -9.022
REMARK INTRA:                  -1.857
REMARK UNBOUND:                -1.127
REMARK  Name = 
REMARK  11 active torsions:
REMARK  status: ('A' for Active; 'I' for Inactive)
REMARK    1  A    between atoms: C_1  and  C_2
REMARK    2  A    between atoms: C_2  and  N_3
REMARK    3  A    between atoms: C_2  and  C_20
REMARK    4  A    between atoms: N_3  and  C_4
REMARK    5  A    between atoms: C_4  and  C_5
REMARK    6  A    between atoms: C_8  and  C_9
REMARK    7  A    between atoms: C_9  and  C_10
REMARK    8  A    between atoms: C_9  and  C_12
REMARK    9  A    between atoms: C_10  and  O_11
REMARK   10  A    between atoms: C_12  and  N_13
REMARK   11  A    between atoms: C_20  and  C_22
REMARK                            x       y       z     vdW  Elec       q    Type
REMARK                         _______ _______ _______ _____ _____    ______ ____
ROOT
ATOM      1  N   UNL     1      50.794   6.774  15.308  0.00  0.00    +0.000 NA
ATOM      2  H   UNL     1      51.341   6.022  14.876  0.00  0.00    +0.000 HD
ENDROOT
BRANCH   1   4
ATOM      3  C   UNL     1      51.055   8.734  16.702  0.00  0.00    +0.000 C 
ATOM      4  C   UNL     1      51.571   7.323  16.436  0.00  0.00    +0.000 C 
BRANCH   4   5
ATOM      5  C   UNL     1      51.398   6.438  17.696  0.00  0.00    +0.000 C 
ATOM      6  O   UNL     1      51.701   6.866  18.810  0.00  0.00    +0.000 OA
BRANCH   5   7
ATOM      7  C   UNL     1      50.875   5.076  17.530  0.00  0.00    +0.000 A 
ATOM      8  C   UNL     1      51.687   3.963  17.400  0.00  0.00    +0.000 A 
ATOM      9  S   UNL     1      50.810   2.495  17.374  0.00  0.00    +0.000 S 
ATOM     10  C   UNL     1      49.323   3.312  17.521  0.00  0.00    +0.000 A 
ATOM     11  N   UNL     1      48.152   2.631  17.613  0.00  0.00    +0.000 NA
ATOM     12  C   UNL     1      47.107   3.385  17.737  0.00  0.00    +0.000 A 
ATOM     13  N   UNL     1      47.128   4.758  17.740  0.00  0.00    +0.000 N 
ATOM     14  C   UNL     1      48.278   5.486  17.505  0.00  0.00    +0.000 A 
ATOM     15  O   UNL     1      48.230   6.675  17.214  0.00  0.00    +0.000 OA
ATOM     16  C   UNL     1      49.490   4.684  17.517  0.00  0.00    +0.000 A 
ATOM     17  H   UNL     1      46.268   5.282  17.739  0.00  0.00    +0.000 HD
ENDBRANCH   5   7
ENDBRANCH   4   5
ENDBRANCH   1   4
BRANCH   1  18
ATOM     18  C   UNL     1      50.537   7.786  14.282  0.00  0.00    +0.000 C 
BRANCH  18  19
ATOM     19  C   UNL     1      49.227   7.499  13.608  0.00  0.00    +0.000 A 
ATOM     20  C   UNL     1      48.838   8.208  12.466  0.00  0.00    +0.000 A 
ATOM     21  C   UNL     1      47.598   7.976  11.876  0.00  0.00    +0.000 A 
ATOM     22  C   UNL     1      46.718   7.021  12.414  0.00  0.00    +0.000 A 
ATOM     23  C   UNL     1      47.116   6.313  13.557  0.00  0.00    +0.000 A 
ATOM     24  C   UNL     1      48.354   6.545  14.143  0.00  0.00    +0.000 A 
BRANCH  22  25
ATOM     25  C   UNL     1      45.339   6.841  11.781  0.00  0.00    +0.000 C 
BRANCH  25  26
ATOM     26  C   UNL     1      44.762   8.208  11.368  0.00  0.00    +0.000 C 
BRANCH  26  27
ATOM     27  O   UNL     1      43.349   8.177  11.179  0.00  0.00    +0.000 OA
ATOM     28  H   UNL     1      42.959   8.708  11.895  0.00  0.00    +0.000 HD
ENDBRANCH  26  27
ENDBRANCH  25  26
BRANCH  25  29
ATOM     29  C   UNL     1      44.359   6.014  12.661  0.00  0.00    +0.000 C 
BRANCH  29  30
ATOM     30  N   UNL     1      43.583   4.988  11.944  0.00  0.00    +0.000 NA
ATOM     31  C   UNL     1      43.700   3.672  12.591  0.00  0.00    +0.000 C 
ATOM     32  C   UNL     1      44.785   2.944  11.823  0.00  0.00    +0.000 C 
ATOM     33  C   UNL     1      44.573   3.418  10.400  0.00  0.00    +0.000 C 
ATOM     34  C   UNL     1      43.980   4.812  10.541  0.00  0.00    +0.000 C 
ENDBRANCH  29  30
ENDBRANCH  25  29
ENDBRANCH  22  25
ENDBRANCH  18  19
ENDBRANCH   1  18
TORSDOF 10
ENDMDL
