MODEL 1
REMARK VINA RESULT:    -8.692      0.000      0.000
REMARK INTER + INTRA:         -11.856
REMARK INTER:                 -11.232
REMARK INTRA:                  -0.624
REMARK UNBOUND:                -0.624
REMARK  Name = 
REMARK  5 active torsions:
REMARK  status: ('A' for Active; 'I' for Inactive)
REMARK    1  A    between atoms: C_2  and  C_4
REMARK    2  A    between atoms: C_7  and  O_8
REMARK    3  A    between atoms: O_8  and  C_9
REMARK    4  A    between atoms: C_9  and  C_10
REMARK    5  A    between atoms: C_14  and  C_15
REMARK                            x       y       z     vdW  Elec       q    Type
REMARK                         _______ _______ _______ _____ _____    ______ ____
ROOT
ATOM      1  C   UNL     1      43.978   4.338  11.549  0.00  0.00    +0.000 C 
ENDROOT
BRANCH   1   2
ATOM      2  C   UNL     1      45.075   5.262  12.035  0.00  0.00    +0.000 A 
ATOM      3  C   UNL     1      45.299   6.476  11.394  0.00  0.00    +0.000 A 
ATOM      4  C   UNL     1      46.272   7.326  11.900  0.00  0.00    +0.000 A 
ATOM      5  C   UNL     1      46.993   6.945  13.028  0.00  0.00    +0.000 A 
ATOM      6  C   UNL     1      46.722   5.717  13.631  0.00  0.00    +0.000 A 
ATOM      7  N   UNL     1      45.771   4.881  13.141  0.00  0.00    +0.000 NA
BRANCH   6   8
ATOM      8  C   UNL     1      47.438   5.242  14.827  0.00  0.00    +0.000 A 
ATOM      9  C   UNL     1      48.492   5.975  15.386  0.00  0.00    +0.000 A 
ATOM     10  N   UNL     1      49.188   5.621  16.502  0.00  0.00    +0.000 NA
ATOM     11  C   UNL     1      48.826   4.462  17.093  0.00  0.00    +0.000 A 
ATOM     12  C   UNL     1      47.814   3.654  16.616  0.00  0.00    +0.000 A 
ATOM     13  F   UNL     1      47.501   2.510  17.238  0.00  0.00    +0.000 F 
ATOM     14  C   UNL     1      47.116   4.041  15.477  0.00  0.00    +0.000 A 
ENDBRANCH   6   8
ENDBRANCH   1   2
BRANCH   1  15
ATOM     15  O   UNL     1      43.778   4.498  10.142  0.00  0.00    +0.000 OA
BRANCH  15  19
ATOM     16  C   UNL     1      46.424   2.323   7.752  0.00  0.00    +0.000 A 
ATOM     17  C   UNL     1      46.379   3.714   7.603  0.00  0.00    +0.000 A 
ATOM     18  C   UNL     1      45.505   4.478   8.387  0.00  0.00    +0.000 A 
ATOM     19  C   UNL     1      44.670   3.862   9.321  0.00  0.00    +0.000 A 
ATOM     20  C   UNL     1      44.712   2.472   9.459  0.00  0.00    +0.000 A 
ATOM     21  C   UNL     1      45.579   1.703   8.676  0.00  0.00    +0.000 A 
BRANCH  16  23
ATOM     22  N   UNL     1      48.423   2.083   6.376  0.00  0.00    +0.000 N 
ATOM     23  C   UNL     1      47.326   1.478   6.926  0.00  0.00    +0.000 C 
ATOM     24  O   UNL     1      47.122   0.282   6.770  0.00  0.00    +0.000 OA
ATOM     25  H   UNL     1      49.077   1.473   5.902  0.00  0.00    +0.000 HD
ATOM     26  H   UNL     1      48.760   2.982   6.686  0.00  0.00    +0.000 HD
ENDBRANCH  16  23
ENDBRANCH  15  19
ENDBRANCH   1  15
TORSDOF 5
ENDMDL
MODEL 2
REMARK VINA RESULT:    -8.636      3.052      4.356
REMARK INTER + INTRA:         -11.784
REMARK INTER:                 -11.008
REMARK INTRA:                  -0.776
REMARK UNBOUND:                -0.624
REMARK  Name = 
REMARK  5 active torsions:
REMARK  status: ('A' for Active; 'I' for Inactive)
REMARK    1  A    between atoms: C_2  and  C_4
REMARK    2  A    between atoms: C_7  and  O_8
REMARK    3  A    between atoms: O_8  and  C_9
REMARK    4  A    between atoms: C_9  and  C_10
REMARK    5  A    between atoms: C_14  and  C_15
REMARK                            x       y       z     vdW  Elec       q    Type
REMARK                         _______ _______ _______ _____ _____    ______ ____
ROOT
ATOM      1  C   UNL     1      43.821   3.248  11.753  0.00  0.00    +0.000 C 
ENDROOT
BRANCH   1   2
ATOM      2  C   UNL     1      44.839   4.216  12.319  0.00  0.00    +0.000 A 
ATOM      3  C   UNL     1      45.910   3.742  13.069  0.00  0.00    +0.000 A 
ATOM      4  C   UNL     1      46.858   4.648  13.524  0.00  0.00    +0.000 A 
ATOM      5  C   UNL     1      46.713   5.998  13.220  0.00  0.00    +0.000 A 
ATOM      6  C   UNL     1      45.621   6.415  12.460  0.00  0.00    +0.000 A 
ATOM      7  N   UNL     1      44.691   5.534  12.013  0.00  0.00    +0.000 NA
BRANCH   6   8
ATOM      8  C   UNL     1      45.397   7.824  12.094  0.00  0.00    +0.000 A 
ATOM      9  C   UNL     1      46.271   8.835  12.514  0.00  0.00    +0.000 A 
ATOM     10  N   UNL     1      46.152  10.155  12.199  0.00  0.00    +0.000 NA
ATOM     11  C   UNL     1      45.094  10.496  11.433  0.00  0.00    +0.000 A 
ATOM     12  C   UNL     1      44.162   9.584  10.980  0.00  0.00    +0.000 A 
ATOM     13  F   UNL     1      43.127   9.979  10.228  0.00  0.00    +0.000 F 
ATOM     14  C   UNL     1      44.310   8.242  11.312  0.00  0.00    +0.000 A 
ENDBRANCH   6   8
ENDBRANCH   1   2
BRANCH   1  15
ATOM     15  O   UNL     1      43.498   3.598  10.404  0.00  0.00    +0.000 OA
BRANCH  15  19
ATOM     16  C   UNL     1      46.436   2.619   7.600  0.00  0.00    +0.000 A 
ATOM     17  C   UNL     1      46.055   3.960   7.728  0.00  0.00    +0.000 A 
ATOM     18  C   UNL     1      45.073   4.328   8.657  0.00  0.00    +0.000 A 
ATOM     19  C   UNL     1      44.465   3.364   9.463  0.00  0.00    +0.000 A 
ATOM     20  C   UNL     1      44.843   2.025   9.326  0.00  0.00    +0.000 A 
ATOM     21  C   UNL     1      45.818   1.650   8.396  0.00  0.00    +0.000 A 
BRANCH  16  23
ATOM     22  N   UNL     1      47.498   2.852   5.418  0.00  0.00    +0.000 N 
ATOM     23  C   UNL     1      47.461   2.188   6.614  0.00  0.00    +0.000 C 
ATOM     24  O   UNL     1      48.265   1.302   6.868  0.00  0.00    +0.000 OA
ATOM     25  H   UNL     1      48.264   2.614   4.800  0.00  0.00    +0.000 HD
ATOM     26  H   UNL     1      47.037   3.738   5.274  0.00  0.00    +0.000 HD
ENDBRANCH  16  23
ENDBRANCH  15  19
ENDBRANCH   1  15
TORSDOF 5
ENDMDL
MODEL 3
REMARK VINA RESULT:    -8.611      2.758      4.019
REMARK INTER + INTRA:         -11.752
REMARK INTER:                 -10.918
REMARK INTRA:                  -0.834
REMARK UNBOUND:                -0.624
REMARK  Name = 
REMARK  5 active torsions:
REMARK  status: ('A' for Active; 'I' for Inactive)
REMARK    1  A    between atoms: C_2  and  C_4
REMARK    2  A    between atoms: C_7  and  O_8
REMARK    3  A    between atoms: O_8  and  C_9
REMARK    4  A    between atoms: C_9  and  C_10
REMARK    5  A    between atoms: C_14  and  C_15
REMARK                            x       y       z     vdW  Elec       q    Type
REMARK                         _______ _______ _______ _____ _____    ______ ____
ROOT
ATOM      1  C   UNL     1      43.614   3.639  11.455  0.00  0.00    +0.000 C 
ENDROOT
BRANCH   1   2
ATOM      2  C   UNL     1      44.828   4.221  12.148  0.00  0.00    +0.000 A 
ATOM      3  C   UNL     1      45.691   3.392  12.857  0.00  0.00    +0.000 A 
ATOM      4  C   UNL     1      46.827   3.947  13.431  0.00  0.00    +0.000 A 
ATOM      5  C   UNL     1      47.071   5.309  13.283  0.00  0.00    +0.000 A 
ATOM      6  C   UNL     1      46.172   6.091  12.559  0.00  0.00    +0.000 A 
ATOM      7  N   UNL     1      45.060   5.553  11.995  0.00  0.00    +0.000 NA
BRANCH   6   8
ATOM      8  C   UNL     1      46.359   7.537  12.355  0.00  0.00    +0.000 A 
ATOM      9  C   UNL     1      45.273   8.421  12.357  0.00  0.00    +0.000 A 
ATOM     10  N   UNL     1      45.360   9.772  12.203  0.00  0.00    +0.000 NA
ATOM     11  C   UNL     1      46.599  10.275  12.020  0.00  0.00    +0.000 A 
ATOM     12  C   UNL     1      47.737   9.493  11.982  0.00  0.00    +0.000 A 
ATOM     13  F   UNL     1      48.941  10.046  11.791  0.00  0.00    +0.000 F 
ATOM     14  C   UNL     1      47.619   8.118  12.148  0.00  0.00    +0.000 A 
ENDBRANCH   6   8
ENDBRANCH   1   2
BRANCH   1  15
ATOM     15  O   UNL     1      43.587   4.036  10.082  0.00  0.00    +0.000 OA
BRANCH  15  19
ATOM     16  C   UNL     1      46.550   2.612   7.504  0.00  0.00    +0.000 A 
ATOM     17  C   UNL     1      45.853   1.691   8.296  0.00  0.00    +0.000 A 
ATOM     18  C   UNL     1      44.853   2.130   9.172  0.00  0.00    +0.000 A 
ATOM     19  C   UNL     1      44.541   3.487   9.267  0.00  0.00    +0.000 A 
ATOM     20  C   UNL     1      45.245   4.404   8.481  0.00  0.00    +0.000 A 
ATOM     21  C   UNL     1      46.249   3.973   7.608  0.00  0.00    +0.000 A 
BRANCH  16  23
ATOM     22  N   UNL     1      47.883   2.989   5.498  0.00  0.00    +0.000 N 
ATOM     23  C   UNL     1      47.629   2.186   6.575  0.00  0.00    +0.000 C 
ATOM     24  O   UNL     1      48.291   1.177   6.779  0.00  0.00    +0.000 OA
ATOM     25  H   UNL     1      48.684   2.738   4.933  0.00  0.00    +0.000 HD
ATOM     26  H   UNL     1      47.546   3.939   5.437  0.00  0.00    +0.000 HD
ENDBRANCH  16  23
ENDBRANCH  15  19
ENDBRANCH   1  15
TORSDOF 5
ENDMDL
MODEL 4
REMARK VINA RESULT:    -8.395      2.508      3.061
REMARK INTER + INTRA:         -11.473
REMARK INTER:                 -10.832
REMARK INTRA:                  -0.641
REMARK UNBOUND:                -0.624
REMARK  Name = 
REMARK  5 active torsions:
REMARK  status: ('A' for Active; 'I' for Inactive)
REMARK    1  A    between atoms: C_2  and  C_4
REMARK    2  A    between atoms: C_7  and  O_8
REMARK    3  A    between atoms: O_8  and  C_9
REMARK    4  A    between atoms: C_9  and  C_10
REMARK    5  A    between atoms: C_14  and  C_15
REMARK                            x       y       z     vdW  Elec       q    Type
REMARK                         _______ _______ _______ _____ _____    ______ ____
ROOT
ATOM      1  C   UNL     1      43.990   3.421  11.613  0.00  0.00    +0.000 C 
ENDROOT
BRANCH   1   2
ATOM      2  C   UNL     1      44.323   4.898  11.639  0.00  0.00    +0.000 A 
ATOM      3  C   UNL     1      43.344   5.840  11.338  0.00  0.00    +0.000 A 
ATOM      4  C   UNL     1      43.665   7.187  11.428  0.00  0.00    +0.000 A 
ATOM      5  C   UNL     1      44.949   7.558  11.817  0.00  0.00    +0.000 A 
ATOM      6  C   UNL     1      45.888   6.570  12.111  0.00  0.00    +0.000 A 
ATOM      7  N   UNL     1      45.580   5.251  12.024  0.00  0.00    +0.000 NA
BRANCH   6   8
ATOM      8  C   UNL     1      47.265   6.880  12.530  0.00  0.00    +0.000 A 
ATOM      9  C   UNL     1      47.776   6.426  13.753  0.00  0.00    +0.000 A 
ATOM     10  N   UNL     1      49.042   6.645  14.204  0.00  0.00    +0.000 NA
ATOM     11  C   UNL     1      49.848   7.372  13.401  0.00  0.00    +0.000 A 
ATOM     12  C   UNL     1      49.442   7.883  12.184  0.00  0.00    +0.000 A 
ATOM     13  F   UNL     1      50.281   8.604  11.431  0.00  0.00    +0.000 F 
ATOM     14  C   UNL     1      48.145   7.640  11.745  0.00  0.00    +0.000 A 
ENDBRANCH   6   8
ENDBRANCH   1   2
BRANCH   1  15
ATOM     15  O   UNL     1      43.540   3.035  10.311  0.00  0.00    +0.000 OA
BRANCH  15  19
ATOM     16  C   UNL     1      46.485   2.574   7.384  0.00  0.00    +0.000 A 
ATOM     17  C   UNL     1      45.877   3.827   7.529  0.00  0.00    +0.000 A 
ATOM     18  C   UNL     1      44.886   4.021   8.499  0.00  0.00    +0.000 A 
ATOM     19  C   UNL     1      44.493   2.969   9.330  0.00  0.00    +0.000 A 
ATOM     20  C   UNL     1      45.096   1.718   9.175  0.00  0.00    +0.000 A 
ATOM     21  C   UNL     1      46.082   1.516   8.204  0.00  0.00    +0.000 A 
BRANCH  16  23
ATOM     22  N   UNL     1      47.459   3.060   5.203  0.00  0.00    +0.000 N 
ATOM     23  C   UNL     1      47.528   2.326   6.355  0.00  0.00    +0.000 C 
ATOM     24  O   UNL     1      48.434   1.524   6.538  0.00  0.00    +0.000 OA
ATOM     25  H   UNL     1      48.232   2.950   4.558  0.00  0.00    +0.000 HD
ATOM     26  H   UNL     1      46.896   3.894   5.123  0.00  0.00    +0.000 HD
ENDBRANCH  16  23
ENDBRANCH  15  19
ENDBRANCH   1  15
TORSDOF 5
ENDMDL
MODEL 5
REMARK VINA RESULT:    -7.866      2.539      3.397
REMARK INTER + INTRA:         -10.790
REMARK INTER:                 -10.075
REMARK INTRA:                  -0.715
REMARK UNBOUND:                -0.624
REMARK  Name = 
REMARK  5 active torsions:
REMARK  status: ('A' for Active; 'I' for Inactive)
REMARK    1  A    between atoms: C_2  and  C_4
REMARK    2  A    between atoms: C_7  and  O_8
REMARK    3  A    between atoms: O_8  and  C_9
REMARK    4  A    between atoms: C_9  and  C_10
REMARK    5  A    between atoms: C_14  and  C_15
REMARK                            x       y       z     vdW  Elec       q    Type
REMARK                         _______ _______ _______ _____ _____    ______ ____
ROOT
ATOM      1  C   UNL     1      44.511   5.695  10.880  0.00  0.00    +0.000 C 
ENDROOT
BRANCH   1   2
ATOM      2  C   UNL     1      45.488   5.574  12.031  0.00  0.00    +0.000 A 
ATOM      3  C   UNL     1      45.249   4.666  13.057  0.00  0.00    +0.000 A 
ATOM      4  C   UNL     1      46.193   4.538  14.066  0.00  0.00    +0.000 A 
ATOM      5  C   UNL     1      47.347   5.315  14.025  0.00  0.00    +0.000 A 
ATOM      6  C   UNL     1      47.534   6.207  12.969  0.00  0.00    +0.000 A 
ATOM      7  N   UNL     1      46.614   6.336  11.979  0.00  0.00    +0.000 NA
BRANCH   6   8
ATOM      8  C   UNL     1      48.727   7.062  12.852  0.00  0.00    +0.000 A 
ATOM      9  C   UNL     1      49.107   7.621  11.626  0.00  0.00    +0.000 A 
ATOM     10  N   UNL     1      50.177   8.442  11.436  0.00  0.00    +0.000 NA
ATOM     11  C   UNL     1      50.926   8.713  12.526  0.00  0.00    +0.000 A 
ATOM     12  C   UNL     1      50.652   8.202  13.779  0.00  0.00    +0.000 A 
ATOM     13  F   UNL     1      51.433   8.499  14.824  0.00  0.00    +0.000 F 
ATOM     14  C   UNL     1      49.550   7.371  13.946  0.00  0.00    +0.000 A 
ENDBRANCH   6   8
ENDBRANCH   1   2
BRANCH   1  15
ATOM     15  O   UNL     1      44.077   4.399  10.457  0.00  0.00    +0.000 OA
BRANCH  15  19
ATOM     16  C   UNL     1      46.524   2.707   7.524  0.00  0.00    +0.000 A 
ATOM     17  C   UNL     1      45.882   1.856   8.432  0.00  0.00    +0.000 A 
ATOM     18  C   UNL     1      45.054   2.385   9.429  0.00  0.00    +0.000 A 
ATOM     19  C   UNL     1      44.860   3.765   9.530  0.00  0.00    +0.000 A 
ATOM     20  C   UNL     1      45.511   4.611   8.627  0.00  0.00    +0.000 A 
ATOM     21  C   UNL     1      46.344   4.089   7.633  0.00  0.00    +0.000 A 
BRANCH  16  23
ATOM     22  N   UNL     1      47.526   2.913   5.311  0.00  0.00    +0.000 N 
ATOM     23  C   UNL     1      47.424   2.183   6.463  0.00  0.00    +0.000 C 
ATOM     24  O   UNL     1      48.076   1.160   6.622  0.00  0.00    +0.000 OA
ATOM     25  H   UNL     1      48.217   2.596   4.643  0.00  0.00    +0.000 HD
ATOM     26  H   UNL     1      47.215   3.871   5.245  0.00  0.00    +0.000 HD
ENDBRANCH  16  23
ENDBRANCH  15  19
ENDBRANCH   1  15
TORSDOF 5
ENDMDL
MODEL 6
REMARK VINA RESULT:    -7.424      3.288      7.774
REMARK INTER + INTRA:         -10.218
REMARK INTER:                  -9.634
REMARK INTRA:                  -0.584
REMARK UNBOUND:                -0.624
REMARK  Name = 
REMARK  5 active torsions:
REMARK  status: ('A' for Active; 'I' for Inactive)
REMARK    1  A    between atoms: C_2  and  C_4
REMARK    2  A    between atoms: C_7  and  O_8
REMARK    3  A    between atoms: O_8  and  C_9
REMARK    4  A    between atoms: C_9  and  C_10
REMARK    5  A    between atoms: C_14  and  C_15
REMARK                            x       y       z     vdW  Elec       q    Type
REMARK                         _______ _______ _______ _____ _____    ______ ____
ROOT
ATOM      1  C   UNL     1      45.867   6.961  12.897  0.00  0.00    +0.000 C 
ENDROOT
BRANCH   1   2
ATOM      2  C   UNL     1      44.985   5.917  12.244  0.00  0.00    +0.000 A 
ATOM      3  C   UNL     1      43.698   5.694  12.721  0.00  0.00    +0.000 A 
ATOM      4  C   UNL     1      42.894   4.773  12.064  0.00  0.00    +0.000 A 
ATOM      5  C   UNL     1      43.393   4.102  10.951  0.00  0.00    +0.000 A 
ATOM      6  C   UNL     1      44.690   4.370  10.516  0.00  0.00    +0.000 A 
ATOM      7  N   UNL     1      45.481   5.270  11.155  0.00  0.00    +0.000 NA
BRANCH   6   8
ATOM      8  C   UNL     1      45.291   3.704   9.347  0.00  0.00    +0.000 A 
ATOM      9  C   UNL     1      45.775   4.439   8.258  0.00  0.00    +0.000 A 
ATOM     10  N   UNL     1      46.367   3.906   7.153  0.00  0.00    +0.000 NA
ATOM     11  C   UNL     1      46.471   2.561   7.119  0.00  0.00    +0.000 A 
ATOM     12  C   UNL     1      46.012   1.739   8.129  0.00  0.00    +0.000 A 
ATOM     13  F   UNL     1      46.136   0.410   8.040  0.00  0.00    +0.000 F 
ATOM     14  C   UNL     1      45.417   2.311   9.248  0.00  0.00    +0.000 A 
ENDBRANCH   6   8
ENDBRANCH   1   2
BRANCH   1  15
ATOM     15  O   UNL     1      47.200   6.466  13.043  0.00  0.00    +0.000 OA
BRANCH  15  19
ATOM     16  C   UNL     1      48.246   4.706  16.684  0.00  0.00    +0.000 A 
ATOM     17  C   UNL     1      47.354   4.027  15.845  0.00  0.00    +0.000 A 
ATOM     18  C   UNL     1      46.980   4.584  14.616  0.00  0.00    +0.000 A 
ATOM     19  C   UNL     1      47.489   5.821  14.215  0.00  0.00    +0.000 A 
ATOM     20  C   UNL     1      48.372   6.499  15.061  0.00  0.00    +0.000 A 
ATOM     21  C   UNL     1      48.746   5.951  16.291  0.00  0.00    +0.000 A 
BRANCH  16  23
ATOM     22  N   UNL     1      47.822   3.235  18.582  0.00  0.00    +0.000 N 
ATOM     23  C   UNL     1      48.653   4.154  18.003  0.00  0.00    +0.000 C 
ATOM     24  O   UNL     1      49.705   4.477  18.538  0.00  0.00    +0.000 OA
ATOM     25  H   UNL     1      48.162   2.796  19.428  0.00  0.00    +0.000 HD
ATOM     26  H   UNL     1      47.095   2.759  18.067  0.00  0.00    +0.000 HD
ENDBRANCH  16  23
ENDBRANCH  15  19
ENDBRANCH   1  15
TORSDOF 5
ENDMDL
MODEL 7
REMARK VINA RESULT:    -7.321      3.678      7.283
REMARK INTER + INTRA:         -10.085
REMARK INTER:                  -9.338
REMARK INTRA:                  -0.748
REMARK UNBOUND:                -0.624
REMARK  Name = 
REMARK  5 active torsions:
REMARK  status: ('A' for Active; 'I' for Inactive)
REMARK    1  A    between atoms: C_2  and  C_4
REMARK    2  A    between atoms: C_7  and  O_8
REMARK    3  A    between atoms: O_8  and  C_9
REMARK    4  A    between atoms: C_9  and  C_10
REMARK    5  A    between atoms: C_14  and  C_15
REMARK                            x       y       z     vdW  Elec       q    Type
REMARK                         _______ _______ _______ _____ _____    ______ ____
ROOT
ATOM      1  C   UNL     1      44.440   6.687  11.753  0.00  0.00    +0.000 C 
ENDROOT
BRANCH   1   2
ATOM      2  C   UNL     1      44.300   5.221  11.399  0.00  0.00    +0.000 A 
ATOM      3  C   UNL     1      43.478   4.395  12.159  0.00  0.00    +0.000 A 
ATOM      4  C   UNL     1      43.325   3.071  11.773  0.00  0.00    +0.000 A 
ATOM      5  C   UNL     1      43.993   2.607  10.643  0.00  0.00    +0.000 A 
ATOM      6  C   UNL     1      44.800   3.482   9.918  0.00  0.00    +0.000 A 
ATOM      7  N   UNL     1      44.954   4.779  10.291  0.00  0.00    +0.000 NA
BRANCH   6   8
ATOM      8  C   UNL     1      45.537   3.070   8.711  0.00  0.00    +0.000 A 
ATOM      9  C   UNL     1      45.878   3.993   7.714  0.00  0.00    +0.000 A 
ATOM     10  N   UNL     1      46.579   3.702   6.583  0.00  0.00    +0.000 NA
ATOM     11  C   UNL     1      46.952   2.414   6.423  0.00  0.00    +0.000 A 
ATOM     12  C   UNL     1      46.652   1.420   7.334  0.00  0.00    +0.000 A 
ATOM     13  F   UNL     1      47.041   0.157   7.121  0.00  0.00    +0.000 F 
ATOM     14  C   UNL     1      45.940   1.746   8.483  0.00  0.00    +0.000 A 
ENDBRANCH   6   8
ENDBRANCH   1   2
BRANCH   1  15
ATOM     15  O   UNL     1      45.238   6.841  12.930  0.00  0.00    +0.000 OA
BRANCH  15  19
ATOM     16  C   UNL     1      49.213   7.918  12.227  0.00  0.00    +0.000 A 
ATOM     17  C   UNL     1      48.952   6.682  12.831  0.00  0.00    +0.000 A 
ATOM     18  C   UNL     1      47.632   6.286  13.083  0.00  0.00    +0.000 A 
ATOM     19  C   UNL     1      46.565   7.117  12.737  0.00  0.00    +0.000 A 
ATOM     20  C   UNL     1      46.831   8.354  12.142  0.00  0.00    +0.000 A 
ATOM     21  C   UNL     1      48.146   8.758  11.893  0.00  0.00    +0.000 A 
BRANCH  16  23
ATOM     22  N   UNL     1      51.154   9.252  12.857  0.00  0.00    +0.000 N 
ATOM     23  C   UNL     1      50.600   8.381  11.960  0.00  0.00    +0.000 C 
ATOM     24  O   UNL     1      51.238   7.975  10.998  0.00  0.00    +0.000 OA
ATOM     25  H   UNL     1      52.131   9.477  12.715  0.00  0.00    +0.000 HD
ATOM     26  H   UNL     1      50.767   9.403  13.778  0.00  0.00    +0.000 HD
ENDBRANCH  16  23
ENDBRANCH  15  19
ENDBRANCH   1  15
TORSDOF 5
ENDMDL
MODEL 8
REMARK VINA RESULT:    -6.898      4.428      7.846
REMARK INTER + INTRA:          -9.538
REMARK INTER:                  -8.832
REMARK INTRA:                  -0.706
REMARK UNBOUND:                -0.624
REMARK  Name = 
REMARK  5 active torsions:
REMARK  status: ('A' for Active; 'I' for Inactive)
REMARK    1  A    between atoms: C_2  and  C_4
REMARK    2  A    between atoms: C_7  and  O_8
REMARK    3  A    between atoms: O_8  and  C_9
REMARK    4  A    between atoms: C_9  and  C_10
REMARK    5  A    between atoms: C_14  and  C_15
REMARK                            x       y       z     vdW  Elec       q    Type
REMARK                         _______ _______ _______ _____ _____    ______ ____
ROOT
ATOM      1  C   UNL     1      48.839   6.694  16.115  0.00  0.00    +0.000 C 
ENDROOT
BRANCH   1   2
ATOM      2  C   UNL     1      48.494   6.765  14.643  0.00  0.00    +0.000 A 
ATOM      3  C   UNL     1      49.306   7.481  13.770  0.00  0.00    +0.000 A 
ATOM      4  C   UNL     1      48.996   7.478  12.417  0.00  0.00    +0.000 A 
ATOM      5  C   UNL     1      47.888   6.763  11.972  0.00  0.00    +0.000 A 
ATOM      6  C   UNL     1      47.112   6.060  12.893  0.00  0.00    +0.000 A 
ATOM      7  N   UNL     1      47.411   6.059  14.217  0.00  0.00    +0.000 NA
BRANCH   6   8
ATOM      8  C   UNL     1      45.927   5.278  12.502  0.00  0.00    +0.000 A 
ATOM      9  C   UNL     1      45.306   4.398  13.397  0.00  0.00    +0.000 A 
ATOM     10  N   UNL     1      44.194   3.659  13.127  0.00  0.00    +0.000 NA
ATOM     11  C   UNL     1      43.675   3.788  11.887  0.00  0.00    +0.000 A 
ATOM     12  C   UNL     1      44.218   4.612  10.921  0.00  0.00    +0.000 A 
ATOM     13  F   UNL     1      43.666   4.697   9.705  0.00  0.00    +0.000 F 
ATOM     14  C   UNL     1      45.350   5.360  11.226  0.00  0.00    +0.000 A 
ENDBRANCH   6   8
ENDBRANCH   1   2
BRANCH   1  15
ATOM     15  O   UNL     1      48.258   5.529  16.707  0.00  0.00    +0.000 OA
BRANCH  15  19
ATOM     16  C   UNL     1      51.013   2.471  17.420  0.00  0.00    +0.000 A 
ATOM     17  C   UNL     1      49.716   2.123  17.025  0.00  0.00    +0.000 A 
ATOM     18  C   UNL     1      48.764   3.120  16.777  0.00  0.00    +0.000 A 
ATOM     19  C   UNL     1      49.096   4.468  16.921  0.00  0.00    +0.000 A 
ATOM     20  C   UNL     1      50.391   4.811  17.324  0.00  0.00    +0.000 A 
ATOM     21  C   UNL     1      51.344   3.820  17.579  0.00  0.00    +0.000 A 
BRANCH  16  23
ATOM     22  N   UNL     1      51.607   0.216  18.130  0.00  0.00    +0.000 N 
ATOM     23  C   UNL     1      52.045   1.441  17.709  0.00  0.00    +0.000 C 
ATOM     24  O   UNL     1      53.237   1.663  17.546  0.00  0.00    +0.000 OA
ATOM     25  H   UNL     1      52.315  -0.502  18.225  0.00  0.00    +0.000 HD
ATOM     26  H   UNL     1      50.648  -0.082  18.030  0.00  0.00    +0.000 HD
ENDBRANCH  16  23
ENDBRANCH  15  19
ENDBRANCH   1  15
TORSDOF 5
ENDMDL
MODEL 9
REMARK VINA RESULT:    -6.772      4.375      8.213
REMARK INTER + INTRA:          -9.375
REMARK INTER:                  -8.761
REMARK INTRA:                  -0.614
REMARK UNBOUND:                -0.624
REMARK  Name = 
REMARK  5 active torsions:
REMARK  status: ('A' for Active; 'I' for Inactive)
REMARK    1  A    between atoms: C_2  and  C_4
REMARK    2  A    between atoms: C_7  and  O_8
REMARK    3  A    between atoms: O_8  and  C_9
REMARK    4  A    between atoms: C_9  and  C_10
REMARK    5  A    between atoms: C_14  and  C_15
REMARK                            x       y       z     vdW  Elec       q    Type
REMARK                         _______ _______ _______ _____ _____    ______ ____
ROOT
ATOM      1  C   UNL     1      47.687   3.865  16.583  0.00  0.00    +0.000 C 
ENDROOT
BRANCH   1   2
ATOM      2  C   UNL     1      47.495   4.783  15.395  0.00  0.00    +0.000 A 
ATOM      3  C   UNL     1      48.240   5.953  15.289  0.00  0.00    +0.000 A 
ATOM      4  C   UNL     1      48.084   6.743  14.158  0.00  0.00    +0.000 A 
ATOM      5  C   UNL     1      47.192   6.346  13.166  0.00  0.00    +0.000 A 
ATOM      6  C   UNL     1      46.475   5.161  13.325  0.00  0.00    +0.000 A 
ATOM      7  N   UNL     1      46.623   4.384  14.428  0.00  0.00    +0.000 NA
BRANCH   6   8
ATOM      8  C   UNL     1      45.515   4.671  12.321  0.00  0.00    +0.000 A 
ATOM      9  C   UNL     1      45.382   5.293  11.073  0.00  0.00    +0.000 A 
ATOM     10  N   UNL     1      44.540   4.890  10.081  0.00  0.00    +0.000 NA
ATOM     11  C   UNL     1      43.772   3.813  10.348  0.00  0.00    +0.000 A 
ATOM     12  C   UNL     1      43.809   3.135  11.550  0.00  0.00    +0.000 A 
ATOM     13  F   UNL     1      43.019   2.076  11.763  0.00  0.00    +0.000 F 
ATOM     14  C   UNL     1      44.681   3.565  12.543  0.00  0.00    +0.000 A 
ENDBRANCH   6   8
ENDBRANCH   1   2
BRANCH   1  15
ATOM     15  O   UNL     1      48.684   4.390  17.463  0.00  0.00    +0.000 OA
BRANCH  15  19
ATOM     16  C   UNL     1      52.076   1.967  17.725  0.00  0.00    +0.000 A 
ATOM     17  C   UNL     1      52.186   3.313  18.096  0.00  0.00    +0.000 A 
ATOM     18  C   UNL     1      51.071   4.157  18.022  0.00  0.00    +0.000 A 
ATOM     19  C   UNL     1      49.841   3.668  17.578  0.00  0.00    +0.000 A 
ATOM     20  C   UNL     1      49.739   2.325  17.200  0.00  0.00    +0.000 A 
ATOM     21  C   UNL     1      50.850   1.479  17.266  0.00  0.00    +0.000 A 
BRANCH  16  23
ATOM     22  N   UNL     1      53.014  -0.230  18.212  0.00  0.00    +0.000 N 
ATOM     23  C   UNL     1      53.242   1.045  17.774  0.00  0.00    +0.000 C 
ATOM     24  O   UNL     1      54.354   1.397  17.405  0.00  0.00    +0.000 OA
ATOM     25  H   UNL     1      53.795  -0.871  18.144  0.00  0.00    +0.000 HD
ATOM     26  H   UNL     1      52.088  -0.626  18.275  0.00  0.00    +0.000 HD
ENDBRANCH  16  23
ENDBRANCH  15  19
ENDBRANCH   1  15
TORSDOF 5
ENDMDL
