MODEL 1
REMARK VINA RESULT:    -8.091      0.000      0.000
REMARK INTER + INTRA:         -12.625
REMARK INTER:                 -11.402
REMARK INTRA:                  -1.223
REMARK UNBOUND:                -1.223
REMARK  Name = 
REMARK  8 active torsions:
REMARK  status: ('A' for Active; 'I' for Inactive)
REMARK    1  A    between atoms: C_1  and  C_2
REMARK    2  A    between atoms: C_2  and  N_3
REMARK    3  A    between atoms: N_3  and  C_4
REMARK    4  A    between atoms: C_4  and  C_5
REMARK    5  A    between atoms: C_8  and  C_9
REMARK    6  A    between atoms: N_11  and  C_12
REMARK    7  A    between atoms: C_12  and  C_13
REMARK    8  A    between atoms: C_20  and  C_22
REMARK                            x       y       z     vdW  Elec       q    Type
REMARK                         _______ _______ _______ _____ _____    ______ ____
ROOT
ATOM      1  C   UNL     1      46.461   5.882  12.240  0.00  0.00    +0.000 C 
ENDROOT
BRANCH   1   2
ATOM      2  C   UNL     1      46.939   5.677  13.650  0.00  0.00    +0.000 A 
ATOM      3  C   UNL     1      46.506   4.572  14.393  0.00  0.00    +0.000 A 
ATOM      4  C   UNL     1      47.130   4.264  15.596  0.00  0.00    +0.000 A 
ATOM      5  C   UNL     1      48.167   5.081  16.027  0.00  0.00    +0.000 A 
ATOM      6  N   UNL     1      48.573   6.201  15.365  0.00  0.00    +0.000 NA
ATOM      7  C   UNL     1      47.944   6.470  14.195  0.00  0.00    +0.000 A 
BRANCH   5   8
ATOM      8  C   UNL     1      48.948   4.678  17.241  0.00  0.00    +0.000 C 
ATOM      9  O   UNL     1      48.379   4.397  18.290  0.00  0.00    +0.000 OA
ATOM     10  N   UNL     1      50.309   4.623  17.070  0.00  0.00    +0.000 N 
ATOM     11  H   UNL     1      50.692   4.892  16.169  0.00  0.00    +0.000 HD
BRANCH  10  12
ATOM     12  C   UNL     1      51.210   4.211  18.120  0.00  0.00    +0.000 C 
BRANCH  12  13
ATOM     13  C   UNL     1      51.670   2.821  17.851  0.00  0.00    +0.000 A 
ATOM     14  C   UNL     1      50.959   1.762  17.322  0.00  0.00    +0.000 A 
ATOM     15  N   UNL     1      51.845   0.724  17.262  0.00  0.00    +0.000 N 
ATOM     16  C   UNL     1      53.040   1.173  17.747  0.00  0.00    +0.000 A 
ATOM     17  N   UNL     1      52.967   2.431  18.118  0.00  0.00    +0.000 NA
ATOM     18  H   UNL     1      51.658  -0.208  16.917  0.00  0.00    +0.000 HD
ENDBRANCH  12  13
ENDBRANCH  10  12
ENDBRANCH   5   8
ENDBRANCH   1   2
BRANCH   1  19
ATOM     19  N   UNL     1      45.215   6.592  11.973  0.00  0.00    +0.000 N 
ATOM     20  C   UNL     1      44.108   5.963  11.364  0.00  0.00    +0.000 C 
ATOM     21  O   UNL     1      43.072   6.581  11.130  0.00  0.00    +0.000 OA
BRANCH  20  22
ATOM     22  C   UNL     1      44.190   4.533  11.025  0.00  0.00    +0.000 A 
ATOM     23  C   UNL     1      43.538   3.472  11.651  0.00  0.00    +0.000 A 
ATOM     24  N   UNL     1      43.845   2.304  10.997  0.00  0.00    +0.000 N 
ATOM     25  C   UNL     1      44.602   2.597   9.906  0.00  0.00    +0.000 A 
ATOM     26  N   UNL     1      44.990   1.666   9.006  0.00  0.00    +0.000 NA
ATOM     27  C   UNL     1      45.663   2.176   8.020  0.00  0.00    +0.000 A 
ATOM     28  N   UNL     1      45.990   3.509   7.889  0.00  0.00    +0.000 N 
ATOM     29  C   UNL     1      45.674   4.471   8.835  0.00  0.00    +0.000 A 
ATOM     30  O   UNL     1      46.113   5.612   8.764  0.00  0.00    +0.000 OA
ATOM     31  C   UNL     1      44.854   3.952   9.905  0.00  0.00    +0.000 A 
ATOM     32  H   UNL     1      43.527   1.377  11.239  0.00  0.00    +0.000 HD
ATOM     33  H   UNL     1      46.561   3.826   7.124  0.00  0.00    +0.000 HD
ENDBRANCH  20  22
BRANCH  19  35
ATOM     34  C   UNL     1      46.190   8.870  12.040  0.00  0.00    +0.000 C 
ATOM     35  C   UNL     1      45.025   7.972  12.431  0.00  0.00    +0.000 C 
ENDBRANCH  19  35
ENDBRANCH   1  19
TORSDOF 7
ENDMDL
MODEL 2
REMARK VINA RESULT:    -7.649      2.143      2.669
REMARK INTER + INTRA:         -12.002
REMARK INTER:                 -10.931
REMARK INTRA:                  -1.071
REMARK UNBOUND:                -1.223
REMARK  Name = 
REMARK  8 active torsions:
REMARK  status: ('A' for Active; 'I' for Inactive)
REMARK    1  A    between atoms: C_1  and  C_2
REMARK    2  A    between atoms: C_2  and  N_3
REMARK    3  A    between atoms: N_3  and  C_4
REMARK    4  A    between atoms: C_4  and  C_5
REMARK    5  A    between atoms: C_8  and  C_9
REMARK    6  A    between atoms: N_11  and  C_12
REMARK    7  A    between atoms: C_12  and  C_13
REMARK    8  A    between atoms: C_20  and  C_22
REMARK                            x       y       z     vdW  Elec       q    Type
REMARK                         _______ _______ _______ _____ _____    ______ ____
ROOT
ATOM      1  C   UNL     1      46.619   6.027  11.975  0.00  0.00    +0.000 C 
ENDROOT
BRANCH   1   2
ATOM      2  C   UNL     1      47.054   5.416  13.276  0.00  0.00    +0.000 A 
ATOM      3  C   UNL     1      47.754   6.178  14.219  0.00  0.00    +0.000 A 
ATOM      4  C   UNL     1      47.943   5.681  15.503  0.00  0.00    +0.000 A 
ATOM      5  C   UNL     1      47.432   4.425  15.803  0.00  0.00    +0.000 A 
ATOM      6  N   UNL     1      46.802   3.627  14.895  0.00  0.00    +0.000 NA
ATOM      7  C   UNL     1      46.634   4.145  13.654  0.00  0.00    +0.000 A 
BRANCH   5   8
ATOM      8  C   UNL     1      47.493   3.938  17.220  0.00  0.00    +0.000 C 
ATOM      9  O   UNL     1      46.805   2.992  17.590  0.00  0.00    +0.000 OA
ATOM     10  N   UNL     1      48.381   4.602  18.030  0.00  0.00    +0.000 N 
ATOM     11  H   UNL     1      48.894   5.386  17.639  0.00  0.00    +0.000 HD
BRANCH  10  12
ATOM     12  C   UNL     1      48.601   4.237  19.409  0.00  0.00    +0.000 C 
BRANCH  12  13
ATOM     13  C   UNL     1      49.480   5.254  20.049  0.00  0.00    +0.000 A 
ATOM     14  C   UNL     1      50.765   5.106  20.532  0.00  0.00    +0.000 A 
ATOM     15  N   UNL     1      51.123   6.341  20.994  0.00  0.00    +0.000 N 
ATOM     16  C   UNL     1      50.067   7.181  20.785  0.00  0.00    +0.000 A 
ATOM     17  N   UNL     1      49.057   6.556  20.224  0.00  0.00    +0.000 NA
ATOM     18  H   UNL     1      52.008   6.594  21.410  0.00  0.00    +0.000 HD
ENDBRANCH  12  13
ENDBRANCH  10  12
ENDBRANCH   5   8
ENDBRANCH   1   2
BRANCH   1  19
ATOM     19  N   UNL     1      45.341   6.724  11.870  0.00  0.00    +0.000 N 
ATOM     20  C   UNL     1      44.166   6.077  11.431  0.00  0.00    +0.000 C 
ATOM     21  O   UNL     1      43.103   6.684  11.331  0.00  0.00    +0.000 OA
BRANCH  20  22
ATOM     22  C   UNL     1      44.214   4.642  11.109  0.00  0.00    +0.000 A 
ATOM     23  C   UNL     1      43.578   3.599  11.781  0.00  0.00    +0.000 A 
ATOM     24  N   UNL     1      43.838   2.418  11.130  0.00  0.00    +0.000 N 
ATOM     25  C   UNL     1      44.546   2.685  10.001  0.00  0.00    +0.000 A 
ATOM     26  N   UNL     1      44.879   1.735   9.097  0.00  0.00    +0.000 NA
ATOM     27  C   UNL     1      45.512   2.223   8.073  0.00  0.00    +0.000 A 
ATOM     28  N   UNL     1      45.850   3.549   7.907  0.00  0.00    +0.000 N 
ATOM     29  C   UNL     1      45.592   4.528   8.853  0.00  0.00    +0.000 A 
ATOM     30  O   UNL     1      46.042   5.661   8.744  0.00  0.00    +0.000 OA
ATOM     31  C   UNL     1      44.816   4.035   9.967  0.00  0.00    +0.000 A 
ATOM     32  H   UNL     1      43.519   1.498  11.400  0.00  0.00    +0.000 HD
ATOM     33  H   UNL     1      46.389   3.847   7.111  0.00  0.00    +0.000 HD
ENDBRANCH  20  22
BRANCH  19  35
ATOM     34  C   UNL     1      46.482   8.912  12.113  0.00  0.00    +0.000 C 
ATOM     35  C   UNL     1      45.205   8.111  12.324  0.00  0.00    +0.000 C 
ENDBRANCH  19  35
ENDBRANCH   1  19
TORSDOF 7
ENDMDL
MODEL 3
REMARK VINA RESULT:    -7.496      2.807      8.557
REMARK INTER + INTRA:         -11.786
REMARK INTER:                 -10.464
REMARK INTRA:                  -1.323
REMARK UNBOUND:                -1.223
REMARK  Name = 
REMARK  8 active torsions:
REMARK  status: ('A' for Active; 'I' for Inactive)
REMARK    1  A    between atoms: C_1  and  C_2
REMARK    2  A    between atoms: C_2  and  N_3
REMARK    3  A    between atoms: N_3  and  C_4
REMARK    4  A    between atoms: C_4  and  C_5
REMARK    5  A    between atoms: C_8  and  C_9
REMARK    6  A    between atoms: N_11  and  C_12
REMARK    7  A    between atoms: C_12  and  C_13
REMARK    8  A    between atoms: C_20  and  C_22
REMARK                            x       y       z     vdW  Elec       q    Type
REMARK                         _______ _______ _______ _____ _____    ______ ____
ROOT
ATOM      1  C   UNL     1      47.532   7.805  13.994  0.00  0.00    +0.000 C 
ENDROOT
BRANCH   1   2
ATOM      2  C   UNL     1      46.558   6.964  13.219  0.00  0.00    +0.000 A 
ATOM      3  C   UNL     1      45.795   7.529  12.189  0.00  0.00    +0.000 A 
ATOM      4  C   UNL     1      45.080   6.704  11.330  0.00  0.00    +0.000 A 
ATOM      5  C   UNL     1      45.141   5.332  11.534  0.00  0.00    +0.000 A 
ATOM      6  N   UNL     1      45.819   4.749  12.562  0.00  0.00    +0.000 NA
ATOM      7  C   UNL     1      46.506   5.583  13.379  0.00  0.00    +0.000 A 
BRANCH   5   8
ATOM      8  C   UNL     1      44.501   4.422  10.529  0.00  0.00    +0.000 C 
ATOM      9  O   UNL     1      43.518   4.783   9.890  0.00  0.00    +0.000 OA
ATOM     10  N   UNL     1      45.111   3.202  10.371  0.00  0.00    +0.000 N 
ATOM     11  H   UNL     1      45.910   2.984  10.959  0.00  0.00    +0.000 HD
BRANCH  10  12
ATOM     12  C   UNL     1      44.656   2.221   9.415  0.00  0.00    +0.000 C 
BRANCH  12  13
ATOM     13  C   UNL     1      45.688   2.057   8.354  0.00  0.00    +0.000 A 
ATOM     14  C   UNL     1      46.168   2.995   7.462  0.00  0.00    +0.000 A 
ATOM     15  N   UNL     1      47.114   2.342   6.724  0.00  0.00    +0.000 N 
ATOM     16  C   UNL     1      47.176   1.056   7.178  0.00  0.00    +0.000 A 
ATOM     17  N   UNL     1      46.324   0.848   8.156  0.00  0.00    +0.000 NA
ATOM     18  H   UNL     1      47.673   2.735   5.979  0.00  0.00    +0.000 HD
ENDBRANCH  12  13
ENDBRANCH  10  12
ENDBRANCH   5   8
ENDBRANCH   1   2
BRANCH   1  19
ATOM     19  N   UNL     1      48.970   7.633  13.817  0.00  0.00    +0.000 N 
ATOM     20  C   UNL     1      49.869   7.659  14.905  0.00  0.00    +0.000 C 
ATOM     21  O   UNL     1      51.079   7.531  14.735  0.00  0.00    +0.000 OA
BRANCH  20  22
ATOM     22  C   UNL     1      49.342   7.819  16.269  0.00  0.00    +0.000 A 
ATOM     23  C   UNL     1      49.329   8.978  17.044  0.00  0.00    +0.000 A 
ATOM     24  N   UNL     1      48.701   8.716  18.237  0.00  0.00    +0.000 N 
ATOM     25  C   UNL     1      48.225   7.443  18.213  0.00  0.00    +0.000 A 
ATOM     26  N   UNL     1      47.479   6.916  19.210  0.00  0.00    +0.000 NA
ATOM     27  C   UNL     1      47.091   5.703  18.954  0.00  0.00    +0.000 A 
ATOM     28  N   UNL     1      47.410   4.992  17.818  0.00  0.00    +0.000 N 
ATOM     29  C   UNL     1      48.237   5.478  16.817  0.00  0.00    +0.000 A 
ATOM     30  O   UNL     1      48.625   4.766  15.901  0.00  0.00    +0.000 OA
ATOM     31  C   UNL     1      48.620   6.855  17.032  0.00  0.00    +0.000 A 
ATOM     32  H   UNL     1      48.560   9.365  18.999  0.00  0.00    +0.000 HD
ATOM     33  H   UNL     1      47.119   4.035  17.710  0.00  0.00    +0.000 HD
ENDBRANCH  20  22
BRANCH  19  35
ATOM     34  C   UNL     1      49.470   8.504  11.550  0.00  0.00    +0.000 C 
ATOM     35  C   UNL     1      49.529   7.316  12.500  0.00  0.00    +0.000 C 
ENDBRANCH  19  35
ENDBRANCH   1  19
TORSDOF 7
ENDMDL
MODEL 4
REMARK VINA RESULT:    -7.178      1.771      8.336
REMARK INTER + INTRA:         -11.339
REMARK INTER:                 -10.200
REMARK INTRA:                  -1.139
REMARK UNBOUND:                -1.223
REMARK  Name = 
REMARK  8 active torsions:
REMARK  status: ('A' for Active; 'I' for Inactive)
REMARK    1  A    between atoms: C_1  and  C_2
REMARK    2  A    between atoms: C_2  and  N_3
REMARK    3  A    between atoms: N_3  and  C_4
REMARK    4  A    between atoms: C_4  and  C_5
REMARK    5  A    between atoms: C_8  and  C_9
REMARK    6  A    between atoms: N_11  and  C_12
REMARK    7  A    between atoms: C_12  and  C_13
REMARK    8  A    between atoms: C_20  and  C_22
REMARK                            x       y       z     vdW  Elec       q    Type
REMARK                         _______ _______ _______ _____ _____    ______ ____
ROOT
ATOM      1  C   UNL     1      48.765   6.430  14.932  0.00  0.00    +0.000 C 
ENDROOT
BRANCH   1   2
ATOM      2  C   UNL     1      47.602   6.043  14.063  0.00  0.00    +0.000 A 
ATOM      3  C   UNL     1      47.146   6.908  13.060  0.00  0.00    +0.000 A 
ATOM      4  C   UNL     1      46.236   6.448  12.116  0.00  0.00    +0.000 A 
ATOM      5  C   UNL     1      45.799   5.134  12.210  0.00  0.00    +0.000 A 
ATOM      6  N   UNL     1      46.169   4.282  13.208  0.00  0.00    +0.000 NA
ATOM      7  C   UNL     1      47.059   4.763  14.109  0.00  0.00    +0.000 A 
BRANCH   5   8
ATOM      8  C   UNL     1      44.937   4.578  11.117  0.00  0.00    +0.000 C 
ATOM      9  O   UNL     1      44.041   5.251  10.619  0.00  0.00    +0.000 OA
ATOM     10  N   UNL     1      45.251   3.303  10.714  0.00  0.00    +0.000 N 
ATOM     11  H   UNL     1      45.999   2.817  11.199  0.00  0.00    +0.000 HD
BRANCH  10  12
ATOM     12  C   UNL     1      44.554   2.631   9.643  0.00  0.00    +0.000 C 
BRANCH  12  13
ATOM     13  C   UNL     1      45.512   2.349   8.539  0.00  0.00    +0.000 A 
ATOM     14  C   UNL     1      45.978   3.203   7.559  0.00  0.00    +0.000 A 
ATOM     15  N   UNL     1      46.849   2.460   6.814  0.00  0.00    +0.000 N 
ATOM     16  C   UNL     1      46.881   1.204   7.349  0.00  0.00    +0.000 A 
ATOM     17  N   UNL     1      46.081   1.101   8.386  0.00  0.00    +0.000 NA
ATOM     18  H   UNL     1      47.378   2.777   6.014  0.00  0.00    +0.000 HD
ENDBRANCH  12  13
ENDBRANCH  10  12
ENDBRANCH   5   8
ENDBRANCH   1   2
BRANCH   1  19
ATOM     19  N   UNL     1      48.551   7.142  16.187  0.00  0.00    +0.000 N 
ATOM     20  C   UNL     1      48.367   6.465  17.412  0.00  0.00    +0.000 C 
ATOM     21  O   UNL     1      48.170   7.081  18.458  0.00  0.00    +0.000 OA
BRANCH  20  22
ATOM     22  C   UNL     1      48.435   4.996  17.439  0.00  0.00    +0.000 A 
ATOM     23  C   UNL     1      47.380   4.094  17.319  0.00  0.00    +0.000 A 
ATOM     24  N   UNL     1      47.875   2.813  17.344  0.00  0.00    +0.000 N 
ATOM     25  C   UNL     1      49.233   2.868  17.380  0.00  0.00    +0.000 A 
ATOM     26  N   UNL     1      50.017   1.767  17.321  0.00  0.00    +0.000 NA
ATOM     27  C   UNL     1      51.283   2.058  17.321  0.00  0.00    +0.000 A 
ATOM     28  N   UNL     1      51.805   3.331  17.402  0.00  0.00    +0.000 N 
ATOM     29  C   UNL     1      51.027   4.469  17.543  0.00  0.00    +0.000 A 
ATOM     30  O   UNL     1      51.525   5.565  17.768  0.00  0.00    +0.000 OA
ATOM     31  C   UNL     1      49.612   4.190  17.464  0.00  0.00    +0.000 A 
ATOM     32  H   UNL     1      47.338   1.958  17.291  0.00  0.00    +0.000 HD
ATOM     33  H   UNL     1      52.799   3.478  17.451  0.00  0.00    +0.000 HD
ENDBRANCH  20  22
BRANCH  19  35
ATOM     34  C   UNL     1      49.488   9.176  15.124  0.00  0.00    +0.000 C 
ATOM     35  C   UNL     1      48.628   8.605  16.242  0.00  0.00    +0.000 C 
ENDBRANCH  19  35
ENDBRANCH   1  19
TORSDOF 7
ENDMDL
MODEL 5
REMARK VINA RESULT:    -6.933      1.961      8.282
REMARK INTER + INTRA:         -10.994
REMARK INTER:                  -9.838
REMARK INTRA:                  -1.156
REMARK UNBOUND:                -1.223
REMARK  Name = 
REMARK  8 active torsions:
REMARK  status: ('A' for Active; 'I' for Inactive)
REMARK    1  A    between atoms: C_1  and  C_2
REMARK    2  A    between atoms: C_2  and  N_3
REMARK    3  A    between atoms: N_3  and  C_4
REMARK    4  A    between atoms: C_4  and  C_5
REMARK    5  A    between atoms: C_8  and  C_9
REMARK    6  A    between atoms: N_11  and  C_12
REMARK    7  A    between atoms: C_12  and  C_13
REMARK    8  A    between atoms: C_20  and  C_22
REMARK                            x       y       z     vdW  Elec       q    Type
REMARK                         _______ _______ _______ _____ _____    ______ ____
ROOT
ATOM      1  C   UNL     1      49.410   7.042  16.041  0.00  0.00    +0.000 C 
ENDROOT
BRANCH   1   2
ATOM      2  C   UNL     1      48.555   6.971  14.807  0.00  0.00    +0.000 A 
ATOM      3  C   UNL     1      48.264   5.736  14.215  0.00  0.00    +0.000 A 
ATOM      4  C   UNL     1      47.290   5.658  13.227  0.00  0.00    +0.000 A 
ATOM      5  C   UNL     1      46.642   6.827  12.850  0.00  0.00    +0.000 A 
ATOM      6  N   UNL     1      46.942   8.056  13.356  0.00  0.00    +0.000 NA
ATOM      7  C   UNL     1      47.895   8.094  14.318  0.00  0.00    +0.000 A 
BRANCH   5   8
ATOM      8  C   UNL     1      45.488   6.739  11.897  0.00  0.00    +0.000 C 
ATOM      9  O   UNL     1      44.981   7.753  11.429  0.00  0.00    +0.000 OA
ATOM     10  N   UNL     1      45.084   5.466  11.581  0.00  0.00    +0.000 N 
ATOM     11  H   UNL     1      45.554   4.687  12.033  0.00  0.00    +0.000 HD
BRANCH  10  12
ATOM     12  C   UNL     1      44.019   5.195  10.645  0.00  0.00    +0.000 C 
BRANCH  12  13
ATOM     13  C   UNL     1      44.453   4.124   9.708  0.00  0.00    +0.000 A 
ATOM     14  C   UNL     1      44.454   2.756   9.897  0.00  0.00    +0.000 A 
ATOM     15  N   UNL     1      44.924   2.228   8.728  0.00  0.00    +0.000 N 
ATOM     16  C   UNL     1      45.193   3.267   7.885  0.00  0.00    +0.000 A 
ATOM     17  N   UNL     1      44.927   4.425   8.446  0.00  0.00    +0.000 NA
ATOM     18  H   UNL     1      45.049   1.247   8.519  0.00  0.00    +0.000 HD
ENDBRANCH  12  13
ENDBRANCH  10  12
ENDBRANCH   5   8
ENDBRANCH   1   2
BRANCH   1  19
ATOM     19  N   UNL     1      48.816   7.326  17.342  0.00  0.00    +0.000 N 
ATOM     20  C   UNL     1      48.195   6.325  18.120  0.00  0.00    +0.000 C 
ATOM     21  O   UNL     1      47.684   6.586  19.206  0.00  0.00    +0.000 OA
BRANCH  20  22
ATOM     22  C   UNL     1      48.181   4.939  17.627  0.00  0.00    +0.000 A 
ATOM     23  C   UNL     1      47.131   4.270  17.002  0.00  0.00    +0.000 A 
ATOM     24  N   UNL     1      47.543   3.007  16.652  0.00  0.00    +0.000 N 
ATOM     25  C   UNL     1      48.863   2.878  16.951  0.00  0.00    +0.000 A 
ATOM     26  N   UNL     1      49.585   1.776  16.643  0.00  0.00    +0.000 NA
ATOM     27  C   UNL     1      50.834   1.890  16.977  0.00  0.00    +0.000 A 
ATOM     28  N   UNL     1      51.392   2.984  17.603  0.00  0.00    +0.000 N 
ATOM     29  C   UNL     1      50.660   4.093  18.002  0.00  0.00    +0.000 A 
ATOM     30  O   UNL     1      51.154   4.974  18.692  0.00  0.00    +0.000 OA
ATOM     31  C   UNL     1      49.282   4.034  17.572  0.00  0.00    +0.000 A 
ATOM     32  H   UNL     1      46.988   2.295  16.199  0.00  0.00    +0.000 HD
ATOM     33  H   UNL     1      52.359   2.982  17.881  0.00  0.00    +0.000 HD
ENDBRANCH  20  22
BRANCH  19  35
ATOM     34  C   UNL     1      47.903   9.630  17.405  0.00  0.00    +0.000 C 
ATOM     35  C   UNL     1      48.938   8.656  17.947  0.00  0.00    +0.000 C 
ENDBRANCH  19  35
ENDBRANCH   1  19
TORSDOF 7
ENDMDL
MODEL 6
REMARK VINA RESULT:    -6.797      1.401      2.317
REMARK INTER + INTRA:         -10.802
REMARK INTER:                  -9.399
REMARK INTRA:                  -1.403
REMARK UNBOUND:                -1.223
REMARK  Name = 
REMARK  8 active torsions:
REMARK  status: ('A' for Active; 'I' for Inactive)
REMARK    1  A    between atoms: C_1  and  C_2
REMARK    2  A    between atoms: C_2  and  N_3
REMARK    3  A    between atoms: N_3  and  C_4
REMARK    4  A    between atoms: C_4  and  C_5
REMARK    5  A    between atoms: C_8  and  C_9
REMARK    6  A    between atoms: N_11  and  C_12
REMARK    7  A    between atoms: C_12  and  C_13
REMARK    8  A    between atoms: C_20  and  C_22
REMARK                            x       y       z     vdW  Elec       q    Type
REMARK                         _______ _______ _______ _____ _____    ______ ____
ROOT
ATOM      1  C   UNL     1      47.263   6.551  12.446  0.00  0.00    +0.000 C 
ENDROOT
BRANCH   1   2
ATOM      2  C   UNL     1      47.568   6.086  13.842  0.00  0.00    +0.000 A 
ATOM      3  C   UNL     1      46.942   4.947  14.364  0.00  0.00    +0.000 A 
ATOM      4  C   UNL     1      47.401   4.393  15.553  0.00  0.00    +0.000 A 
ATOM      5  C   UNL     1      48.470   5.006  16.194  0.00  0.00    +0.000 A 
ATOM      6  N   UNL     1      49.062   6.151  15.753  0.00  0.00    +0.000 NA
ATOM      7  C   UNL     1      48.590   6.662  14.589  0.00  0.00    +0.000 A 
BRANCH   5   8
ATOM      8  C   UNL     1      49.072   4.338  17.393  0.00  0.00    +0.000 C 
ATOM      9  O   UNL     1      48.397   3.611  18.114  0.00  0.00    +0.000 OA
ATOM     10  N   UNL     1      50.410   4.580  17.588  0.00  0.00    +0.000 N 
ATOM     11  H   UNL     1      50.882   5.212  16.948  0.00  0.00    +0.000 HD
BRANCH  10  12
ATOM     12  C   UNL     1      51.161   3.982  18.666  0.00  0.00    +0.000 C 
BRANCH  12  13
ATOM     13  C   UNL     1      51.995   2.874  18.124  0.00  0.00    +0.000 A 
ATOM     14  C   UNL     1      53.369   2.799  18.015  0.00  0.00    +0.000 A 
ATOM     15  N   UNL     1      53.623   1.569  17.477  0.00  0.00    +0.000 N 
ATOM     16  C   UNL     1      52.423   0.950  17.277  0.00  0.00    +0.000 A 
ATOM     17  N   UNL     1      51.420   1.712  17.650  0.00  0.00    +0.000 NA
ATOM     18  H   UNL     1      54.533   1.181  17.267  0.00  0.00    +0.000 HD
ENDBRANCH  12  13
ENDBRANCH  10  12
ENDBRANCH   5   8
ENDBRANCH   1   2
BRANCH   1  19
ATOM     19  N   UNL     1      46.242   7.564  12.205  0.00  0.00    +0.000 N 
ATOM     20  C   UNL     1      45.117   7.317  11.389  0.00  0.00    +0.000 C 
ATOM     21  O   UNL     1      44.275   8.189  11.182  0.00  0.00    +0.000 OA
BRANCH  20  22
ATOM     22  C   UNL     1      44.939   5.983  10.795  0.00  0.00    +0.000 A 
ATOM     23  C   UNL     1      45.487   5.503   9.606  0.00  0.00    +0.000 A 
ATOM     24  N   UNL     1      45.117   4.191   9.437  0.00  0.00    +0.000 N 
ATOM     25  C   UNL     1      44.425   3.784  10.533  0.00  0.00    +0.000 A 
ATOM     26  N   UNL     1      44.001   2.512  10.708  0.00  0.00    +0.000 NA
ATOM     27  C   UNL     1      43.404   2.338  11.848  0.00  0.00    +0.000 A 
ATOM     28  N   UNL     1      43.184   3.323  12.787  0.00  0.00    +0.000 N 
ATOM     29  C   UNL     1      43.536   4.651  12.600  0.00  0.00    +0.000 A 
ATOM     30  O   UNL     1      43.187   5.525  13.382  0.00  0.00    +0.000 OA
ATOM     31  C   UNL     1      44.275   4.863  11.377  0.00  0.00    +0.000 A 
ATOM     32  H   UNL     1      45.356   3.594   8.657  0.00  0.00    +0.000 HD
ATOM     33  H   UNL     1      42.666   3.128  13.627  0.00  0.00    +0.000 HD
ENDBRANCH  20  22
BRANCH  19  35
ATOM     34  C   UNL     1      47.420   9.738  12.385  0.00  0.00    +0.000 C 
ATOM     35  C   UNL     1      46.290   8.856  12.896  0.00  0.00    +0.000 C 
ENDBRANCH  19  35
ENDBRANCH   1  19
TORSDOF 7
ENDMDL
MODEL 7
REMARK VINA RESULT:    -6.564      3.058      8.685
REMARK INTER + INTRA:         -10.474
REMARK INTER:                  -9.300
REMARK INTRA:                  -1.174
REMARK UNBOUND:                -1.223
REMARK  Name = 
REMARK  8 active torsions:
REMARK  status: ('A' for Active; 'I' for Inactive)
REMARK    1  A    between atoms: C_1  and  C_2
REMARK    2  A    between atoms: C_2  and  N_3
REMARK    3  A    between atoms: N_3  and  C_4
REMARK    4  A    between atoms: C_4  and  C_5
REMARK    5  A    between atoms: C_8  and  C_9
REMARK    6  A    between atoms: N_11  and  C_12
REMARK    7  A    between atoms: C_12  and  C_13
REMARK    8  A    between atoms: C_20  and  C_22
REMARK                            x       y       z     vdW  Elec       q    Type
REMARK                         _______ _______ _______ _____ _____    ______ ____
ROOT
ATOM      1  C   UNL     1      47.885   8.795  14.140  0.00  0.00    +0.000 C 
ENDROOT
BRANCH   1   2
ATOM      2  C   UNL     1      47.100   8.107  13.059  0.00  0.00    +0.000 A 
ATOM      3  C   UNL     1      47.725   7.198  12.197  0.00  0.00    +0.000 A 
ATOM      4  C   UNL     1      46.953   6.397  11.364  0.00  0.00    +0.000 A 
ATOM      5  C   UNL     1      45.572   6.539  11.411  0.00  0.00    +0.000 A 
ATOM      6  N   UNL     1      44.931   7.456  12.188  0.00  0.00    +0.000 NA
ATOM      7  C   UNL     1      45.715   8.219  12.988  0.00  0.00    +0.000 A 
BRANCH   5   8
ATOM      8  C   UNL     1      44.720   5.582  10.633  0.00  0.00    +0.000 C 
ATOM      9  O   UNL     1      43.550   5.385  10.945  0.00  0.00    +0.000 OA
ATOM     10  N   UNL     1      45.335   4.990   9.557  0.00  0.00    +0.000 N 
ATOM     11  H   UNL     1      46.314   5.201   9.388  0.00  0.00    +0.000 HD
BRANCH  10  12
ATOM     12  C   UNL     1      44.651   4.078   8.673  0.00  0.00    +0.000 C 
BRANCH  12  13
ATOM     13  C   UNL     1      45.645   3.157   8.056  0.00  0.00    +0.000 A 
ATOM     14  C   UNL     1      46.545   3.411   7.041  0.00  0.00    +0.000 A 
ATOM     15  N   UNL     1      47.236   2.245   6.868  0.00  0.00    +0.000 N 
ATOM     16  C   UNL     1      46.743   1.338   7.761  0.00  0.00    +0.000 A 
ATOM     17  N   UNL     1      45.777   1.853   8.488  0.00  0.00    +0.000 NA
ATOM     18  H   UNL     1      47.981   2.080   6.205  0.00  0.00    +0.000 HD
ENDBRANCH  12  13
ENDBRANCH  10  12
ENDBRANCH   5   8
ENDBRANCH   1   2
BRANCH   1  19
ATOM     19  N   UNL     1      49.323   8.586  14.264  0.00  0.00    +0.000 N 
ATOM     20  C   UNL     1      49.870   7.641  15.159  0.00  0.00    +0.000 C 
ATOM     21  O   UNL     1      51.085   7.491  15.263  0.00  0.00    +0.000 OA
BRANCH  20  22
ATOM     22  C   UNL     1      48.965   6.806  15.964  0.00  0.00    +0.000 A 
ATOM     23  C   UNL     1      48.297   5.649  15.566  0.00  0.00    +0.000 A 
ATOM     24  N   UNL     1      47.594   5.144  16.633  0.00  0.00    +0.000 N 
ATOM     25  C   UNL     1      47.867   5.893  17.733  0.00  0.00    +0.000 A 
ATOM     26  N   UNL     1      47.395   5.594  18.965  0.00  0.00    +0.000 NA
ATOM     27  C   UNL     1      47.822   6.416  19.875  0.00  0.00    +0.000 A 
ATOM     28  N   UNL     1      48.641   7.500  19.643  0.00  0.00    +0.000 N 
ATOM     29  C   UNL     1      49.075   7.876  18.382  0.00  0.00    +0.000 A 
ATOM     30  O   UNL     1      49.670   8.929  18.193  0.00  0.00    +0.000 OA
ATOM     31  C   UNL     1      48.685   6.936  17.357  0.00  0.00    +0.000 A 
ATOM     32  H   UNL     1      47.006   4.322  16.632  0.00  0.00    +0.000 HD
ATOM     33  H   UNL     1      48.890   8.127  20.390  0.00  0.00    +0.000 HD
ENDBRANCH  20  22
BRANCH  19  35
ATOM     34  C   UNL     1      49.737  10.641  12.942  0.00  0.00    +0.000 C 
ATOM     35  C   UNL     1      50.260   9.280  13.376  0.00  0.00    +0.000 C 
ENDBRANCH  19  35
ENDBRANCH   1  19
TORSDOF 7
ENDMDL
MODEL 8
REMARK VINA RESULT:    -6.526      2.354      8.233
REMARK INTER + INTRA:         -10.420
REMARK INTER:                  -8.813
REMARK INTRA:                  -1.606
REMARK UNBOUND:                -1.223
REMARK  Name = 
REMARK  8 active torsions:
REMARK  status: ('A' for Active; 'I' for Inactive)
REMARK    1  A    between atoms: C_1  and  C_2
REMARK    2  A    between atoms: C_2  and  N_3
REMARK    3  A    between atoms: N_3  and  C_4
REMARK    4  A    between atoms: C_4  and  C_5
REMARK    5  A    between atoms: C_8  and  C_9
REMARK    6  A    between atoms: N_11  and  C_12
REMARK    7  A    between atoms: C_12  and  C_13
REMARK    8  A    between atoms: C_20  and  C_22
REMARK                            x       y       z     vdW  Elec       q    Type
REMARK                         _______ _______ _______ _____ _____    ______ ____
ROOT
ATOM      1  C   UNL     1      49.213   8.092  17.116  0.00  0.00    +0.000 C 
ENDROOT
BRANCH   1   2
ATOM      2  C   UNL     1      48.657   7.919  15.731  0.00  0.00    +0.000 A 
ATOM      3  C   UNL     1      48.713   6.674  15.093  0.00  0.00    +0.000 A 
ATOM      4  C   UNL     1      47.993   6.466  13.923  0.00  0.00    +0.000 A 
ATOM      5  C   UNL     1      47.243   7.520  13.418  0.00  0.00    +0.000 A 
ATOM      6  N   UNL     1      47.215   8.764  13.973  0.00  0.00    +0.000 NA
ATOM      7  C   UNL     1      47.927   8.930  15.113  0.00  0.00    +0.000 A 
BRANCH   5   8
ATOM      8  C   UNL     1      46.343   7.270  12.245  0.00  0.00    +0.000 C 
ATOM      9  O   UNL     1      45.708   8.186  11.733  0.00  0.00    +0.000 OA
ATOM     10  N   UNL     1      46.319   5.975  11.789  0.00  0.00    +0.000 N 
ATOM     11  H   UNL     1      46.866   5.280  12.289  0.00  0.00    +0.000 HD
BRANCH  10  12
ATOM     12  C   UNL     1      45.544   5.566  10.642  0.00  0.00    +0.000 C 
BRANCH  12  13
ATOM     13  C   UNL     1      44.768   4.344  10.989  0.00  0.00    +0.000 A 
ATOM     14  C   UNL     1      44.429   3.276  10.182  0.00  0.00    +0.000 A 
ATOM     15  N   UNL     1      43.738   2.417  10.988  0.00  0.00    +0.000 N 
ATOM     16  C   UNL     1      43.676   2.978  12.231  0.00  0.00    +0.000 A 
ATOM     17  N   UNL     1      44.280   4.144  12.265  0.00  0.00    +0.000 NA
ATOM     18  H   UNL     1      43.346   1.525  10.720  0.00  0.00    +0.000 HD
ENDBRANCH  12  13
ENDBRANCH  10  12
ENDBRANCH   5   8
ENDBRANCH   1   2
BRANCH   1  19
ATOM     19  N   UNL     1      48.396   7.800  18.288  0.00  0.00    +0.000 N 
ATOM     20  C   UNL     1      48.470   6.566  18.967  0.00  0.00    +0.000 C 
ATOM     21  O   UNL     1      47.760   6.330  19.943  0.00  0.00    +0.000 OA
BRANCH  20  22
ATOM     22  C   UNL     1      49.432   5.550  18.510  0.00  0.00    +0.000 A 
ATOM     23  C   UNL     1      50.791   5.471  18.810  0.00  0.00    +0.000 A 
ATOM     24  N   UNL     1      51.317   4.345  18.227  0.00  0.00    +0.000 N 
ATOM     25  C   UNL     1      50.312   3.644  17.638  0.00  0.00    +0.000 A 
ATOM     26  N   UNL     1      50.497   2.439  17.055  0.00  0.00    +0.000 NA
ATOM     27  C   UNL     1      49.392   1.930  16.600  0.00  0.00    +0.000 A 
ATOM     28  N   UNL     1      48.156   2.537  16.662  0.00  0.00    +0.000 N 
ATOM     29  C   UNL     1      47.951   3.805  17.182  0.00  0.00    +0.000 A 
ATOM     30  O   UNL     1      46.873   4.376  17.080  0.00  0.00    +0.000 OA
ATOM     31  C   UNL     1      49.146   4.365  17.770  0.00  0.00    +0.000 A 
ATOM     32  H   UNL     1      52.281   4.042  18.263  0.00  0.00    +0.000 HD
ATOM     33  H   UNL     1      47.350   2.107  16.241  0.00  0.00    +0.000 HD
ENDBRANCH  20  22
BRANCH  19  35
ATOM     34  C   UNL     1      48.340   9.934  19.550  0.00  0.00    +0.000 C 
ATOM     35  C   UNL     1      47.536   8.831  18.876  0.00  0.00    +0.000 C 
ENDBRANCH  19  35
ENDBRANCH   1  19
TORSDOF 7
ENDMDL
MODEL 9
REMARK VINA RESULT:    -5.882      2.731      3.783
REMARK INTER + INTRA:          -9.512
REMARK INTER:                  -8.710
REMARK INTRA:                  -0.803
REMARK UNBOUND:                -1.223
REMARK  Name = 
REMARK  8 active torsions:
REMARK  status: ('A' for Active; 'I' for Inactive)
REMARK    1  A    between atoms: C_1  and  C_2
REMARK    2  A    between atoms: C_2  and  N_3
REMARK    3  A    between atoms: N_3  and  C_4
REMARK    4  A    between atoms: C_4  and  C_5
REMARK    5  A    between atoms: C_8  and  C_9
REMARK    6  A    between atoms: N_11  and  C_12
REMARK    7  A    between atoms: C_12  and  C_13
REMARK    8  A    between atoms: C_20  and  C_22
REMARK                            x       y       z     vdW  Elec       q    Type
REMARK                         _______ _______ _______ _____ _____    ______ ____
ROOT
ATOM      1  C   UNL     1      48.165   7.489  15.009  0.00  0.00    +0.000 C 
ENDROOT
BRANCH   1   2
ATOM      2  C   UNL     1      49.102   6.597  15.772  0.00  0.00    +0.000 A 
ATOM      3  C   UNL     1      50.474   6.875  15.811  0.00  0.00    +0.000 A 
ATOM      4  C   UNL     1      51.290   6.190  16.703  0.00  0.00    +0.000 A 
ATOM      5  C   UNL     1      50.709   5.235  17.526  0.00  0.00    +0.000 A 
ATOM      6  N   UNL     1      49.391   4.890  17.472  0.00  0.00    +0.000 NA
ATOM      7  C   UNL     1      48.625   5.579  16.592  0.00  0.00    +0.000 A 
BRANCH   5   8
ATOM      8  C   UNL     1      51.543   4.597  18.595  0.00  0.00    +0.000 C 
ATOM      9  O   UNL     1      51.240   4.707  19.779  0.00  0.00    +0.000 OA
ATOM     10  N   UNL     1      52.621   3.874  18.145  0.00  0.00    +0.000 N 
ATOM     11  H   UNL     1      52.802   3.855  17.147  0.00  0.00    +0.000 HD
BRANCH  10  12
ATOM     12  C   UNL     1      53.504   3.157  19.034  0.00  0.00    +0.000 C 
BRANCH  12  13
ATOM     13  C   UNL     1      53.578   1.734  18.603  0.00  0.00    +0.000 A 
ATOM     14  C   UNL     1      52.826   1.078  17.650  0.00  0.00    +0.000 A 
ATOM     15  N   UNL     1      53.305  -0.201  17.626  0.00  0.00    +0.000 N 
ATOM     16  C   UNL     1      54.310  -0.282  18.548  0.00  0.00    +0.000 A 
ATOM     17  N   UNL     1      54.495   0.865  19.160  0.00  0.00    +0.000 NA
ATOM     18  H   UNL     1      52.983  -0.954  17.033  0.00  0.00    +0.000 HD
ENDBRANCH  12  13
ENDBRANCH  10  12
ENDBRANCH   5   8
ENDBRANCH   1   2
BRANCH   1  19
ATOM     19  N   UNL     1      48.412   7.801  13.605  0.00  0.00    +0.000 N 
ATOM     20  C   UNL     1      47.868   7.028  12.557  0.00  0.00    +0.000 C 
ATOM     21  O   UNL     1      48.101   7.294  11.380  0.00  0.00    +0.000 OA
BRANCH  20  22
ATOM     22  C   UNL     1      46.987   5.895  12.882  0.00  0.00    +0.000 A 
ATOM     23  C   UNL     1      47.334   4.704  13.518  0.00  0.00    +0.000 A 
ATOM     24  N   UNL     1      46.209   3.932  13.677  0.00  0.00    +0.000 N 
ATOM     25  C   UNL     1      45.129   4.636  13.247  0.00  0.00    +0.000 A 
ATOM     26  N   UNL     1      43.860   4.181  13.357  0.00  0.00    +0.000 NA
ATOM     27  C   UNL     1      42.985   5.038  12.926  0.00  0.00    +0.000 A 
ATOM     28  N   UNL     1      43.281   6.271  12.385  0.00  0.00    +0.000 N 
ATOM     29  C   UNL     1      44.574   6.729  12.188  0.00  0.00    +0.000 A 
ATOM     30  O   UNL     1      44.804   7.757  11.563  0.00  0.00    +0.000 OA
ATOM     31  C   UNL     1      45.570   5.835  12.730  0.00  0.00    +0.000 A 
ATOM     32  H   UNL     1      46.163   3.012  14.093  0.00  0.00    +0.000 HD
ATOM     33  H   UNL     1      42.552   6.863  12.022  0.00  0.00    +0.000 HD
ENDBRANCH  20  22
BRANCH  19  35
ATOM     34  C   UNL     1      48.743  10.217  14.050  0.00  0.00    +0.000 C 
ATOM     35  C   UNL     1      49.153   9.007  13.225  0.00  0.00    +0.000 C 
ENDBRANCH  19  35
ENDBRANCH   1  19
TORSDOF 7
ENDMDL
