MODEL 1
REMARK VINA RESULT:    -7.956      0.000      0.000
REMARK INTER + INTRA:         -11.812
REMARK INTER:                 -10.746
REMARK INTRA:                  -1.066
REMARK UNBOUND:                -1.066
REMARK  Name = 
REMARK  9 active torsions:
REMARK  status: ('A' for Active; 'I' for Inactive)
REMARK    1  A    between atoms: C_1  and  O_2
REMARK    2  A    between atoms: O_2  and  C_3
REMARK    3  A    between atoms: C_6  and  O_7
REMARK    4  A    between atoms: O_7  and  C_8
REMARK    5  A    between atoms: C_8  and  C_9
REMARK    6  A    between atoms: C_9  and  C_10
REMARK    7  A    between atoms: C_9  and  C_11
REMARK    8  A    between atoms: C_9  and  C_12
REMARK    9  A    between atoms: C_15  and  C_16
REMARK                            x       y       z     vdW  Elec       q    Type
REMARK                         _______ _______ _______ _____ _____    ______ ____
ROOT
ATOM      1  C   UNL     1      44.140   3.749  11.201  0.00  0.00    +0.000 C 
ATOM      2  C   UNL     1      43.215   2.537  11.463  0.00  0.00    +0.000 C 
ATOM      3  C   UNL     1      43.227   4.997  11.124  0.00  0.00    +0.000 C 
ENDROOT
BRANCH   1   4
ATOM      4  C   UNL     1      44.948   3.499   9.912  0.00  0.00    +0.000 A 
ATOM      5  C   UNL     1      45.430   4.540   9.101  0.00  0.00    +0.000 A 
ATOM      6  C   UNL     1      46.155   4.273   7.929  0.00  0.00    +0.000 A 
ATOM      7  C   UNL     1      46.423   2.957   7.537  0.00  0.00    +0.000 A 
ATOM      8  C   UNL     1      45.953   1.920   8.336  0.00  0.00    +0.000 A 
ATOM      9  F   UNL     1      46.179   0.636   8.017  0.00  0.00    +0.000 F 
ATOM     10  C   UNL     1      45.229   2.182   9.501  0.00  0.00    +0.000 A 
BRANCH   7  11
ATOM     11  C   UNL     1      47.192   2.733   6.286  0.00  0.00    +0.000 C 
ATOM     12  N   UNL     1      48.523   2.450   6.391  0.00  0.00    +0.000 N 
ATOM     13  O   UNL     1      46.656   2.798   5.187  0.00  0.00    +0.000 OA
ATOM     14  H   UNL     1      49.009   2.377   7.275  0.00  0.00    +0.000 HD
ATOM     15  H   UNL     1      49.043   2.290   5.537  0.00  0.00    +0.000 HD
ENDBRANCH   7  11
ENDBRANCH   1   4
BRANCH   1  16
ATOM     16  C   UNL     1      45.121   3.935  12.399  0.00  0.00    +0.000 C 
BRANCH  16  17
ATOM     17  O   UNL     1      45.174   5.313  12.772  0.00  0.00    +0.000 OA
BRANCH  17  21
ATOM     18  C   UNL     1      48.878   7.058  12.686  0.00  0.00    +0.000 A 
ATOM     19  C   UNL     1      48.000   7.434  11.682  0.00  0.00    +0.000 A 
ATOM     20  C   UNL     1      46.721   6.874  11.662  0.00  0.00    +0.000 A 
ATOM     21  C   UNL     1      46.367   5.957  12.645  0.00  0.00    +0.000 A 
ATOM     22  C   UNL     1      47.321   5.648  13.608  0.00  0.00    +0.000 A 
ATOM     23  N   UNL     1      48.565   6.176  13.656  0.00  0.00    +0.000 NA
BRANCH  18  25
ATOM     24  C   UNL     1      50.627   7.792  11.326  0.00  0.00    +0.000 C 
ATOM     25  O   UNL     1      50.136   7.624  12.654  0.00  0.00    +0.000 OA
ENDBRANCH  18  25
ENDBRANCH  17  21
ENDBRANCH  16  17
ENDBRANCH   1  16
TORSDOF 6
ENDMDL
MODEL 2
REMARK VINA RESULT:    -7.932      2.357      6.205
REMARK INTER + INTRA:         -11.779
REMARK INTER:                 -10.833
REMARK INTRA:                  -0.946
REMARK UNBOUND:                -1.066
REMARK  Name = 
REMARK  9 active torsions:
REMARK  status: ('A' for Active; 'I' for Inactive)
REMARK    1  A    between atoms: C_1  and  O_2
REMARK    2  A    between atoms: O_2  and  C_3
REMARK    3  A    between atoms: C_6  and  O_7
REMARK    4  A    between atoms: O_7  and  C_8
REMARK    5  A    between atoms: C_8  and  C_9
REMARK    6  A    between atoms: C_9  and  C_10
REMARK    7  A    between atoms: C_9  and  C_11
REMARK    8  A    between atoms: C_9  and  C_12
REMARK    9  A    between atoms: C_15  and  C_16
REMARK                            x       y       z     vdW  Elec       q    Type
REMARK                         _______ _______ _______ _____ _____    ______ ____
ROOT
ATOM      1  C   UNL     1      43.688   4.588  11.640  0.00  0.00    +0.000 C 
ATOM      2  C   UNL     1      42.527   5.502  12.100  0.00  0.00    +0.000 C 
ATOM      3  C   UNL     1      43.444   3.203  12.286  0.00  0.00    +0.000 C 
ENDROOT
BRANCH   1   4
ATOM      4  C   UNL     1      45.029   5.229  12.049  0.00  0.00    +0.000 A 
ATOM      5  C   UNL     1      45.680   6.198  11.268  0.00  0.00    +0.000 A 
ATOM      6  C   UNL     1      46.905   6.753  11.669  0.00  0.00    +0.000 A 
ATOM      7  C   UNL     1      47.512   6.358  12.866  0.00  0.00    +0.000 A 
ATOM      8  C   UNL     1      46.873   5.401  13.647  0.00  0.00    +0.000 A 
ATOM      9  F   UNL     1      47.402   4.981  14.807  0.00  0.00    +0.000 F 
ATOM     10  C   UNL     1      45.655   4.845  13.250  0.00  0.00    +0.000 A 
BRANCH   7  11
ATOM     11  C   UNL     1      48.810   6.976  13.240  0.00  0.00    +0.000 C 
ATOM     12  N   UNL     1      49.826   6.941  12.330  0.00  0.00    +0.000 N 
ATOM     13  O   UNL     1      48.973   7.505  14.332  0.00  0.00    +0.000 OA
ATOM     14  H   UNL     1      49.737   6.523  11.413  0.00  0.00    +0.000 HD
ATOM     15  H   UNL     1      50.707   7.369  12.585  0.00  0.00    +0.000 HD
ENDBRANCH   7  11
ENDBRANCH   1   4
BRANCH   1  16
ATOM     16  C   UNL     1      43.646   4.420  10.091  0.00  0.00    +0.000 C 
BRANCH  16  17
ATOM     17  O   UNL     1      43.924   3.061   9.744  0.00  0.00    +0.000 OA
BRANCH  17  21
ATOM     18  C   UNL     1      47.028   1.994   7.295  0.00  0.00    +0.000 A 
ATOM     19  C   UNL     1      46.681   3.335   7.295  0.00  0.00    +0.000 A 
ATOM     20  C   UNL     1      45.631   3.759   8.113  0.00  0.00    +0.000 A 
ATOM     21  C   UNL     1      44.965   2.825   8.900  0.00  0.00    +0.000 A 
ATOM     22  C   UNL     1      45.393   1.504   8.827  0.00  0.00    +0.000 A 
ATOM     23  N   UNL     1      46.406   1.064   8.048  0.00  0.00    +0.000 NA
BRANCH  18  25
ATOM     24  C   UNL     1      48.054   2.341   5.228  0.00  0.00    +0.000 C 
ATOM     25  O   UNL     1      48.058   1.619   6.458  0.00  0.00    +0.000 OA
ENDBRANCH  18  25
ENDBRANCH  17  21
ENDBRANCH  16  17
ENDBRANCH   1  16
TORSDOF 6
ENDMDL
MODEL 3
REMARK VINA RESULT:    -7.298      1.698      2.377
REMARK INTER + INTRA:         -10.923
REMARK INTER:                 -10.232
REMARK INTRA:                  -0.691
REMARK UNBOUND:                -1.066
REMARK  Name = 
REMARK  9 active torsions:
REMARK  status: ('A' for Active; 'I' for Inactive)
REMARK    1  A    between atoms: C_1  and  O_2
REMARK    2  A    between atoms: O_2  and  C_3
REMARK    3  A    between atoms: C_6  and  O_7
REMARK    4  A    between atoms: O_7  and  C_8
REMARK    5  A    between atoms: C_8  and  C_9
REMARK    6  A    between atoms: C_9  and  C_10
REMARK    7  A    between atoms: C_9  and  C_11
REMARK    8  A    between atoms: C_9  and  C_12
REMARK    9  A    between atoms: C_15  and  C_16
REMARK                            x       y       z     vdW  Elec       q    Type
REMARK                         _______ _______ _______ _____ _____    ______ ____
ROOT
ATOM      1  C   UNL     1      44.241   4.245  11.321  0.00  0.00    +0.000 C 
ATOM      2  C   UNL     1      43.716   2.961  12.006  0.00  0.00    +0.000 C 
ATOM      3  C   UNL     1      43.009   5.148  11.067  0.00  0.00    +0.000 C 
ENDROOT
BRANCH   1   4
ATOM      4  C   UNL     1      44.996   3.860  10.034  0.00  0.00    +0.000 A 
ATOM      5  C   UNL     1      45.557   4.812   9.166  0.00  0.00    +0.000 A 
ATOM      6  C   UNL     1      46.231   4.424   7.998  0.00  0.00    +0.000 A 
ATOM      7  C   UNL     1      46.366   3.071   7.665  0.00  0.00    +0.000 A 
ATOM      8  C   UNL     1      45.816   2.122   8.520  0.00  0.00    +0.000 A 
ATOM      9  F   UNL     1      45.913   0.809   8.259  0.00  0.00    +0.000 F 
ATOM     10  C   UNL     1      45.143   2.505   9.682  0.00  0.00    +0.000 A 
BRANCH   7  11
ATOM     11  C   UNL     1      47.086   2.717   6.415  0.00  0.00    +0.000 C 
ATOM     12  N   UNL     1      48.436   2.532   6.480  0.00  0.00    +0.000 N 
ATOM     13  O   UNL     1      46.492   2.593   5.351  0.00  0.00    +0.000 OA
ATOM     14  H   UNL     1      48.969   2.615   7.337  0.00  0.00    +0.000 HD
ATOM     15  H   UNL     1      48.923   2.284   5.628  0.00  0.00    +0.000 HD
ENDBRANCH   7  11
ENDBRANCH   1   4
BRANCH   1  16
ATOM     16  C   UNL     1      45.209   4.999  12.283  0.00  0.00    +0.000 C 
BRANCH  16  17
ATOM     17  O   UNL     1      45.752   4.085  13.238  0.00  0.00    +0.000 OA
BRANCH  17  21
ATOM     18  C   UNL     1      48.548   5.805  15.686  0.00  0.00    +0.000 A 
ATOM     19  C   UNL     1      47.868   4.714  16.204  0.00  0.00    +0.000 A 
ATOM     20  C   UNL     1      46.905   4.084  15.413  0.00  0.00    +0.000 A 
ATOM     21  C   UNL     1      46.654   4.570  14.134  0.00  0.00    +0.000 A 
ATOM     22  C   UNL     1      47.392   5.669  13.710  0.00  0.00    +0.000 A 
ATOM     23  N   UNL     1      48.332   6.298  14.450  0.00  0.00    +0.000 NA
BRANCH  18  25
ATOM     24  C   UNL     1      50.086   5.484  17.412  0.00  0.00    +0.000 C 
ATOM     25  O   UNL     1      49.477   6.406  16.510  0.00  0.00    +0.000 OA
ENDBRANCH  18  25
ENDBRANCH  17  21
ENDBRANCH  16  17
ENDBRANCH   1  16
TORSDOF 6
ENDMDL
MODEL 4
REMARK VINA RESULT:    -6.812      1.690      2.052
REMARK INTER + INTRA:         -10.267
REMARK INTER:                  -9.334
REMARK INTRA:                  -0.933
REMARK UNBOUND:                -1.066
REMARK  Name = 
REMARK  9 active torsions:
REMARK  status: ('A' for Active; 'I' for Inactive)
REMARK    1  A    between atoms: C_1  and  O_2
REMARK    2  A    between atoms: O_2  and  C_3
REMARK    3  A    between atoms: C_6  and  O_7
REMARK    4  A    between atoms: O_7  and  C_8
REMARK    5  A    between atoms: C_8  and  C_9
REMARK    6  A    between atoms: C_9  and  C_10
REMARK    7  A    between atoms: C_9  and  C_11
REMARK    8  A    between atoms: C_9  and  C_12
REMARK    9  A    between atoms: C_15  and  C_16
REMARK                            x       y       z     vdW  Elec       q    Type
REMARK                         _______ _______ _______ _____ _____    ______ ____
ROOT
ATOM      1  C   UNL     1      44.093   4.025  11.255  0.00  0.00    +0.000 C 
ATOM      2  C   UNL     1      43.349   2.833  11.903  0.00  0.00    +0.000 C 
ATOM      3  C   UNL     1      43.019   5.088  10.918  0.00  0.00    +0.000 C 
ENDROOT
BRANCH   1   4
ATOM      4  C   UNL     1      44.871   3.527  10.022  0.00  0.00    +0.000 A 
ATOM      5  C   UNL     1      44.884   2.180   9.622  0.00  0.00    +0.000 A 
ATOM      6  C   UNL     1      45.611   1.761   8.498  0.00  0.00    +0.000 A 
ATOM      7  C   UNL     1      46.345   2.678   7.738  0.00  0.00    +0.000 A 
ATOM      8  C   UNL     1      46.336   4.015   8.125  0.00  0.00    +0.000 A 
ATOM      9  F   UNL     1      47.018   4.944   7.436  0.00  0.00    +0.000 F 
ATOM     10  C   UNL     1      45.615   4.434   9.244  0.00  0.00    +0.000 A 
BRANCH   7  11
ATOM     11  C   UNL     1      47.100   2.180   6.560  0.00  0.00    +0.000 C 
ATOM     12  N   UNL     1      46.759   2.657   5.327  0.00  0.00    +0.000 N 
ATOM     13  O   UNL     1      48.005   1.363   6.681  0.00  0.00    +0.000 OA
ATOM     14  H   UNL     1      46.025   3.337   5.178  0.00  0.00    +0.000 HD
ATOM     15  H   UNL     1      47.279   2.320   4.527  0.00  0.00    +0.000 HD
ENDBRANCH   7  11
ENDBRANCH   1   4
BRANCH   1  16
ATOM     16  C   UNL     1      45.090   4.646  12.280  0.00  0.00    +0.000 C 
BRANCH  16  17
ATOM     17  O   UNL     1      44.819   6.041  12.435  0.00  0.00    +0.000 OA
BRANCH  17  21
ATOM     18  C   UNL     1      47.746   8.898  12.238  0.00  0.00    +0.000 A 
ATOM     19  C   UNL     1      48.108   7.623  11.836  0.00  0.00    +0.000 A 
ATOM     20  C   UNL     1      47.150   6.608  11.879  0.00  0.00    +0.000 A 
ATOM     21  C   UNL     1      45.866   6.904  12.324  0.00  0.00    +0.000 A 
ATOM     22  C   UNL     1      45.607   8.216  12.704  0.00  0.00    +0.000 A 
ATOM     23  N   UNL     1      46.511   9.221  12.671  0.00  0.00    +0.000 NA
BRANCH  18  25
ATOM     24  C   UNL     1      50.022   9.320  11.933  0.00  0.00    +0.000 C 
ATOM     25  O   UNL     1      48.730   9.865  12.196  0.00  0.00    +0.000 OA
ENDBRANCH  18  25
ENDBRANCH  17  21
ENDBRANCH  16  17
ENDBRANCH   1  16
TORSDOF 6
ENDMDL
MODEL 5
REMARK VINA RESULT:    -6.140      2.526      6.353
REMARK INTER + INTRA:          -9.359
REMARK INTER:                  -8.652
REMARK INTRA:                  -0.707
REMARK UNBOUND:                -1.066
REMARK  Name = 
REMARK  9 active torsions:
REMARK  status: ('A' for Active; 'I' for Inactive)
REMARK    1  A    between atoms: C_1  and  O_2
REMARK    2  A    between atoms: O_2  and  C_3
REMARK    3  A    between atoms: C_6  and  O_7
REMARK    4  A    between atoms: O_7  and  C_8
REMARK    5  A    between atoms: C_8  and  C_9
REMARK    6  A    between atoms: C_9  and  C_10
REMARK    7  A    between atoms: C_9  and  C_11
REMARK    8  A    between atoms: C_9  and  C_12
REMARK    9  A    between atoms: C_15  and  C_16
REMARK                            x       y       z     vdW  Elec       q    Type
REMARK                         _______ _______ _______ _____ _____    ______ ____
ROOT
ATOM      1  C   UNL     1      43.759   4.828  12.226  0.00  0.00    +0.000 C 
ATOM      2  C   UNL     1      42.664   5.506  11.369  0.00  0.00    +0.000 C 
ATOM      3  C   UNL     1      43.136   4.566  13.618  0.00  0.00    +0.000 C 
ENDROOT
BRANCH   1   4
ATOM      4  C   UNL     1      45.002   5.738  12.271  0.00  0.00    +0.000 A 
ATOM      5  C   UNL     1      46.275   5.272  12.641  0.00  0.00    +0.000 A 
ATOM      6  C   UNL     1      47.383   6.134  12.679  0.00  0.00    +0.000 A 
ATOM      7  C   UNL     1      47.250   7.485  12.343  0.00  0.00    +0.000 A 
ATOM      8  C   UNL     1      45.994   7.955  11.973  0.00  0.00    +0.000 A 
ATOM      9  F   UNL     1      45.801   9.240  11.637  0.00  0.00    +0.000 F 
ATOM     10  C   UNL     1      44.889   7.101  11.936  0.00  0.00    +0.000 A 
BRANCH   7  11
ATOM     11  C   UNL     1      48.454   8.352  12.403  0.00  0.00    +0.000 C 
ATOM     12  N   UNL     1      49.348   8.144  13.413  0.00  0.00    +0.000 N 
ATOM     13  O   UNL     1      48.649   9.232  11.573  0.00  0.00    +0.000 OA
ATOM     14  H   UNL     1      49.235   7.425  14.116  0.00  0.00    +0.000 HD
ATOM     15  H   UNL     1      50.171   8.731  13.448  0.00  0.00    +0.000 HD
ENDBRANCH   7  11
ENDBRANCH   1   4
BRANCH   1  16
ATOM     16  C   UNL     1      44.147   3.454  11.598  0.00  0.00    +0.000 C 
BRANCH  16  17
ATOM     17  O   UNL     1      43.638   3.371  10.265  0.00  0.00    +0.000 OA
BRANCH  17  21
ATOM     18  C   UNL     1      46.229   2.605   7.187  0.00  0.00    +0.000 A 
ATOM     19  C   UNL     1      45.946   1.541   8.028  0.00  0.00    +0.000 A 
ATOM     20  C   UNL     1      45.066   1.742   9.094  0.00  0.00    +0.000 A 
ATOM     21  C   UNL     1      44.504   3.000   9.281  0.00  0.00    +0.000 A 
ATOM     22  C   UNL     1      44.853   3.999   8.380  0.00  0.00    +0.000 A 
ATOM     23  N   UNL     1      45.698   3.835   7.338  0.00  0.00    +0.000 NA
BRANCH  18  25
ATOM     24  C   UNL     1      48.475   2.375   6.595  0.00  0.00    +0.000 C 
ATOM     25  O   UNL     1      47.117   2.364   6.159  0.00  0.00    +0.000 OA
ENDBRANCH  18  25
ENDBRANCH  17  21
ENDBRANCH  16  17
ENDBRANCH   1  16
TORSDOF 6
ENDMDL
MODEL 6
REMARK VINA RESULT:    -5.883      5.453      8.615
REMARK INTER + INTRA:          -9.012
REMARK INTER:                  -8.403
REMARK INTRA:                  -0.608
REMARK UNBOUND:                -1.066
REMARK  Name = 
REMARK  9 active torsions:
REMARK  status: ('A' for Active; 'I' for Inactive)
REMARK    1  A    between atoms: C_1  and  O_2
REMARK    2  A    between atoms: O_2  and  C_3
REMARK    3  A    between atoms: C_6  and  O_7
REMARK    4  A    between atoms: O_7  and  C_8
REMARK    5  A    between atoms: C_8  and  C_9
REMARK    6  A    between atoms: C_9  and  C_10
REMARK    7  A    between atoms: C_9  and  C_11
REMARK    8  A    between atoms: C_9  and  C_12
REMARK    9  A    between atoms: C_15  and  C_16
REMARK                            x       y       z     vdW  Elec       q    Type
REMARK                         _______ _______ _______ _____ _____    ______ ____
ROOT
ATOM      1  C   UNL     1      48.444   5.096  17.171  0.00  0.00    +0.000 C 
ATOM      2  C   UNL     1      49.125   6.459  16.902  0.00  0.00    +0.000 C 
ATOM      3  C   UNL     1      47.590   5.271  18.450  0.00  0.00    +0.000 C 
ENDROOT
BRANCH   1   4
ATOM      4  C   UNL     1      49.527   4.006  17.300  0.00  0.00    +0.000 A 
ATOM      5  C   UNL     1      49.283   2.652  17.017  0.00  0.00    +0.000 A 
ATOM      6  C   UNL     1      50.293   1.686  17.154  0.00  0.00    +0.000 A 
ATOM      7  C   UNL     1      51.577   2.049  17.576  0.00  0.00    +0.000 A 
ATOM      8  C   UNL     1      51.828   3.388  17.856  0.00  0.00    +0.000 A 
ATOM      9  F   UNL     1      53.039   3.800  18.262  0.00  0.00    +0.000 F 
ATOM     10  C   UNL     1      50.825   4.350  17.722  0.00  0.00    +0.000 A 
BRANCH   7  11
ATOM     11  C   UNL     1      52.606   0.986  17.707  0.00  0.00    +0.000 C 
ATOM     12  N   UNL     1      52.278  -0.147  18.395  0.00  0.00    +0.000 N 
ATOM     13  O   UNL     1      53.720   1.112  17.215  0.00  0.00    +0.000 OA
ATOM     14  H   UNL     1      51.369  -0.301  18.811  0.00  0.00    +0.000 HD
ATOM     15  H   UNL     1      52.978  -0.872  18.477  0.00  0.00    +0.000 HD
ENDBRANCH   7  11
ENDBRANCH   1   4
BRANCH   1  16
ATOM     16  C   UNL     1      47.490   4.739  15.991  0.00  0.00    +0.000 C 
BRANCH  16  17
ATOM     17  O   UNL     1      47.943   5.373  14.793  0.00  0.00    +0.000 OA
BRANCH  17  21
ATOM     18  C   UNL     1      45.115   5.340  11.831  0.00  0.00    +0.000 A 
ATOM     19  C   UNL     1      46.201   6.177  11.631  0.00  0.00    +0.000 A 
ATOM     20  C   UNL     1      47.200   6.227  12.607  0.00  0.00    +0.000 A 
ATOM     21  C   UNL     1      47.074   5.442  13.747  0.00  0.00    +0.000 A 
ATOM     22  C   UNL     1      45.946   4.636  13.850  0.00  0.00    +0.000 A 
ATOM     23  N   UNL     1      44.965   4.563  12.922  0.00  0.00    +0.000 NA
BRANCH  18  25
ATOM     24  C   UNL     1      42.837   5.558  11.371  0.00  0.00    +0.000 C 
ATOM     25  O   UNL     1      44.146   5.337  10.849  0.00  0.00    +0.000 OA
ENDBRANCH  18  25
ENDBRANCH  17  21
ENDBRANCH  16  17
ENDBRANCH   1  16
TORSDOF 6
ENDMDL
MODEL 7
REMARK VINA RESULT:    -5.755      3.278      5.191
REMARK INTER + INTRA:          -8.839
REMARK INTER:                  -8.007
REMARK INTRA:                  -0.832
REMARK UNBOUND:                -1.066
REMARK  Name = 
REMARK  9 active torsions:
REMARK  status: ('A' for Active; 'I' for Inactive)
REMARK    1  A    between atoms: C_1  and  O_2
REMARK    2  A    between atoms: O_2  and  C_3
REMARK    3  A    between atoms: C_6  and  O_7
REMARK    4  A    between atoms: O_7  and  C_8
REMARK    5  A    between atoms: C_8  and  C_9
REMARK    6  A    between atoms: C_9  and  C_10
REMARK    7  A    between atoms: C_9  and  C_11
REMARK    8  A    between atoms: C_9  and  C_12
REMARK    9  A    between atoms: C_15  and  C_16
REMARK                            x       y       z     vdW  Elec       q    Type
REMARK                         _______ _______ _______ _____ _____    ______ ____
ROOT
ATOM      1  C   UNL     1      47.146   7.665  12.471  0.00  0.00    +0.000 C 
ATOM      2  C   UNL     1      46.332   8.940  12.142  0.00  0.00    +0.000 C 
ATOM      3  C   UNL     1      48.501   7.802  11.736  0.00  0.00    +0.000 C 
ENDROOT
BRANCH   1   4
ATOM      4  C   UNL     1      46.337   6.425  12.044  0.00  0.00    +0.000 A 
ATOM      5  C   UNL     1      45.417   6.443  10.983  0.00  0.00    +0.000 A 
ATOM      6  C   UNL     1      44.692   5.295  10.628  0.00  0.00    +0.000 A 
ATOM      7  C   UNL     1      44.870   4.093  11.323  0.00  0.00    +0.000 A 
ATOM      8  C   UNL     1      45.782   4.065  12.373  0.00  0.00    +0.000 A 
ATOM      9  F   UNL     1      46.000   2.943  13.077  0.00  0.00    +0.000 F 
ATOM     10  C   UNL     1      46.503   5.206  12.730  0.00  0.00    +0.000 A 
BRANCH   7  11
ATOM     11  C   UNL     1      44.075   2.910  10.907  0.00  0.00    +0.000 C 
ATOM     12  N   UNL     1      44.538   2.154   9.869  0.00  0.00    +0.000 N 
ATOM     13  O   UNL     1      43.030   2.612  11.473  0.00  0.00    +0.000 OA
ATOM     14  H   UNL     1      45.399   2.355   9.376  0.00  0.00    +0.000 HD
ATOM     15  H   UNL     1      43.998   1.344   9.593  0.00  0.00    +0.000 HD
ENDBRANCH   7  11
ENDBRANCH   1   4
BRANCH   1  16
ATOM     16  C   UNL     1      47.426   7.598  14.004  0.00  0.00    +0.000 C 
BRANCH  16  17
ATOM     17  O   UNL     1      48.817   7.815  14.251  0.00  0.00    +0.000 OA
BRANCH  17  21
ATOM     18  C   UNL     1      50.326   5.258  17.071  0.00  0.00    +0.000 A 
ATOM     19  C   UNL     1      51.180   6.256  16.630  0.00  0.00    +0.000 A 
ATOM     20  C   UNL     1      50.719   7.160  15.671  0.00  0.00    +0.000 A 
ATOM     21  C   UNL     1      49.422   7.032  15.186  0.00  0.00    +0.000 A 
ATOM     22  C   UNL     1      48.646   5.996  15.695  0.00  0.00    +0.000 A 
ATOM     23  N   UNL     1      49.062   5.108  16.625  0.00  0.00    +0.000 NA
BRANCH  18  25
ATOM     24  C   UNL     1      50.701   3.016  17.602  0.00  0.00    +0.000 C 
ATOM     25  O   UNL     1      50.831   4.377  18.006  0.00  0.00    +0.000 OA
ENDBRANCH  18  25
ENDBRANCH  17  21
ENDBRANCH  16  17
ENDBRANCH   1  16
TORSDOF 6
ENDMDL
MODEL 8
REMARK VINA RESULT:    -5.648      3.553      7.228
REMARK INTER + INTRA:          -8.695
REMARK INTER:                  -7.888
REMARK INTRA:                  -0.807
REMARK UNBOUND:                -1.066
REMARK  Name = 
REMARK  9 active torsions:
REMARK  status: ('A' for Active; 'I' for Inactive)
REMARK    1  A    between atoms: C_1  and  O_2
REMARK    2  A    between atoms: O_2  and  C_3
REMARK    3  A    between atoms: C_6  and  O_7
REMARK    4  A    between atoms: O_7  and  C_8
REMARK    5  A    between atoms: C_8  and  C_9
REMARK    6  A    between atoms: C_9  and  C_10
REMARK    7  A    between atoms: C_9  and  C_11
REMARK    8  A    between atoms: C_9  and  C_12
REMARK    9  A    between atoms: C_15  and  C_16
REMARK                            x       y       z     vdW  Elec       q    Type
REMARK                         _______ _______ _______ _____ _____    ______ ____
ROOT
ATOM      1  C   UNL     1      48.230   7.905  13.443  0.00  0.00    +0.000 C 
ATOM      2  C   UNL     1      49.054   7.508  12.195  0.00  0.00    +0.000 C 
ATOM      3  C   UNL     1      48.970   9.094  14.103  0.00  0.00    +0.000 C 
ENDROOT
BRANCH   1   4
ATOM      4  C   UNL     1      48.090   6.680  14.368  0.00  0.00    +0.000 A 
ATOM      5  C   UNL     1      48.563   6.667  15.691  0.00  0.00    +0.000 A 
ATOM      6  C   UNL     1      48.425   5.529  16.502  0.00  0.00    +0.000 A 
ATOM      7  C   UNL     1      47.806   4.373  16.013  0.00  0.00    +0.000 A 
ATOM      8  C   UNL     1      47.332   4.379  14.705  0.00  0.00    +0.000 A 
ATOM      9  F   UNL     1      46.726   3.303  14.178  0.00  0.00    +0.000 F 
ATOM     10  C   UNL     1      47.470   5.509  13.896  0.00  0.00    +0.000 A 
BRANCH   7  11
ATOM     11  C   UNL     1      47.690   3.197  16.913  0.00  0.00    +0.000 C 
ATOM     12  N   UNL     1      48.793   2.416  17.099  0.00  0.00    +0.000 N 
ATOM     13  O   UNL     1      46.636   2.928  17.477  0.00  0.00    +0.000 OA
ATOM     14  H   UNL     1      49.686   2.603  16.662  0.00  0.00    +0.000 HD
ATOM     15  H   UNL     1      48.713   1.620  17.718  0.00  0.00    +0.000 HD
ENDBRANCH   7  11
ENDBRANCH   1   4
BRANCH   1  16
ATOM     16  C   UNL     1      46.814   8.391  13.009  0.00  0.00    +0.000 C 
BRANCH  16  17
ATOM     17  O   UNL     1      46.499   7.870  11.717  0.00  0.00    +0.000 OA
BRANCH  17  21
ATOM     18  C   UNL     1      43.873   4.768  11.209  0.00  0.00    +0.000 A 
ATOM     19  C   UNL     1      43.623   5.613  12.278  0.00  0.00    +0.000 A 
ATOM     20  C   UNL     1      44.484   6.691  12.499  0.00  0.00    +0.000 A 
ATOM     21  C   UNL     1      45.564   6.883  11.644  0.00  0.00    +0.000 A 
ATOM     22  C   UNL     1      45.724   5.978  10.601  0.00  0.00    +0.000 A 
ATOM     23  N   UNL     1      44.907   4.929  10.359  0.00  0.00    +0.000 NA
BRANCH  18  25
ATOM     24  C   UNL     1      43.369   2.575  11.827  0.00  0.00    +0.000 C 
ATOM     25  O   UNL     1      43.007   3.708  11.040  0.00  0.00    +0.000 OA
ENDBRANCH  18  25
ENDBRANCH  17  21
ENDBRANCH  16  17
ENDBRANCH   1  16
TORSDOF 6
ENDMDL
MODEL 9
REMARK VINA RESULT:    -5.635      3.696      5.710
REMARK INTER + INTRA:          -8.677
REMARK INTER:                  -7.814
REMARK INTRA:                  -0.863
REMARK UNBOUND:                -1.066
REMARK  Name = 
REMARK  9 active torsions:
REMARK  status: ('A' for Active; 'I' for Inactive)
REMARK    1  A    between atoms: C_1  and  O_2
REMARK    2  A    between atoms: O_2  and  C_3
REMARK    3  A    between atoms: C_6  and  O_7
REMARK    4  A    between atoms: O_7  and  C_8
REMARK    5  A    between atoms: C_8  and  C_9
REMARK    6  A    between atoms: C_9  and  C_10
REMARK    7  A    between atoms: C_9  and  C_11
REMARK    8  A    between atoms: C_9  and  C_12
REMARK    9  A    between atoms: C_15  and  C_16
REMARK                            x       y       z     vdW  Elec       q    Type
REMARK                         _______ _______ _______ _____ _____    ______ ____
ROOT
ATOM      1  C   UNL     1      47.743   7.384  12.904  0.00  0.00    +0.000 C 
ATOM      2  C   UNL     1      46.914   8.466  13.636  0.00  0.00    +0.000 C 
ATOM      3  C   UNL     1      48.503   8.103  11.763  0.00  0.00    +0.000 C 
ENDROOT
BRANCH   1   4
ATOM      4  C   UNL     1      46.798   6.272  12.407  0.00  0.00    +0.000 A 
ATOM      5  C   UNL     1      46.319   5.250  13.243  0.00  0.00    +0.000 A 
ATOM      6  C   UNL     1      45.466   4.248  12.752  0.00  0.00    +0.000 A 
ATOM      7  C   UNL     1      45.065   4.244  11.411  0.00  0.00    +0.000 A 
ATOM      8  C   UNL     1      45.533   5.254  10.578  0.00  0.00    +0.000 A 
ATOM      9  F   UNL     1      45.183   5.307   9.282  0.00  0.00    +0.000 F 
ATOM     10  C   UNL     1      46.383   6.250  11.062  0.00  0.00    +0.000 A 
BRANCH   7  11
ATOM     11  C   UNL     1      44.164   3.159  10.945  0.00  0.00    +0.000 C 
ATOM     12  N   UNL     1      44.639   2.283  10.013  0.00  0.00    +0.000 N 
ATOM     13  O   UNL     1      43.025   3.045  11.380  0.00  0.00    +0.000 OA
ATOM     14  H   UNL     1      45.575   2.331   9.630  0.00  0.00    +0.000 HD
ATOM     15  H   UNL     1      44.025   1.541   9.702  0.00  0.00    +0.000 HD
ENDBRANCH   7  11
ENDBRANCH   1   4
BRANCH   1  16
ATOM     16  C   UNL     1      48.793   6.772  13.881  0.00  0.00    +0.000 C 
BRANCH  16  17
ATOM     17  O   UNL     1      48.646   7.355  15.177  0.00  0.00    +0.000 OA
BRANCH  17  21
ATOM     18  C   UNL     1      48.638   5.120  18.609  0.00  0.00    +0.000 A 
ATOM     19  C   UNL     1      48.302   4.452  17.442  0.00  0.00    +0.000 A 
ATOM     20  C   UNL     1      48.291   5.163  16.240  0.00  0.00    +0.000 A 
ATOM     21  C   UNL     1      48.613   6.515  16.248  0.00  0.00    +0.000 A 
ATOM     22  C   UNL     1      48.936   7.089  17.472  0.00  0.00    +0.000 A 
ATOM     23  N   UNL     1      48.959   6.428  18.651  0.00  0.00    +0.000 NA
BRANCH  18  25
ATOM     24  C   UNL     1      49.387   4.980  20.815  0.00  0.00    +0.000 C 
ATOM     25  O   UNL     1      48.618   4.381  19.774  0.00  0.00    +0.000 OA
ENDBRANCH  18  25
ENDBRANCH  17  21
ENDBRANCH  16  17
ENDBRANCH   1  16
TORSDOF 6
ENDMDL
