MODEL 1
REMARK VINA RESULT:    -8.357      0.000      0.000
REMARK INTER + INTRA:         -12.002
REMARK INTER:                 -11.288
REMARK INTRA:                  -0.715
REMARK UNBOUND:                -0.715
REMARK  Name = 
REMARK  7 active torsions:
REMARK  status: ('A' for Active; 'I' for Inactive)
REMARK    1  A    between atoms: C_1  and  C_2
REMARK    2  A    between atoms: C_7  and  C_8
REMARK    3  A    between atoms: N_10  and  C_11
REMARK    4  A    between atoms: C_11  and  C_12
REMARK    5  A    between atoms: C_15  and  C_16
REMARK    6  A    between atoms: C_16  and  N_17
REMARK    7  A    between atoms: C_18  and  C_20
REMARK                            x       y       z     vdW  Elec       q    Type
REMARK                         _______ _______ _______ _____ _____    ______ ____
ROOT
ATOM      1  C   UNL     1      44.689   5.272  10.798  0.00  0.00    +0.000 A 
ATOM      2  C   UNL     1      44.205   5.590  12.065  0.00  0.00    +0.000 A 
ATOM      3  C   UNL     1      44.948   6.444  12.884  0.00  0.00    +0.000 A 
ATOM      4  C   UNL     1      46.153   6.979  12.424  0.00  0.00    +0.000 A 
ATOM      5  C   UNL     1      46.561   6.599  11.150  0.00  0.00    +0.000 A 
ATOM      6  N   UNL     1      45.856   5.782  10.327  0.00  0.00    +0.000 NA
ENDROOT
BRANCH   1   7
ATOM      7  C   UNL     1      43.894   4.367   9.878  0.00  0.00    +0.000 C 
BRANCH   7  10
ATOM      8  C   UNL     1      45.408   2.846   8.643  0.00  0.00    +0.000 C 
ATOM      9  O   UNL     1      45.454   2.046   9.569  0.00  0.00    +0.000 OA
ATOM     10  N   UNL     1      44.657   4.000   8.695  0.00  0.00    +0.000 N 
ATOM     11  H   UNL     1      44.865   4.762   8.066  0.00  0.00    +0.000 HD
BRANCH   8  18
ATOM     12  C   UNL     1      46.679   0.118   7.866  0.00  0.00    +0.000 C 
ATOM     13  C   UNL     1      46.809   1.377   7.063  0.00  0.00    +0.000 A 
ATOM     14  N   UNL     1      47.597   1.240   5.955  0.00  0.00    +0.000 NA
ATOM     15  C   UNL     1      47.831   2.330   5.194  0.00  0.00    +0.000 A 
ATOM     16  C   UNL     1      47.299   3.573   5.469  0.00  0.00    +0.000 A 
ATOM     17  C   UNL     1      46.487   3.705   6.593  0.00  0.00    +0.000 A 
ATOM     18  C   UNL     1      46.223   2.598   7.417  0.00  0.00    +0.000 A 
ENDBRANCH   8  18
ENDBRANCH   7  10
ENDBRANCH   1   7
BRANCH   4  19
ATOM     19  C   UNL     1      46.988   7.901  13.268  0.00  0.00    +0.000 C 
BRANCH  19  20
ATOM     20  N   UNL     1      47.419   7.269  14.490  0.00  0.00    +0.000 N 
ATOM     21  C   UNL     1      48.705   6.805  14.639  0.00  0.00    +0.000 C 
ATOM     22  O   UNL     1      49.556   6.960  13.768  0.00  0.00    +0.000 OA
ATOM     23  H   UNL     1      46.699   6.926  15.118  0.00  0.00    +0.000 HD
BRANCH  21  24
ATOM     24  C   UNL     1      49.030   6.163  15.921  0.00  0.00    +0.000 A 
ATOM     25  C   UNL     1      50.065   6.662  16.702  0.00  0.00    +0.000 A 
ATOM     26  S   UNL     1      50.275   5.829  18.176  0.00  0.00    +0.000 S 
ATOM     27  C   UNL     1      49.029   4.735  17.800  0.00  0.00    +0.000 A 
ATOM     28  N   UNL     1      48.704   3.722  18.647  0.00  0.00    +0.000 NA
ATOM     29  C   UNL     1      47.764   2.948  18.218  0.00  0.00    +0.000 A 
ATOM     30  N   UNL     1      47.112   3.099  17.022  0.00  0.00    +0.000 N 
ATOM     31  C   UNL     1      47.379   4.129  16.152  0.00  0.00    +0.000 A 
ATOM     32  O   UNL     1      46.739   4.272  15.115  0.00  0.00    +0.000 OA
ATOM     33  C   UNL     1      48.444   5.017  16.577  0.00  0.00    +0.000 A 
ATOM     34  H   UNL     1      46.375   2.465  16.751  0.00  0.00    +0.000 HD
ENDBRANCH  21  24
ENDBRANCH  19  20
ENDBRANCH   4  19
TORSDOF 6
ENDMDL
MODEL 2
REMARK VINA RESULT:    -7.805      3.404      5.487
REMARK INTER + INTRA:         -11.258
REMARK INTER:                 -10.332
REMARK INTRA:                  -0.926
REMARK UNBOUND:                -0.715
REMARK  Name = 
REMARK  7 active torsions:
REMARK  status: ('A' for Active; 'I' for Inactive)
REMARK    1  A    between atoms: C_1  and  C_2
REMARK    2  A    between atoms: C_7  and  C_8
REMARK    3  A    between atoms: N_10  and  C_11
REMARK    4  A    between atoms: C_11  and  C_12
REMARK    5  A    between atoms: C_15  and  C_16
REMARK    6  A    between atoms: C_16  and  N_17
REMARK    7  A    between atoms: C_18  and  C_20
REMARK                            x       y       z     vdW  Elec       q    Type
REMARK                         _______ _______ _______ _____ _____    ______ ____
ROOT
ATOM      1  C   UNL     1      47.499   5.772  14.500  0.00  0.00    +0.000 A 
ATOM      2  C   UNL     1      48.395   6.252  15.453  0.00  0.00    +0.000 A 
ATOM      3  C   UNL     1      48.660   5.482  16.589  0.00  0.00    +0.000 A 
ATOM      4  C   UNL     1      48.039   4.241  16.751  0.00  0.00    +0.000 A 
ATOM      5  C   UNL     1      47.154   3.848  15.753  0.00  0.00    +0.000 A 
ATOM      6  N   UNL     1      46.886   4.568  14.634  0.00  0.00    +0.000 NA
ENDROOT
BRANCH   1   7
ATOM      7  C   UNL     1      47.209   6.575  13.247  0.00  0.00    +0.000 C 
BRANCH   7  10
ATOM      8  C   UNL     1      45.462   5.726  11.713  0.00  0.00    +0.000 C 
ATOM      9  O   UNL     1      44.605   6.463  12.187  0.00  0.00    +0.000 OA
ATOM     10  N   UNL     1      46.766   5.723  12.155  0.00  0.00    +0.000 N 
ATOM     11  H   UNL     1      47.357   4.927  11.966  0.00  0.00    +0.000 HD
BRANCH   8  18
ATOM     12  C   UNL     1      43.762   3.158  12.146  0.00  0.00    +0.000 C 
ATOM     13  C   UNL     1      44.329   3.592  10.828  0.00  0.00    +0.000 A 
ATOM     14  N   UNL     1      44.076   2.717   9.809  0.00  0.00    +0.000 NA
ATOM     15  C   UNL     1      44.595   2.981   8.591  0.00  0.00    +0.000 A 
ATOM     16  C   UNL     1      45.353   4.101   8.318  0.00  0.00    +0.000 A 
ATOM     17  C   UNL     1      45.599   4.996   9.357  0.00  0.00    +0.000 A 
ATOM     18  C   UNL     1      45.084   4.756  10.642  0.00  0.00    +0.000 A 
ENDBRANCH   8  18
ENDBRANCH   7  10
ENDBRANCH   1   7
BRANCH   4  19
ATOM     19  C   UNL     1      48.292   3.376  17.954  0.00  0.00    +0.000 C 
BRANCH  19  20
ATOM     20  N   UNL     1      49.696   3.101  18.132  0.00  0.00    +0.000 N 
ATOM     21  C   UNL     1      50.370   2.252  17.285  0.00  0.00    +0.000 C 
ATOM     22  O   UNL     1      49.825   1.739  16.312  0.00  0.00    +0.000 OA
ATOM     23  H   UNL     1      50.104   3.316  19.036  0.00  0.00    +0.000 HD
BRANCH  21  24
ATOM     24  C   UNL     1      51.795   2.032  17.570  0.00  0.00    +0.000 A 
ATOM     25  C   UNL     1      52.280   0.739  17.720  0.00  0.00    +0.000 A 
ATOM     26  S   UNL     1      53.961   0.664  17.999  0.00  0.00    +0.000 S 
ATOM     27  C   UNL     1      54.095   2.359  17.987  0.00  0.00    +0.000 A 
ATOM     28  N   UNL     1      55.291   2.970  18.200  0.00  0.00    +0.000 NA
ATOM     29  C   UNL     1      55.239   4.261  18.198  0.00  0.00    +0.000 A 
ATOM     30  N   UNL     1      54.100   4.996  17.994  0.00  0.00    +0.000 N 
ATOM     31  C   UNL     1      52.878   4.423  17.736  0.00  0.00    +0.000 A 
ATOM     32  O   UNL     1      51.888   5.108  17.500  0.00  0.00    +0.000 OA
ATOM     33  C   UNL     1      52.877   2.973  17.748  0.00  0.00    +0.000 A 
ATOM     34  H   UNL     1      54.130   6.005  17.992  0.00  0.00    +0.000 HD
ENDBRANCH  21  24
ENDBRANCH  19  20
ENDBRANCH   4  19
TORSDOF 6
ENDMDL
MODEL 3
REMARK VINA RESULT:    -7.797      3.230      8.940
REMARK INTER + INTRA:         -11.246
REMARK INTER:                 -10.227
REMARK INTRA:                  -1.019
REMARK UNBOUND:                -0.715
REMARK  Name = 
REMARK  7 active torsions:
REMARK  status: ('A' for Active; 'I' for Inactive)
REMARK    1  A    between atoms: C_1  and  C_2
REMARK    2  A    between atoms: C_7  and  C_8
REMARK    3  A    between atoms: N_10  and  C_11
REMARK    4  A    between atoms: C_11  and  C_12
REMARK    5  A    between atoms: C_15  and  C_16
REMARK    6  A    between atoms: C_16  and  N_17
REMARK    7  A    between atoms: C_18  and  C_20
REMARK                            x       y       z     vdW  Elec       q    Type
REMARK                         _______ _______ _______ _____ _____    ______ ____
ROOT
ATOM      1  C   UNL     1      49.907   7.227  15.509  0.00  0.00    +0.000 A 
ATOM      2  C   UNL     1      50.145   8.305  14.660  0.00  0.00    +0.000 A 
ATOM      3  C   UNL     1      49.320   8.493  13.548  0.00  0.00    +0.000 A 
ATOM      4  C   UNL     1      48.263   7.613  13.307  0.00  0.00    +0.000 A 
ATOM      5  C   UNL     1      48.106   6.561  14.203  0.00  0.00    +0.000 A 
ATOM      6  N   UNL     1      48.884   6.359  15.298  0.00  0.00    +0.000 NA
ENDROOT
BRANCH   1   7
ATOM      7  C   UNL     1      50.771   7.011  16.736  0.00  0.00    +0.000 C 
BRANCH   7  10
ATOM      8  C   UNL     1      50.822   4.732  17.702  0.00  0.00    +0.000 C 
ATOM      9  O   UNL     1      49.921   4.984  18.492  0.00  0.00    +0.000 OA
ATOM     10  N   UNL     1      51.292   5.655  16.793  0.00  0.00    +0.000 N 
ATOM     11  H   UNL     1      52.202   5.528  16.376  0.00  0.00    +0.000 HD
BRANCH   8  18
ATOM     12  C   UNL     1      49.516   2.079  16.742  0.00  0.00    +0.000 C 
ATOM     13  C   UNL     1      50.895   2.189  17.319  0.00  0.00    +0.000 A 
ATOM     14  N   UNL     1      51.534   0.987  17.443  0.00  0.00    +0.000 NA
ATOM     15  C   UNL     1      52.759   0.966  18.010  0.00  0.00    +0.000 A 
ATOM     16  C   UNL     1      53.407   2.099  18.456  0.00  0.00    +0.000 A 
ATOM     17  C   UNL     1      52.756   3.323  18.317  0.00  0.00    +0.000 A 
ATOM     18  C   UNL     1      51.477   3.391  17.739  0.00  0.00    +0.000 A 
ENDBRANCH   8  18
ENDBRANCH   7  10
ENDBRANCH   1   7
BRANCH   4  19
ATOM     19  C   UNL     1      47.348   7.772  12.124  0.00  0.00    +0.000 C 
BRANCH  19  20
ATOM     20  N   UNL     1      46.695   6.533  11.780  0.00  0.00    +0.000 N 
ATOM     21  C   UNL     1      45.324   6.428  11.764  0.00  0.00    +0.000 C 
ATOM     22  O   UNL     1      44.598   7.393  11.985  0.00  0.00    +0.000 OA
ATOM     23  H   UNL     1      47.251   5.685  11.822  0.00  0.00    +0.000 HD
BRANCH  21  24
ATOM     24  C   UNL     1      44.767   5.114  11.413  0.00  0.00    +0.000 A 
ATOM     25  C   UNL     1      43.987   4.425  12.333  0.00  0.00    +0.000 A 
ATOM     26  S   UNL     1      43.385   2.941  11.746  0.00  0.00    +0.000 S 
ATOM     27  C   UNL     1      44.190   3.137  10.261  0.00  0.00    +0.000 A 
ATOM     28  N   UNL     1      44.116   2.188   9.291  0.00  0.00    +0.000 NA
ATOM     29  C   UNL     1      44.804   2.451   8.231  0.00  0.00    +0.000 A 
ATOM     30  N   UNL     1      45.555   3.584   8.050  0.00  0.00    +0.000 N 
ATOM     31  C   UNL     1      45.629   4.588   8.985  0.00  0.00    +0.000 A 
ATOM     32  O   UNL     1      46.262   5.616   8.770  0.00  0.00    +0.000 OA
ATOM     33  C   UNL     1      44.890   4.331  10.205  0.00  0.00    +0.000 A 
ATOM     34  H   UNL     1      46.061   3.737   7.189  0.00  0.00    +0.000 HD
ENDBRANCH  21  24
ENDBRANCH  19  20
ENDBRANCH   4  19
TORSDOF 6
ENDMDL
MODEL 4
REMARK VINA RESULT:    -7.557      3.538      5.026
REMARK INTER + INTRA:         -10.923
REMARK INTER:                  -9.929
REMARK INTRA:                  -0.994
REMARK UNBOUND:                -0.715
REMARK  Name = 
REMARK  7 active torsions:
REMARK  status: ('A' for Active; 'I' for Inactive)
REMARK    1  A    between atoms: C_1  and  C_2
REMARK    2  A    between atoms: C_7  and  C_8
REMARK    3  A    between atoms: N_10  and  C_11
REMARK    4  A    between atoms: C_11  and  C_12
REMARK    5  A    between atoms: C_15  and  C_16
REMARK    6  A    between atoms: C_16  and  N_17
REMARK    7  A    between atoms: C_18  and  C_20
REMARK                            x       y       z     vdW  Elec       q    Type
REMARK                         _______ _______ _______ _____ _____    ______ ____
ROOT
ATOM      1  C   UNL     1      47.247   6.044  13.964  0.00  0.00    +0.000 A 
ATOM      2  C   UNL     1      46.746   4.803  14.349  0.00  0.00    +0.000 A 
ATOM      3  C   UNL     1      47.202   4.221  15.535  0.00  0.00    +0.000 A 
ATOM      4  C   UNL     1      48.140   4.890  16.324  0.00  0.00    +0.000 A 
ATOM      5  C   UNL     1      48.590   6.120  15.856  0.00  0.00    +0.000 A 
ATOM      6  N   UNL     1      48.157   6.716  14.716  0.00  0.00    +0.000 NA
ENDROOT
BRANCH   1   7
ATOM      7  C   UNL     1      46.754   6.711  12.695  0.00  0.00    +0.000 C 
BRANCH   7  10
ATOM      8  C   UNL     1      45.195   5.604  11.122  0.00  0.00    +0.000 C 
ATOM      9  O   UNL     1      44.256   6.315  11.460  0.00  0.00    +0.000 OA
ATOM     10  N   UNL     1      46.457   5.736  11.657  0.00  0.00    +0.000 N 
ATOM     11  H   UNL     1      47.113   4.972  11.587  0.00  0.00    +0.000 HD
BRANCH   8  18
ATOM     12  C   UNL     1      43.659   2.957  11.672  0.00  0.00    +0.000 C 
ATOM     13  C   UNL     1      44.289   3.319  10.361  0.00  0.00    +0.000 A 
ATOM     14  N   UNL     1      44.178   2.342   9.412  0.00  0.00    +0.000 NA
ATOM     15  C   UNL     1      44.765   2.540   8.213  0.00  0.00    +0.000 A 
ATOM     16  C   UNL     1      45.459   3.689   7.890  0.00  0.00    +0.000 A 
ATOM     17  C   UNL     1      45.561   4.686   8.857  0.00  0.00    +0.000 A 
ATOM     18  C   UNL     1      44.970   4.519  10.121  0.00  0.00    +0.000 A 
ENDBRANCH   8  18
ENDBRANCH   7  10
ENDBRANCH   1   7
BRANCH   4  19
ATOM     19  C   UNL     1      48.662   4.305  17.607  0.00  0.00    +0.000 C 
BRANCH  19  20
ATOM     20  N   UNL     1      50.038   3.891  17.488  0.00  0.00    +0.000 N 
ATOM     21  C   UNL     1      50.954   4.162  18.477  0.00  0.00    +0.000 C 
ATOM     22  O   UNL     1      50.632   4.714  19.525  0.00  0.00    +0.000 OA
ATOM     23  H   UNL     1      50.375   3.650  16.561  0.00  0.00    +0.000 HD
BRANCH  21  24
ATOM     24  C   UNL     1      52.332   3.707  18.243  0.00  0.00    +0.000 A 
ATOM     25  C   UNL     1      53.390   4.591  18.408  0.00  0.00    +0.000 A 
ATOM     26  S   UNL     1      54.920   3.885  18.141  0.00  0.00    +0.000 S 
ATOM     27  C   UNL     1      54.223   2.388  17.740  0.00  0.00    +0.000 A 
ATOM     28  N   UNL     1      54.994   1.329  17.375  0.00  0.00    +0.000 NA
ATOM     29  C   UNL     1      54.329   0.266  17.063  0.00  0.00    +0.000 A 
ATOM     30  N   UNL     1      52.963   0.164  17.092  0.00  0.00    +0.000 N 
ATOM     31  C   UNL     1      52.145   1.193  17.491  0.00  0.00    +0.000 A 
ATOM     32  O   UNL     1      50.929   1.052  17.562  0.00  0.00    +0.000 OA
ATOM     33  C   UNL     1      52.841   2.419  17.832  0.00  0.00    +0.000 A 
ATOM     34  H   UNL     1      52.504  -0.702  16.848  0.00  0.00    +0.000 HD
ENDBRANCH  21  24
ENDBRANCH  19  20
ENDBRANCH   4  19
TORSDOF 6
ENDMDL
MODEL 5
REMARK VINA RESULT:    -7.378      3.746      8.623
REMARK INTER + INTRA:         -10.681
REMARK INTER:                  -9.787
REMARK INTRA:                  -0.894
REMARK UNBOUND:                -0.715
REMARK  Name = 
REMARK  7 active torsions:
REMARK  status: ('A' for Active; 'I' for Inactive)
REMARK    1  A    between atoms: C_1  and  C_2
REMARK    2  A    between atoms: C_7  and  C_8
REMARK    3  A    between atoms: N_10  and  C_11
REMARK    4  A    between atoms: C_11  and  C_12
REMARK    5  A    between atoms: C_15  and  C_16
REMARK    6  A    between atoms: C_16  and  N_17
REMARK    7  A    between atoms: C_18  and  C_20
REMARK                            x       y       z     vdW  Elec       q    Type
REMARK                         _______ _______ _______ _____ _____    ______ ____
ROOT
ATOM      1  C   UNL     1      50.139   7.299  15.616  0.00  0.00    +0.000 A 
ATOM      2  C   UNL     1      50.884   7.695  14.507  0.00  0.00    +0.000 A 
ATOM      3  C   UNL     1      50.219   8.045  13.329  0.00  0.00    +0.000 A 
ATOM      4  C   UNL     1      48.823   8.008  13.278  0.00  0.00    +0.000 A 
ATOM      5  C   UNL     1      48.165   7.593  14.430  0.00  0.00    +0.000 A 
ATOM      6  N   UNL     1      48.782   7.259  15.592  0.00  0.00    +0.000 NA
ENDROOT
BRANCH   1   7
ATOM      7  C   UNL     1      50.832   6.936  16.915  0.00  0.00    +0.000 C 
BRANCH   7  10
ATOM      8  C   UNL     1      50.809   4.612  17.768  0.00  0.00    +0.000 C 
ATOM      9  O   UNL     1      49.918   4.856  18.574  0.00  0.00    +0.000 OA
ATOM     10  N   UNL     1      51.307   5.562  16.903  0.00  0.00    +0.000 N 
ATOM     11  H   UNL     1      52.211   5.424  16.476  0.00  0.00    +0.000 HD
BRANCH   8  18
ATOM     12  C   UNL     1      49.392   2.046  16.732  0.00  0.00    +0.000 C 
ATOM     13  C   UNL     1      50.785   2.086  17.283  0.00  0.00    +0.000 A 
ATOM     14  N   UNL     1      51.385   0.859  17.344  0.00  0.00    +0.000 NA
ATOM     15  C   UNL     1      52.620   0.773  17.882  0.00  0.00    +0.000 A 
ATOM     16  C   UNL     1      53.316   1.865  18.358  0.00  0.00    +0.000 A 
ATOM     17  C   UNL     1      52.705   3.115  18.283  0.00  0.00    +0.000 A 
ATOM     18  C   UNL     1      51.418   3.249  17.737  0.00  0.00    +0.000 A 
ENDBRANCH   8  18
ENDBRANCH   7  10
ENDBRANCH   1   7
BRANCH   4  19
ATOM     19  C   UNL     1      48.063   8.375  12.034  0.00  0.00    +0.000 C 
BRANCH  19  20
ATOM     20  N   UNL     1      47.445   7.224  11.423  0.00  0.00    +0.000 N 
ATOM     21  C   UNL     1      46.084   7.033  11.474  0.00  0.00    +0.000 C 
ATOM     22  O   UNL     1      45.332   7.857  11.986  0.00  0.00    +0.000 OA
ATOM     23  H   UNL     1      48.043   6.433  11.206  0.00  0.00    +0.000 HD
BRANCH  21  24
ATOM     24  C   UNL     1      45.564   5.817  10.831  0.00  0.00    +0.000 A 
ATOM     25  C   UNL     1      45.791   5.599   9.478  0.00  0.00    +0.000 A 
ATOM     26  S   UNL     1      45.160   4.120   8.908  0.00  0.00    +0.000 S 
ATOM     27  C   UNL     1      44.512   3.743  10.433  0.00  0.00    +0.000 A 
ATOM     28  N   UNL     1      43.804   2.599  10.633  0.00  0.00    +0.000 NA
ATOM     29  C   UNL     1      43.341   2.459  11.830  0.00  0.00    +0.000 A 
ATOM     30  N   UNL     1      43.528   3.356  12.849  0.00  0.00    +0.000 N 
ATOM     31  C   UNL     1      44.268   4.505  12.706  0.00  0.00    +0.000 A 
ATOM     32  O   UNL     1      44.467   5.259  13.653  0.00  0.00    +0.000 OA
ATOM     33  C   UNL     1      44.794   4.721  11.372  0.00  0.00    +0.000 A 
ATOM     34  H   UNL     1      43.150   3.180  13.769  0.00  0.00    +0.000 HD
ENDBRANCH  21  24
ENDBRANCH  19  20
ENDBRANCH   4  19
TORSDOF 6
ENDMDL
MODEL 6
REMARK VINA RESULT:    -7.301      5.130      9.743
REMARK INTER + INTRA:         -10.576
REMARK INTER:                  -9.905
REMARK INTRA:                  -0.671
REMARK UNBOUND:                -0.715
REMARK  Name = 
REMARK  7 active torsions:
REMARK  status: ('A' for Active; 'I' for Inactive)
REMARK    1  A    between atoms: C_1  and  C_2
REMARK    2  A    between atoms: C_7  and  C_8
REMARK    3  A    between atoms: N_10  and  C_11
REMARK    4  A    between atoms: C_11  and  C_12
REMARK    5  A    between atoms: C_15  and  C_16
REMARK    6  A    between atoms: C_16  and  N_17
REMARK    7  A    between atoms: C_18  and  C_20
REMARK                            x       y       z     vdW  Elec       q    Type
REMARK                         _______ _______ _______ _____ _____    ______ ____
ROOT
ATOM      1  C   UNL     1      51.372   3.086  17.594  0.00  0.00    +0.000 A 
ATOM      2  C   UNL     1      50.725   4.267  17.951  0.00  0.00    +0.000 A 
ATOM      3  C   UNL     1      49.349   4.383  17.736  0.00  0.00    +0.000 A 
ATOM      4  C   UNL     1      48.637   3.318  17.180  0.00  0.00    +0.000 A 
ATOM      5  C   UNL     1      49.368   2.182  16.847  0.00  0.00    +0.000 A 
ATOM      6  N   UNL     1      50.701   2.035  17.055  0.00  0.00    +0.000 NA
ENDROOT
BRANCH   1   7
ATOM      7  C   UNL     1      52.859   2.921  17.837  0.00  0.00    +0.000 C 
BRANCH   7  10
ATOM      8  C   UNL     1      54.104   0.856  18.397  0.00  0.00    +0.000 C 
ATOM      9  O   UNL     1      54.458   1.295  19.485  0.00  0.00    +0.000 OA
ATOM     10  N   UNL     1      53.307   1.572  17.532  0.00  0.00    +0.000 N 
ATOM     11  H   UNL     1      53.279   1.322  16.554  0.00  0.00    +0.000 HD
BRANCH   8  18
ATOM     12  C   UNL     1      55.744   0.295  15.816  0.00  0.00    +0.000 C 
ATOM     13  C   UNL     1      55.309  -0.755  16.794  0.00  0.00    +0.000 A 
ATOM     14  N   UNL     1      55.657  -2.024  16.424  0.00  0.00    +0.000 NA
ATOM     15  C   UNL     1      55.260  -3.052  17.204  0.00  0.00    +0.000 A 
ATOM     16  C   UNL     1      54.536  -2.885  18.366  0.00  0.00    +0.000 A 
ATOM     17  C   UNL     1      54.194  -1.589  18.745  0.00  0.00    +0.000 A 
ATOM     18  C   UNL     1      54.580  -0.490  17.959  0.00  0.00    +0.000 A 
ENDBRANCH   8  18
ENDBRANCH   7  10
ENDBRANCH   1   7
BRANCH   4  19
ATOM     19  C   UNL     1      47.157   3.395  16.928  0.00  0.00    +0.000 C 
BRANCH  19  20
ATOM     20  N   UNL     1      46.831   4.408  15.955  0.00  0.00    +0.000 N 
ATOM     21  C   UNL     1      46.945   4.165  14.606  0.00  0.00    +0.000 C 
ATOM     22  O   UNL     1      47.273   3.065  14.171  0.00  0.00    +0.000 OA
ATOM     23  H   UNL     1      46.786   5.369  16.277  0.00  0.00    +0.000 HD
BRANCH  21  24
ATOM     24  C   UNL     1      46.600   5.274  13.705  0.00  0.00    +0.000 A 
ATOM     25  C   UNL     1      47.509   6.303  13.495  0.00  0.00    +0.000 A 
ATOM     26  S   UNL     1      46.967   7.482  12.387  0.00  0.00    +0.000 S 
ATOM     27  C   UNL     1      45.475   6.691  12.190  0.00  0.00    +0.000 A 
ATOM     28  N   UNL     1      44.511   7.201  11.378  0.00  0.00    +0.000 NA
ATOM     29  C   UNL     1      43.416   6.516  11.351  0.00  0.00    +0.000 A 
ATOM     30  N   UNL     1      43.201   5.361  12.058  0.00  0.00    +0.000 N 
ATOM     31  C   UNL     1      44.158   4.787  12.860  0.00  0.00    +0.000 A 
ATOM     32  O   UNL     1      43.956   3.722  13.433  0.00  0.00    +0.000 OA
ATOM     33  C   UNL     1      45.400   5.530  12.941  0.00  0.00    +0.000 A 
ATOM     34  H   UNL     1      42.325   4.865  11.982  0.00  0.00    +0.000 HD
ENDBRANCH  21  24
ENDBRANCH  19  20
ENDBRANCH   4  19
TORSDOF 6
ENDMDL
MODEL 7
REMARK VINA RESULT:    -6.943      5.052      7.573
REMARK INTER + INTRA:         -10.093
REMARK INTER:                  -9.166
REMARK INTRA:                  -0.927
REMARK UNBOUND:                -0.715
REMARK  Name = 
REMARK  7 active torsions:
REMARK  status: ('A' for Active; 'I' for Inactive)
REMARK    1  A    between atoms: C_1  and  C_2
REMARK    2  A    between atoms: C_7  and  C_8
REMARK    3  A    between atoms: N_10  and  C_11
REMARK    4  A    between atoms: C_11  and  C_12
REMARK    5  A    between atoms: C_15  and  C_16
REMARK    6  A    between atoms: C_16  and  N_17
REMARK    7  A    between atoms: C_18  and  C_20
REMARK                            x       y       z     vdW  Elec       q    Type
REMARK                         _______ _______ _______ _____ _____    ______ ____
ROOT
ATOM      1  C   UNL     1      50.616   8.798  11.358  0.00  0.00    +0.000 A 
ATOM      2  C   UNL     1      50.186   7.505  11.647  0.00  0.00    +0.000 A 
ATOM      3  C   UNL     1      48.906   7.314  12.174  0.00  0.00    +0.000 A 
ATOM      4  C   UNL     1      48.070   8.412  12.392  0.00  0.00    +0.000 A 
ATOM      5  C   UNL     1      48.588   9.665  12.082  0.00  0.00    +0.000 A 
ATOM      6  N   UNL     1      49.821   9.881  11.558  0.00  0.00    +0.000 NA
ENDROOT
BRANCH   1   7
ATOM      7  C   UNL     1      51.991   9.034  10.763  0.00  0.00    +0.000 C 
BRANCH   7  10
ATOM      8  C   UNL     1      53.586   7.945   9.214  0.00  0.00    +0.000 C 
ATOM      9  O   UNL     1      54.492   8.713   9.515  0.00  0.00    +0.000 OA
ATOM     10  N   UNL     1      52.334   8.015   9.785  0.00  0.00    +0.000 N 
ATOM     11  H   UNL     1      51.548   7.584   9.320  0.00  0.00    +0.000 HD
BRANCH   8  18
ATOM     12  C   UNL     1      52.819   8.255   6.217  0.00  0.00    +0.000 C 
ATOM     13  C   UNL     1      53.467   7.040   6.809  0.00  0.00    +0.000 A 
ATOM     14  N   UNL     1      53.653   6.026   5.911  0.00  0.00    +0.000 NA
ATOM     15  C   UNL     1      54.173   4.862   6.354  0.00  0.00    +0.000 A 
ATOM     16  C   UNL     1      54.543   4.649   7.666  0.00  0.00    +0.000 A 
ATOM     17  C   UNL     1      54.362   5.688   8.575  0.00  0.00    +0.000 A 
ATOM     18  C   UNL     1      53.818   6.915   8.158  0.00  0.00    +0.000 A 
ENDBRANCH   8  18
ENDBRANCH   7  10
ENDBRANCH   1   7
BRANCH   4  19
ATOM     19  C   UNL     1      46.686   8.258  12.958  0.00  0.00    +0.000 C 
BRANCH  19  20
ATOM     20  N   UNL     1      46.142   6.948  12.697  0.00  0.00    +0.000 N 
ATOM     21  C   UNL     1      45.129   6.764  11.785  0.00  0.00    +0.000 C 
ATOM     22  O   UNL     1      44.684   7.690  11.114  0.00  0.00    +0.000 OA
ATOM     23  H   UNL     1      46.320   6.222  13.384  0.00  0.00    +0.000 HD
BRANCH  21  24
ATOM     24  C   UNL     1      44.641   5.388  11.610  0.00  0.00    +0.000 A 
ATOM     25  C   UNL     1      43.933   4.770  12.633  0.00  0.00    +0.000 A 
ATOM     26  S   UNL     1      43.403   3.195  12.245  0.00  0.00    +0.000 S 
ATOM     27  C   UNL     1      44.148   3.259  10.719  0.00  0.00    +0.000 A 
ATOM     28  N   UNL     1      44.101   2.199   9.869  0.00  0.00    +0.000 NA
ATOM     29  C   UNL     1      44.740   2.374   8.760  0.00  0.00    +0.000 A 
ATOM     30  N   UNL     1      45.415   3.518   8.420  0.00  0.00    +0.000 N 
ATOM     31  C   UNL     1      45.458   4.627   9.229  0.00  0.00    +0.000 A 
ATOM     32  O   UNL     1      46.021   5.657   8.872  0.00  0.00    +0.000 OA
ATOM     33  C   UNL     1      44.773   4.476  10.498  0.00  0.00    +0.000 A 
ATOM     34  H   UNL     1      45.884   3.595   7.529  0.00  0.00    +0.000 HD
ENDBRANCH  21  24
ENDBRANCH  19  20
ENDBRANCH   4  19
TORSDOF 6
ENDMDL
MODEL 8
REMARK VINA RESULT:    -6.723      2.623      2.936
REMARK INTER + INTRA:          -9.796
REMARK INTER:                  -9.542
REMARK INTRA:                  -0.254
REMARK UNBOUND:                -0.715
REMARK  Name = 
REMARK  7 active torsions:
REMARK  status: ('A' for Active; 'I' for Inactive)
REMARK    1  A    between atoms: C_1  and  C_2
REMARK    2  A    between atoms: C_7  and  C_8
REMARK    3  A    between atoms: N_10  and  C_11
REMARK    4  A    between atoms: C_11  and  C_12
REMARK    5  A    between atoms: C_15  and  C_16
REMARK    6  A    between atoms: C_16  and  N_17
REMARK    7  A    between atoms: C_18  and  C_20
REMARK                            x       y       z     vdW  Elec       q    Type
REMARK                         _______ _______ _______ _____ _____    ______ ____
ROOT
ATOM      1  C   UNL     1      45.319   6.156  11.628  0.00  0.00    +0.000 A 
ATOM      2  C   UNL     1      46.162   5.443  12.478  0.00  0.00    +0.000 A 
ATOM      3  C   UNL     1      47.098   6.136  13.250  0.00  0.00    +0.000 A 
ATOM      4  C   UNL     1      47.172   7.528  13.173  0.00  0.00    +0.000 A 
ATOM      5  C   UNL     1      46.298   8.155  12.291  0.00  0.00    +0.000 A 
ATOM      6  N   UNL     1      45.370   7.510  11.538  0.00  0.00    +0.000 NA
ENDROOT
BRANCH   1   7
ATOM      7  C   UNL     1      44.278   5.434  10.796  0.00  0.00    +0.000 C 
BRANCH   7  10
ATOM      8  C   UNL     1      45.621   4.417   8.982  0.00  0.00    +0.000 C 
ATOM      9  O   UNL     1      45.909   5.509   8.505  0.00  0.00    +0.000 OA
ATOM     10  N   UNL     1      44.843   4.283  10.111  0.00  0.00    +0.000 N 
ATOM     11  H   UNL     1      44.386   3.403  10.302  0.00  0.00    +0.000 HD
BRANCH   8  18
ATOM     12  C   UNL     1      44.519   1.562   9.528  0.00  0.00    +0.000 C 
ATOM     13  C   UNL     1      45.606   1.882   8.547  0.00  0.00    +0.000 A 
ATOM     14  N   UNL     1      46.127   0.779   7.929  0.00  0.00    +0.000 NA
ATOM     15  C   UNL     1      47.155   0.950   7.071  0.00  0.00    +0.000 A 
ATOM     16  C   UNL     1      47.695   2.183   6.772  0.00  0.00    +0.000 A 
ATOM     17  C   UNL     1      47.154   3.305   7.395  0.00  0.00    +0.000 A 
ATOM     18  C   UNL     1      46.087   3.173   8.301  0.00  0.00    +0.000 A 
ENDBRANCH   8  18
ENDBRANCH   7  10
ENDBRANCH   1   7
BRANCH   4  19
ATOM     19  C   UNL     1      48.163   8.318  13.982  0.00  0.00    +0.000 C 
BRANCH  19  20
ATOM     20  N   UNL     1      47.842   8.301  15.388  0.00  0.00    +0.000 N 
ATOM     21  C   UNL     1      48.419   9.192  16.263  0.00  0.00    +0.000 C 
ATOM     22  O   UNL     1      49.183  10.074  15.881  0.00  0.00    +0.000 OA
ATOM     23  H   UNL     1      47.411   7.461  15.759  0.00  0.00    +0.000 HD
BRANCH  21  24
ATOM     24  C   UNL     1      48.031   9.073  17.676  0.00  0.00    +0.000 A 
ATOM     25  C   UNL     1      47.622  10.200  18.378  0.00  0.00    +0.000 A 
ATOM     26  S   UNL     1      47.165   9.875  19.989  0.00  0.00    +0.000 S 
ATOM     27  C   UNL     1      47.549   8.227  19.826  0.00  0.00    +0.000 A 
ATOM     28  N   UNL     1      47.413   7.367  20.870  0.00  0.00    +0.000 NA
ATOM     29  C   UNL     1      47.775   6.154  20.614  0.00  0.00    +0.000 A 
ATOM     30  N   UNL     1      48.254   5.721  19.405  0.00  0.00    +0.000 N 
ATOM     31  C   UNL     1      48.372   6.544  18.311  0.00  0.00    +0.000 A 
ATOM     32  O   UNL     1      48.749   6.114  17.226  0.00  0.00    +0.000 OA
ATOM     33  C   UNL     1      47.998   7.924  18.551  0.00  0.00    +0.000 A 
ATOM     34  H   UNL     1      48.508   4.754  19.266  0.00  0.00    +0.000 HD
ENDBRANCH  21  24
ENDBRANCH  19  20
ENDBRANCH   4  19
TORSDOF 6
ENDMDL
MODEL 9
REMARK VINA RESULT:    -6.302      5.701     10.414
REMARK INTER + INTRA:          -9.228
REMARK INTER:                  -8.406
REMARK INTRA:                  -0.822
REMARK UNBOUND:                -0.715
REMARK  Name = 
REMARK  7 active torsions:
REMARK  status: ('A' for Active; 'I' for Inactive)
REMARK    1  A    between atoms: C_1  and  C_2
REMARK    2  A    between atoms: C_7  and  C_8
REMARK    3  A    between atoms: N_10  and  C_11
REMARK    4  A    between atoms: C_11  and  C_12
REMARK    5  A    between atoms: C_15  and  C_16
REMARK    6  A    between atoms: C_16  and  N_17
REMARK    7  A    between atoms: C_18  and  C_20
REMARK                            x       y       z     vdW  Elec       q    Type
REMARK                         _______ _______ _______ _____ _____    ______ ____
ROOT
ATOM      1  C   UNL     1      52.465   1.557  17.720  0.00  0.00    +0.000 A 
ATOM      2  C   UNL     1      52.671   2.854  18.185  0.00  0.00    +0.000 A 
ATOM      3  C   UNL     1      51.600   3.751  18.201  0.00  0.00    +0.000 A 
ATOM      4  C   UNL     1      50.338   3.339  17.767  0.00  0.00    +0.000 A 
ATOM      5  C   UNL     1      50.229   2.029  17.312  0.00  0.00    +0.000 A 
ATOM      6  N   UNL     1      51.247   1.132  17.296  0.00  0.00    +0.000 NA
ENDROOT
BRANCH   1   7
ATOM      7  C   UNL     1      53.603   0.555  17.713  0.00  0.00    +0.000 C 
BRANCH   7  10
ATOM      8  C   UNL     1      54.152  -1.668  18.656  0.00  0.00    +0.000 C 
ATOM      9  O   UNL     1      55.345  -1.543  18.406  0.00  0.00    +0.000 OA
ATOM     10  N   UNL     1      53.227  -0.687  18.369  0.00  0.00    +0.000 N 
ATOM     11  H   UNL     1      52.248  -0.926  18.308  0.00  0.00    +0.000 HD
BRANCH   8  18
ATOM     12  C   UNL     1      54.192  -4.439  17.247  0.00  0.00    +0.000 C 
ATOM     13  C   UNL     1      53.660  -4.193  18.627  0.00  0.00    +0.000 A 
ATOM     14  N   UNL     1      53.130  -5.307  19.216  0.00  0.00    +0.000 NA
ATOM     15  C   UNL     1      52.567  -5.182  20.436  0.00  0.00    +0.000 A 
ATOM     16  C   UNL     1      52.516  -3.989  21.128  0.00  0.00    +0.000 A 
ATOM     17  C   UNL     1      53.067  -2.859  20.528  0.00  0.00    +0.000 A 
ATOM     18  C   UNL     1      53.657  -2.942  19.255  0.00  0.00    +0.000 A 
ENDBRANCH   8  18
ENDBRANCH   7  10
ENDBRANCH   1   7
BRANCH   4  19
ATOM     19  C   UNL     1      49.155   4.267  17.765  0.00  0.00    +0.000 C 
BRANCH  19  20
ATOM     20  N   UNL     1      48.883   4.787  16.448  0.00  0.00    +0.000 N 
ATOM     21  C   UNL     1      48.715   6.135  16.233  0.00  0.00    +0.000 C 
ATOM     22  O   UNL     1      48.846   6.957  17.136  0.00  0.00    +0.000 OA
ATOM     23  H   UNL     1      48.547   4.134  15.747  0.00  0.00    +0.000 HD
BRANCH  21  24
ATOM     24  C   UNL     1      48.428   6.552  14.853  0.00  0.00    +0.000 A 
ATOM     25  C   UNL     1      49.092   7.644  14.308  0.00  0.00    +0.000 A 
ATOM     26  S   UNL     1      48.672   7.960  12.685  0.00  0.00    +0.000 S 
ATOM     27  C   UNL     1      47.546   6.686  12.668  0.00  0.00    +0.000 A 
ATOM     28  N   UNL     1      46.800   6.422  11.563  0.00  0.00    +0.000 NA
ATOM     29  C   UNL     1      45.962   5.450  11.703  0.00  0.00    +0.000 A 
ATOM     30  N   UNL     1      45.807   4.712  12.848  0.00  0.00    +0.000 N 
ATOM     31  C   UNL     1      46.564   4.917  13.976  0.00  0.00    +0.000 A 
ATOM     32  O   UNL     1      46.443   4.202  14.965  0.00  0.00    +0.000 OA
ATOM     33  C   UNL     1      47.509   6.012  13.878  0.00  0.00    +0.000 A 
ATOM     34  H   UNL     1      45.141   3.954  12.889  0.00  0.00    +0.000 HD
ENDBRANCH  21  24
ENDBRANCH  19  20
ENDBRANCH   4  19
TORSDOF 6
ENDMDL
