MODEL 1
REMARK VINA RESULT:    -7.648      0.000      0.000
REMARK INTER + INTRA:         -11.430
REMARK INTER:                 -10.330
REMARK INTRA:                  -1.099
REMARK UNBOUND:                -1.099
REMARK  Name = 
REMARK  7 active torsions:
REMARK  status: ('A' for Active; 'I' for Inactive)
REMARK    1  A    between atoms: C_1  and  O_2
REMARK    2  A    between atoms: O_2  and  C_3
REMARK    3  A    between atoms: C_7  and  C_8
REMARK    4  A    between atoms: C_8  and  C_9
REMARK    5  A    between atoms: C_12  and  C_13
REMARK    6  A    between atoms: C_13  and  N_14
REMARK    7  A    between atoms: C_15  and  C_17
REMARK                            x       y       z     vdW  Elec       q    Type
REMARK                         _______ _______ _______ _____ _____    ______ ____
ROOT
ATOM      1  C   UNL     1      47.516   8.089  13.579  0.00  0.00    +0.000 C 
ENDROOT
BRANCH   1   5
ATOM      2  C   UNL     1      44.644   5.808  11.390  0.00  0.00    +0.000 A 
ATOM      3  C   UNL     1      44.569   7.202  11.368  0.00  0.00    +0.000 A 
ATOM      4  C   UNL     1      45.499   7.958  12.079  0.00  0.00    +0.000 A 
ATOM      5  C   UNL     1      46.477   7.301  12.818  0.00  0.00    +0.000 A 
ATOM      6  N   UNL     1      46.564   5.947  12.866  0.00  0.00    +0.000 NA
ATOM      7  C   UNL     1      45.650   5.239  12.163  0.00  0.00    +0.000 A 
BRANCH   2   8
ATOM      8  C   UNL     1      43.675   4.951  10.617  0.00  0.00    +0.000 C 
BRANCH   8  13
ATOM      9  C   UNL     1      45.774   3.470   7.788  0.00  0.00    +0.000 A 
ATOM     10  C   UNL     1      45.675   2.105   8.061  0.00  0.00    +0.000 A 
ATOM     11  C   UNL     1      44.903   1.661   9.137  0.00  0.00    +0.000 A 
ATOM     12  C   UNL     1      44.240   2.577   9.953  0.00  0.00    +0.000 A 
ATOM     13  C   UNL     1      44.341   3.952   9.704  0.00  0.00    +0.000 A 
ATOM     14  C   UNL     1      45.104   4.383   8.608  0.00  0.00    +0.000 A 
BRANCH   9  16
ATOM     15  C   UNL     1      47.096   3.140   5.841  0.00  0.00    +0.000 C 
ATOM     16  O   UNL     1      46.488   4.034   6.766  0.00  0.00    +0.000 OA
ENDBRANCH   9  16
ENDBRANCH   8  13
ENDBRANCH   2   8
ENDBRANCH   1   5
BRANCH   1  17
ATOM     17  N   UNL     1      47.892   7.445  14.819  0.00  0.00    +0.000 N 
ATOM     18  C   UNL     1      49.167   7.019  15.070  0.00  0.00    +0.000 C 
ATOM     19  O   UNL     1      50.072   7.152  14.249  0.00  0.00    +0.000 OA
ATOM     20  H   UNL     1      47.122   7.126  15.402  0.00  0.00    +0.000 HD
BRANCH  18  21
ATOM     21  C   UNL     1      49.425   6.451  16.402  0.00  0.00    +0.000 A 
ATOM     22  C   UNL     1      50.326   7.085  17.250  0.00  0.00    +0.000 A 
ATOM     23  S   UNL     1      50.488   6.329  18.770  0.00  0.00    +0.000 S 
ATOM     24  C   UNL     1      49.393   5.102  18.336  0.00  0.00    +0.000 A 
ATOM     25  N   UNL     1      49.100   4.093  19.200  0.00  0.00    +0.000 NA
ATOM     26  C   UNL     1      48.278   3.213  18.732  0.00  0.00    +0.000 A 
ATOM     27  N   UNL     1      47.715   3.258  17.483  0.00  0.00    +0.000 N 
ATOM     28  C   UNL     1      47.946   4.282  16.596  0.00  0.00    +0.000 A 
ATOM     29  O   UNL     1      47.363   4.333  15.519  0.00  0.00    +0.000 OA
ATOM     30  C   UNL     1      48.888   5.282  17.060  0.00  0.00    +0.000 A 
ATOM     31  H   UNL     1      47.065   2.547  17.183  0.00  0.00    +0.000 HD
ENDBRANCH  18  21
ENDBRANCH   1  17
TORSDOF 6
ENDMDL
MODEL 2
REMARK VINA RESULT:    -7.342      2.235      2.762
REMARK INTER + INTRA:         -11.017
REMARK INTER:                  -9.984
REMARK INTRA:                  -1.033
REMARK UNBOUND:                -1.099
REMARK  Name = 
REMARK  7 active torsions:
REMARK  status: ('A' for Active; 'I' for Inactive)
REMARK    1  A    between atoms: C_1  and  O_2
REMARK    2  A    between atoms: O_2  and  C_3
REMARK    3  A    between atoms: C_7  and  C_8
REMARK    4  A    between atoms: C_8  and  C_9
REMARK    5  A    between atoms: C_12  and  C_13
REMARK    6  A    between atoms: C_13  and  N_14
REMARK    7  A    between atoms: C_15  and  C_17
REMARK                            x       y       z     vdW  Elec       q    Type
REMARK                         _______ _______ _______ _____ _____    ______ ____
ROOT
ATOM      1  C   UNL     1      48.639   6.851  14.192  0.00  0.00    +0.000 C 
ENDROOT
BRANCH   1   5
ATOM      2  C   UNL     1      45.439   5.602  11.654  0.00  0.00    +0.000 A 
ATOM      3  C   UNL     1      46.098   6.803  11.382  0.00  0.00    +0.000 A 
ATOM      4  C   UNL     1      47.143   7.222  12.203  0.00  0.00    +0.000 A 
ATOM      5  C   UNL     1      47.496   6.439  13.297  0.00  0.00    +0.000 A 
ATOM      6  N   UNL     1      46.863   5.275  13.591  0.00  0.00    +0.000 NA
ATOM      7  C   UNL     1      45.854   4.891  12.774  0.00  0.00    +0.000 A 
BRANCH   2   8
ATOM      8  C   UNL     1      44.321   5.098  10.780  0.00  0.00    +0.000 C 
BRANCH   8  13
ATOM      9  C   UNL     1      45.884   3.475   7.693  0.00  0.00    +0.000 A 
ATOM     10  C   UNL     1      45.662   2.123   7.955  0.00  0.00    +0.000 A 
ATOM     11  C   UNL     1      44.978   1.736   9.110  0.00  0.00    +0.000 A 
ATOM     12  C   UNL     1      44.526   2.696  10.015  0.00  0.00    +0.000 A 
ATOM     13  C   UNL     1      44.754   4.057   9.776  0.00  0.00    +0.000 A 
ATOM     14  C   UNL     1      45.426   4.433   8.603  0.00  0.00    +0.000 A 
BRANCH   9  16
ATOM     15  C   UNL     1      47.014   3.047   5.648  0.00  0.00    +0.000 C 
ATOM     16  O   UNL     1      46.531   3.986   6.600  0.00  0.00    +0.000 OA
ENDBRANCH   9  16
ENDBRANCH   8  13
ENDBRANCH   2   8
ENDBRANCH   1   5
BRANCH   1  17
ATOM     17  N   UNL     1      48.283   6.802  15.594  0.00  0.00    +0.000 N 
ATOM     18  C   UNL     1      49.134   6.327  16.554  0.00  0.00    +0.000 C 
ATOM     19  O   UNL     1      50.255   5.904  16.279  0.00  0.00    +0.000 OA
ATOM     20  H   UNL     1      47.296   6.930  15.802  0.00  0.00    +0.000 HD
BRANCH  18  21
ATOM     21  C   UNL     1      48.671   6.407  17.947  0.00  0.00    +0.000 A 
ATOM     22  C   UNL     1      48.699   5.267  18.742  0.00  0.00    +0.000 A 
ATOM     23  S   UNL     1      48.168   5.529  20.340  0.00  0.00    +0.000 S 
ATOM     24  C   UNL     1      47.839   7.167  20.019  0.00  0.00    +0.000 A 
ATOM     25  N   UNL     1      47.322   7.976  20.983  0.00  0.00    +0.000 NA
ATOM     26  C   UNL     1      47.093   9.186  20.596  0.00  0.00    +0.000 A 
ATOM     27  N   UNL     1      47.344   9.663  19.336  0.00  0.00    +0.000 N 
ATOM     28  C   UNL     1      47.909   8.895  18.345  0.00  0.00    +0.000 A 
ATOM     29  O   UNL     1      48.195   9.376  17.255  0.00  0.00    +0.000 OA
ATOM     30  C   UNL     1      48.157   7.517  18.718  0.00  0.00    +0.000 A 
ATOM     31  H   UNL     1      47.158  10.627  19.101  0.00  0.00    +0.000 HD
ENDBRANCH  18  21
ENDBRANCH   1  17
TORSDOF 6
ENDMDL
MODEL 3
REMARK VINA RESULT:    -7.166      2.117      3.415
REMARK INTER + INTRA:         -10.779
REMARK INTER:                  -9.795
REMARK INTRA:                  -0.983
REMARK UNBOUND:                -1.099
REMARK  Name = 
REMARK  7 active torsions:
REMARK  status: ('A' for Active; 'I' for Inactive)
REMARK    1  A    between atoms: C_1  and  O_2
REMARK    2  A    between atoms: O_2  and  C_3
REMARK    3  A    between atoms: C_7  and  C_8
REMARK    4  A    between atoms: C_8  and  C_9
REMARK    5  A    between atoms: C_12  and  C_13
REMARK    6  A    between atoms: C_13  and  N_14
REMARK    7  A    between atoms: C_15  and  C_17
REMARK                            x       y       z     vdW  Elec       q    Type
REMARK                         _______ _______ _______ _____ _____    ______ ____
ROOT
ATOM      1  C   UNL     1      47.566   4.532  15.804  0.00  0.00    +0.000 C 
ENDROOT
BRANCH   1   5
ATOM      2  C   UNL     1      45.537   5.354  12.136  0.00  0.00    +0.000 A 
ATOM      3  C   UNL     1      46.813   5.882  12.345  0.00  0.00    +0.000 A 
ATOM      4  C   UNL     1      47.486   5.623  13.537  0.00  0.00    +0.000 A 
ATOM      5  C   UNL     1      46.857   4.854  14.511  0.00  0.00    +0.000 A 
ATOM      6  N   UNL     1      45.612   4.340  14.339  0.00  0.00    +0.000 NA
ATOM      7  C   UNL     1      44.985   4.606  13.170  0.00  0.00    +0.000 A 
BRANCH   2   8
ATOM      8  C   UNL     1      44.783   5.589  10.854  0.00  0.00    +0.000 C 
BRANCH   8  13
ATOM      9  C   UNL     1      45.856   3.650   7.740  0.00  0.00    +0.000 A 
ATOM     10  C   UNL     1      45.328   2.388   8.010  0.00  0.00    +0.000 A 
ATOM     11  C   UNL     1      44.597   2.171   9.180  0.00  0.00    +0.000 A 
ATOM     12  C   UNL     1      44.402   3.208  10.092  0.00  0.00    +0.000 A 
ATOM     13  C   UNL     1      44.938   4.478   9.844  0.00  0.00    +0.000 A 
ATOM     14  C   UNL     1      45.655   4.687   8.656  0.00  0.00    +0.000 A 
BRANCH   9  16
ATOM     15  C   UNL     1      46.928   2.944   5.741  0.00  0.00    +0.000 C 
ATOM     16  O   UNL     1      46.581   3.996   6.632  0.00  0.00    +0.000 OA
ENDBRANCH   9  16
ENDBRANCH   8  13
ENDBRANCH   2   8
ENDBRANCH   1   5
BRANCH   1  17
ATOM     17  N   UNL     1      47.911   5.722  16.551  0.00  0.00    +0.000 N 
ATOM     18  C   UNL     1      49.196   6.014  16.919  0.00  0.00    +0.000 C 
ATOM     19  O   UNL     1      50.137   5.274  16.640  0.00  0.00    +0.000 OA
ATOM     20  H   UNL     1      47.132   6.215  16.980  0.00  0.00    +0.000 HD
BRANCH  18  21
ATOM     21  C   UNL     1      49.412   7.295  17.609  0.00  0.00    +0.000 A 
ATOM     22  C   UNL     1      49.990   7.299  18.873  0.00  0.00    +0.000 A 
ATOM     23  S   UNL     1      50.210   8.859  19.523  0.00  0.00    +0.000 S 
ATOM     24  C   UNL     1      49.502   9.587  18.159  0.00  0.00    +0.000 A 
ATOM     25  N   UNL     1      49.353  10.937  18.087  0.00  0.00    +0.000 NA
ATOM     26  C   UNL     1      48.774  11.353  17.010  0.00  0.00    +0.000 A 
ATOM     27  N   UNL     1      48.340  10.541  15.995  0.00  0.00    +0.000 N 
ATOM     28  C   UNL     1      48.511   9.177  16.004  0.00  0.00    +0.000 A 
ATOM     29  O   UNL     1      48.184   8.490  15.043  0.00  0.00    +0.000 OA
ATOM     30  C   UNL     1      49.129   8.654  17.206  0.00  0.00    +0.000 A 
ATOM     31  H   UNL     1      47.909  10.930  15.169  0.00  0.00    +0.000 HD
ENDBRANCH  18  21
ENDBRANCH   1  17
TORSDOF 6
ENDMDL
MODEL 4
REMARK VINA RESULT:    -6.951      3.553      7.955
REMARK INTER + INTRA:         -10.489
REMARK INTER:                  -9.240
REMARK INTRA:                  -1.249
REMARK UNBOUND:                -1.099
REMARK  Name = 
REMARK  7 active torsions:
REMARK  status: ('A' for Active; 'I' for Inactive)
REMARK    1  A    between atoms: C_1  and  O_2
REMARK    2  A    between atoms: O_2  and  C_3
REMARK    3  A    between atoms: C_7  and  C_8
REMARK    4  A    between atoms: C_8  and  C_9
REMARK    5  A    between atoms: C_12  and  C_13
REMARK    6  A    between atoms: C_13  and  N_14
REMARK    7  A    between atoms: C_15  and  C_17
REMARK                            x       y       z     vdW  Elec       q    Type
REMARK                         _______ _______ _______ _____ _____    ______ ____
ROOT
ATOM      1  C   UNL     1      48.344   8.817  15.177  0.00  0.00    +0.000 C 
ENDROOT
BRANCH   1   5
ATOM      2  C   UNL     1      50.886   6.312  17.525  0.00  0.00    +0.000 A 
ATOM      3  C   UNL     1      51.278   6.664  16.232  0.00  0.00    +0.000 A 
ATOM      4  C   UNL     1      50.458   7.479  15.454  0.00  0.00    +0.000 A 
ATOM      5  C   UNL     1      49.245   7.912  15.981  0.00  0.00    +0.000 A 
ATOM      6  N   UNL     1      48.834   7.574  17.230  0.00  0.00    +0.000 NA
ATOM      7  C   UNL     1      49.653   6.784  17.963  0.00  0.00    +0.000 A 
BRANCH   2   8
ATOM      8  C   UNL     1      51.751   5.453  18.408  0.00  0.00    +0.000 C 
BRANCH   8  13
ATOM      9  C   UNL     1      50.577   2.102  16.995  0.00  0.00    +0.000 A 
ATOM     10  C   UNL     1      51.652   1.276  17.324  0.00  0.00    +0.000 A 
ATOM     11  C   UNL     1      52.741   1.792  18.031  0.00  0.00    +0.000 A 
ATOM     12  C   UNL     1      52.767   3.137  18.400  0.00  0.00    +0.000 A 
ATOM     13  C   UNL     1      51.703   3.984  18.065  0.00  0.00    +0.000 A 
ATOM     14  C   UNL     1      50.607   3.449  17.371  0.00  0.00    +0.000 A 
BRANCH   9  16
ATOM     15  C   UNL     1      48.293   2.526  16.497  0.00  0.00    +0.000 C 
ATOM     16  O   UNL     1      49.452   1.722  16.315  0.00  0.00    +0.000 OA
ENDBRANCH   9  16
ENDBRANCH   8  13
ENDBRANCH   2   8
ENDBRANCH   1   5
BRANCH   1  17
ATOM     17  N   UNL     1      47.299   8.085  14.495  0.00  0.00    +0.000 N 
ATOM     18  C   UNL     1      47.199   8.039  13.132  0.00  0.00    +0.000 C 
ATOM     19  O   UNL     1      47.995   8.626  12.401  0.00  0.00    +0.000 OA
ATOM     20  H   UNL     1      46.516   7.792  15.075  0.00  0.00    +0.000 HD
BRANCH  18  21
ATOM     21  C   UNL     1      46.133   7.194  12.574  0.00  0.00    +0.000 A 
ATOM     22  C   UNL     1      45.112   7.784  11.838  0.00  0.00    +0.000 A 
ATOM     23  S   UNL     1      43.974   6.671  11.227  0.00  0.00    +0.000 S 
ATOM     24  C   UNL     1      44.779   5.364  11.958  0.00  0.00    +0.000 A 
ATOM     25  N   UNL     1      44.297   4.097  11.844  0.00  0.00    +0.000 NA
ATOM     26  C   UNL     1      44.989   3.206  12.472  0.00  0.00    +0.000 A 
ATOM     27  N   UNL     1      46.125   3.465  13.194  0.00  0.00    +0.000 N 
ATOM     28  C   UNL     1      46.674   4.722  13.297  0.00  0.00    +0.000 A 
ATOM     29  O   UNL     1      47.735   4.904  13.882  0.00  0.00    +0.000 OA
ATOM     30  C   UNL     1      45.918   5.767  12.635  0.00  0.00    +0.000 A 
ATOM     31  H   UNL     1      46.631   2.720  13.649  0.00  0.00    +0.000 HD
ENDBRANCH  18  21
ENDBRANCH   1  17
TORSDOF 6
ENDMDL
MODEL 5
REMARK VINA RESULT:    -6.855      3.625      8.345
REMARK INTER + INTRA:         -10.359
REMARK INTER:                  -9.385
REMARK INTRA:                  -0.974
REMARK UNBOUND:                -1.099
REMARK  Name = 
REMARK  7 active torsions:
REMARK  status: ('A' for Active; 'I' for Inactive)
REMARK    1  A    between atoms: C_1  and  O_2
REMARK    2  A    between atoms: O_2  and  C_3
REMARK    3  A    between atoms: C_7  and  C_8
REMARK    4  A    between atoms: C_8  and  C_9
REMARK    5  A    between atoms: C_12  and  C_13
REMARK    6  A    between atoms: C_13  and  N_14
REMARK    7  A    between atoms: C_15  and  C_17
REMARK                            x       y       z     vdW  Elec       q    Type
REMARK                         _______ _______ _______ _____ _____    ______ ____
ROOT
ATOM      1  C   UNL     1      48.623   8.333  14.845  0.00  0.00    +0.000 C 
ENDROOT
BRANCH   1   5
ATOM      2  C   UNL     1      50.965   6.148  17.671  0.00  0.00    +0.000 A 
ATOM      3  C   UNL     1      49.701   6.610  18.043  0.00  0.00    +0.000 A 
ATOM      4  C   UNL     1      48.927   7.325  17.131  0.00  0.00    +0.000 A 
ATOM      5  C   UNL     1      49.444   7.584  15.865  0.00  0.00    +0.000 A 
ATOM      6  N   UNL     1      50.675   7.157  15.483  0.00  0.00    +0.000 NA
ATOM      7  C   UNL     1      51.402   6.462  16.389  0.00  0.00    +0.000 A 
BRANCH   2   8
ATOM      8  C   UNL     1      51.826   5.351  18.615  0.00  0.00    +0.000 C 
BRANCH   8  13
ATOM      9  C   UNL     1      51.011   1.929  17.122  0.00  0.00    +0.000 A 
ATOM     10  C   UNL     1      52.119   1.185  17.525  0.00  0.00    +0.000 A 
ATOM     11  C   UNL     1      53.113   1.778  18.307  0.00  0.00    +0.000 A 
ATOM     12  C   UNL     1      53.012   3.118  18.678  0.00  0.00    +0.000 A 
ATOM     13  C   UNL     1      51.913   3.885  18.269  0.00  0.00    +0.000 A 
ATOM     14  C   UNL     1      50.912   3.272  17.499  0.00  0.00    +0.000 A 
BRANCH   9  16
ATOM     15  C   UNL     1      48.747   2.193  16.450  0.00  0.00    +0.000 C 
ATOM     16  O   UNL     1      49.968   1.469  16.364  0.00  0.00    +0.000 OA
ENDBRANCH   9  16
ENDBRANCH   8  13
ENDBRANCH   2   8
ENDBRANCH   1   5
BRANCH   1  17
ATOM     17  N   UNL     1      47.556   7.524  14.297  0.00  0.00    +0.000 N 
ATOM     18  C   UNL     1      47.768   6.580  13.331  0.00  0.00    +0.000 C 
ATOM     19  O   UNL     1      48.885   6.367  12.863  0.00  0.00    +0.000 OA
ATOM     20  H   UNL     1      46.612   7.842  14.503  0.00  0.00    +0.000 HD
BRANCH  18  21
ATOM     21  C   UNL     1      46.606   5.778  12.922  0.00  0.00    +0.000 A 
ATOM     22  C   UNL     1      46.627   4.401  13.112  0.00  0.00    +0.000 A 
ATOM     23  S   UNL     1      45.194   3.618  12.624  0.00  0.00    +0.000 S 
ATOM     24  C   UNL     1      44.507   5.083  12.101  0.00  0.00    +0.000 A 
ATOM     25  N   UNL     1      43.269   5.111  11.539  0.00  0.00    +0.000 NA
ATOM     26  C   UNL     1      42.882   6.283  11.160  0.00  0.00    +0.000 A 
ATOM     27  N   UNL     1      43.617   7.431  11.302  0.00  0.00    +0.000 N 
ATOM     28  C   UNL     1      44.852   7.457  11.905  0.00  0.00    +0.000 A 
ATOM     29  O   UNL     1      45.446   8.513  12.089  0.00  0.00    +0.000 OA
ATOM     30  C   UNL     1      45.348   6.160  12.322  0.00  0.00    +0.000 A 
ATOM     31  H   UNL     1      43.251   8.321  10.999  0.00  0.00    +0.000 HD
ENDBRANCH  18  21
ENDBRANCH   1  17
TORSDOF 6
ENDMDL
MODEL 6
REMARK VINA RESULT:    -6.787      1.738      2.645
REMARK INTER + INTRA:         -10.268
REMARK INTER:                  -8.877
REMARK INTRA:                  -1.391
REMARK UNBOUND:                -1.099
REMARK  Name = 
REMARK  7 active torsions:
REMARK  status: ('A' for Active; 'I' for Inactive)
REMARK    1  A    between atoms: C_1  and  O_2
REMARK    2  A    between atoms: O_2  and  C_3
REMARK    3  A    between atoms: C_7  and  C_8
REMARK    4  A    between atoms: C_8  and  C_9
REMARK    5  A    between atoms: C_12  and  C_13
REMARK    6  A    between atoms: C_13  and  N_14
REMARK    7  A    between atoms: C_15  and  C_17
REMARK                            x       y       z     vdW  Elec       q    Type
REMARK                         _______ _______ _______ _____ _____    ______ ____
ROOT
ATOM      1  C   UNL     1      49.146   8.761  14.273  0.00  0.00    +0.000 C 
ENDROOT
BRANCH   1   5
ATOM      2  C   UNL     1      45.846   7.440  11.904  0.00  0.00    +0.000 A 
ATOM      3  C   UNL     1      47.085   6.813  11.760  0.00  0.00    +0.000 A 
ATOM      4  C   UNL     1      48.170   7.235  12.525  0.00  0.00    +0.000 A 
ATOM      5  C   UNL     1      47.999   8.295  13.410  0.00  0.00    +0.000 A 
ATOM      6  N   UNL     1      46.809   8.930  13.560  0.00  0.00    +0.000 NA
ATOM      7  C   UNL     1      45.772   8.496  12.805  0.00  0.00    +0.000 A 
BRANCH   2   8
ATOM      8  C   UNL     1      44.641   7.001  11.115  0.00  0.00    +0.000 C 
BRANCH   8  13
ATOM      9  C   UNL     1      43.887   3.272  10.758  0.00  0.00    +0.000 A 
ATOM     10  C   UNL     1      43.438   2.961  12.041  0.00  0.00    +0.000 A 
ATOM     11  C   UNL     1      43.345   3.961  13.012  0.00  0.00    +0.000 A 
ATOM     12  C   UNL     1      43.715   5.271  12.710  0.00  0.00    +0.000 A 
ATOM     13  C   UNL     1      44.183   5.599  11.431  0.00  0.00    +0.000 A 
ATOM     14  C   UNL     1      44.253   4.588  10.460  0.00  0.00    +0.000 A 
BRANCH   9  16
ATOM     15  C   UNL     1      44.987   2.711   8.728  0.00  0.00    +0.000 C 
ATOM     16  O   UNL     1      44.017   2.392   9.717  0.00  0.00    +0.000 OA
ENDBRANCH   9  16
ENDBRANCH   8  13
ENDBRANCH   2   8
ENDBRANCH   1   5
BRANCH   1  17
ATOM     17  N   UNL     1      49.287   7.966  15.473  0.00  0.00    +0.000 N 
ATOM     18  C   UNL     1      48.675   8.295  16.652  0.00  0.00    +0.000 C 
ATOM     19  O   UNL     1      47.969   9.296  16.761  0.00  0.00    +0.000 OA
ATOM     20  H   UNL     1      50.037   7.279  15.461  0.00  0.00    +0.000 HD
BRANCH  18  21
ATOM     21  C   UNL     1      48.844   7.356  17.770  0.00  0.00    +0.000 A 
ATOM     22  C   UNL     1      49.209   7.844  19.020  0.00  0.00    +0.000 A 
ATOM     23  S   UNL     1      49.327   6.639  20.220  0.00  0.00    +0.000 S 
ATOM     24  C   UNL     1      48.938   5.414  19.106  0.00  0.00    +0.000 A 
ATOM     25  N   UNL     1      48.894   4.110  19.490  0.00  0.00    +0.000 NA
ATOM     26  C   UNL     1      48.615   3.284  18.539  0.00  0.00    +0.000 A 
ATOM     27  N   UNL     1      48.366   3.644  17.240  0.00  0.00    +0.000 N 
ATOM     28  C   UNL     1      48.354   4.952  16.817  0.00  0.00    +0.000 A 
ATOM     29  O   UNL     1      48.047   5.244  15.667  0.00  0.00    +0.000 OA
ATOM     30  C   UNL     1      48.692   5.921  17.841  0.00  0.00    +0.000 A 
ATOM     31  H   UNL     1      48.137   2.949  16.544  0.00  0.00    +0.000 HD
ENDBRANCH  18  21
ENDBRANCH   1  17
TORSDOF 6
ENDMDL
MODEL 7
REMARK VINA RESULT:    -6.778      2.159      3.729
REMARK INTER + INTRA:         -10.254
REMARK INTER:                  -9.351
REMARK INTRA:                  -0.903
REMARK UNBOUND:                -1.099
REMARK  Name = 
REMARK  7 active torsions:
REMARK  status: ('A' for Active; 'I' for Inactive)
REMARK    1  A    between atoms: C_1  and  O_2
REMARK    2  A    between atoms: O_2  and  C_3
REMARK    3  A    between atoms: C_7  and  C_8
REMARK    4  A    between atoms: C_8  and  C_9
REMARK    5  A    between atoms: C_12  and  C_13
REMARK    6  A    between atoms: C_13  and  N_14
REMARK    7  A    between atoms: C_15  and  C_17
REMARK                            x       y       z     vdW  Elec       q    Type
REMARK                         _______ _______ _______ _____ _____    ______ ____
ROOT
ATOM      1  C   UNL     1      46.358   4.710  14.617  0.00  0.00    +0.000 C 
ENDROOT
BRANCH   1   5
ATOM      2  C   UNL     1      44.819   4.200  10.665  0.00  0.00    +0.000 A 
ATOM      3  C   UNL     1      45.442   5.402  11.006  0.00  0.00    +0.000 A 
ATOM      4  C   UNL     1      45.947   5.583  12.292  0.00  0.00    +0.000 A 
ATOM      5  C   UNL     1      45.800   4.559  13.223  0.00  0.00    +0.000 A 
ATOM      6  N   UNL     1      45.187   3.386  12.921  0.00  0.00    +0.000 NA
ATOM      7  C   UNL     1      44.710   3.238  11.663  0.00  0.00    +0.000 A 
BRANCH   2   8
ATOM      8  C   UNL     1      44.280   3.953   9.281  0.00  0.00    +0.000 C 
BRANCH   8  13
ATOM      9  C   UNL     1      46.622   2.676   6.544  0.00  0.00    +0.000 A 
ATOM     10  C   UNL     1      46.826   1.358   6.953  0.00  0.00    +0.000 A 
ATOM     11  C   UNL     1      46.181   0.871   8.092  0.00  0.00    +0.000 A 
ATOM     12  C   UNL     1      45.342   1.701   8.836  0.00  0.00    +0.000 A 
ATOM     13  C   UNL     1      45.138   3.032   8.449  0.00  0.00    +0.000 A 
ATOM     14  C   UNL     1      45.777   3.503   7.291  0.00  0.00    +0.000 A 
BRANCH   9  16
ATOM     15  C   UNL     1      48.061   2.473   4.665  0.00  0.00    +0.000 C 
ATOM     16  O   UNL     1      47.184   3.273   5.448  0.00  0.00    +0.000 OA
ENDBRANCH   9  16
ENDBRANCH   8  13
ENDBRANCH   2   8
ENDBRANCH   1   5
BRANCH   1  17
ATOM     17  N   UNL     1      47.240   5.851  14.735  0.00  0.00    +0.000 N 
ATOM     18  C   UNL     1      48.369   5.833  15.506  0.00  0.00    +0.000 C 
ATOM     19  O   UNL     1      48.699   4.841  16.154  0.00  0.00    +0.000 OA
ATOM     20  H   UNL     1      46.866   6.734  14.397  0.00  0.00    +0.000 HD
BRANCH  18  21
ATOM     21  C   UNL     1      49.214   7.036  15.472  0.00  0.00    +0.000 A 
ATOM     22  C   UNL     1      49.526   7.682  16.662  0.00  0.00    +0.000 A 
ATOM     23  S   UNL     1      50.543   9.036  16.463  0.00  0.00    +0.000 S 
ATOM     24  C   UNL     1      50.569   8.836  14.774  0.00  0.00    +0.000 A 
ATOM     25  N   UNL     1      51.254   9.701  13.980  0.00  0.00    +0.000 NA
ATOM     26  C   UNL     1      51.165   9.450  12.717  0.00  0.00    +0.000 A 
ATOM     27  N   UNL     1      50.462   8.404  12.177  0.00  0.00    +0.000 N 
ATOM     28  C   UNL     1      49.794   7.479  12.943  0.00  0.00    +0.000 A 
ATOM     29  O   UNL     1      49.243   6.510  12.432  0.00  0.00    +0.000 OA
ATOM     30  C   UNL     1      49.836   7.733  14.370  0.00  0.00    +0.000 A 
ATOM     31  H   UNL     1      50.445   8.251  11.179  0.00  0.00    +0.000 HD
ENDBRANCH  18  21
ENDBRANCH   1  17
TORSDOF 6
ENDMDL
MODEL 8
REMARK VINA RESULT:    -6.683      3.033      8.607
REMARK INTER + INTRA:         -10.126
REMARK INTER:                  -9.153
REMARK INTRA:                  -0.973
REMARK UNBOUND:                -1.099
REMARK  Name = 
REMARK  7 active torsions:
REMARK  status: ('A' for Active; 'I' for Inactive)
REMARK    1  A    between atoms: C_1  and  O_2
REMARK    2  A    between atoms: O_2  and  C_3
REMARK    3  A    between atoms: C_7  and  C_8
REMARK    4  A    between atoms: C_8  and  C_9
REMARK    5  A    between atoms: C_12  and  C_13
REMARK    6  A    between atoms: C_13  and  N_14
REMARK    7  A    between atoms: C_15  and  C_17
REMARK                            x       y       z     vdW  Elec       q    Type
REMARK                         _______ _______ _______ _____ _____    ______ ____
ROOT
ATOM      1  C   UNL     1      47.778   7.760  11.960  0.00  0.00    +0.000 C 
ENDROOT
BRANCH   1   5
ATOM      2  C   UNL     1      49.394   8.040  15.904  0.00  0.00    +0.000 A 
ATOM      3  C   UNL     1      48.362   8.901  15.526  0.00  0.00    +0.000 A 
ATOM      4  C   UNL     1      47.827   8.821  14.242  0.00  0.00    +0.000 A 
ATOM      5  C   UNL     1      48.351   7.891  13.350  0.00  0.00    +0.000 A 
ATOM      6  N   UNL     1      49.363   7.051  13.688  0.00  0.00    +0.000 NA
ATOM      7  C   UNL     1      49.861   7.149  14.943  0.00  0.00    +0.000 A 
BRANCH   2   8
ATOM      8  C   UNL     1      49.987   8.074  17.289  0.00  0.00    +0.000 C 
BRANCH   8  13
ATOM      9  C   UNL     1      47.904   5.161  18.624  0.00  0.00    +0.000 A 
ATOM     10  C   UNL     1      48.454   4.994  19.895  0.00  0.00    +0.000 A 
ATOM     11  C   UNL     1      49.472   5.842  20.334  0.00  0.00    +0.000 A 
ATOM     12  C   UNL     1      49.956   6.851  19.502  0.00  0.00    +0.000 A 
ATOM     13  C   UNL     1      49.427   7.024  18.217  0.00  0.00    +0.000 A 
ATOM     14  C   UNL     1      48.391   6.176  17.795  0.00  0.00    +0.000 A 
BRANCH   9  16
ATOM     15  C   UNL     1      47.291   3.208  17.418  0.00  0.00    +0.000 C 
ATOM     16  O   UNL     1      46.902   4.406  18.077  0.00  0.00    +0.000 OA
ENDBRANCH   9  16
ENDBRANCH   8  13
ENDBRANCH   2   8
ENDBRANCH   1   5
BRANCH   1  17
ATOM     17  N   UNL     1      47.029   6.534  11.789  0.00  0.00    +0.000 N 
ATOM     18  C   UNL     1      45.668   6.479  11.914  0.00  0.00    +0.000 C 
ATOM     19  O   UNL     1      44.999   7.473  12.189  0.00  0.00    +0.000 OA
ATOM     20  H   UNL     1      47.578   5.679  11.790  0.00  0.00    +0.000 HD
BRANCH  18  21
ATOM     21  C   UNL     1      45.030   5.183  11.638  0.00  0.00    +0.000 A 
ATOM     22  C   UNL     1      44.317   4.546  12.646  0.00  0.00    +0.000 A 
ATOM     23  S   UNL     1      43.605   3.075  12.161  0.00  0.00    +0.000 S 
ATOM     24  C   UNL     1      44.259   3.212  10.597  0.00  0.00    +0.000 A 
ATOM     25  N   UNL     1      44.047   2.244   9.665  0.00  0.00    +0.000 NA
ATOM     26  C   UNL     1      44.625   2.460   8.531  0.00  0.00    +0.000 A 
ATOM     27  N   UNL     1      45.386   3.563   8.241  0.00  0.00    +0.000 N 
ATOM     28  C   UNL     1      45.589   4.587   9.135  0.00  0.00    +0.000 A 
ATOM     29  O   UNL     1      46.207   5.596   8.816  0.00  0.00    +0.000 OA
ATOM     30  C   UNL     1      44.987   4.380  10.438  0.00  0.00    +0.000 A 
ATOM     31  H   UNL     1      45.798   3.682   7.328  0.00  0.00    +0.000 HD
ENDBRANCH  18  21
ENDBRANCH   1  17
TORSDOF 6
ENDMDL
MODEL 9
REMARK VINA RESULT:    -6.505      4.948      7.757
REMARK INTER + INTRA:          -9.887
REMARK INTER:                  -8.926
REMARK INTRA:                  -0.961
REMARK UNBOUND:                -1.099
REMARK  Name = 
REMARK  7 active torsions:
REMARK  status: ('A' for Active; 'I' for Inactive)
REMARK    1  A    between atoms: C_1  and  O_2
REMARK    2  A    between atoms: O_2  and  C_3
REMARK    3  A    between atoms: C_7  and  C_8
REMARK    4  A    between atoms: C_8  and  C_9
REMARK    5  A    between atoms: C_12  and  C_13
REMARK    6  A    between atoms: C_13  and  N_14
REMARK    7  A    between atoms: C_15  and  C_17
REMARK                            x       y       z     vdW  Elec       q    Type
REMARK                         _______ _______ _______ _____ _____    ______ ____
ROOT
ATOM      1  C   UNL     1      46.648   8.266  12.492  0.00  0.00    +0.000 C 
ENDROOT
BRANCH   1   5
ATOM      2  C   UNL     1      50.736   8.710  11.336  0.00  0.00    +0.000 A 
ATOM      3  C   UNL     1      50.255   7.443  11.673  0.00  0.00    +0.000 A 
ATOM      4  C   UNL     1      48.924   7.284  12.052  0.00  0.00    +0.000 A 
ATOM      5  C   UNL     1      48.101   8.405  12.109  0.00  0.00    +0.000 A 
ATOM      6  N   UNL     1      48.548   9.649  11.800  0.00  0.00    +0.000 NA
ATOM      7  C   UNL     1      49.844   9.772  11.431  0.00  0.00    +0.000 A 
BRANCH   2   8
ATOM      8  C   UNL     1      52.161   8.924  10.897  0.00  0.00    +0.000 C 
BRANCH   8  13
ATOM      9  C   UNL     1      53.046   6.803   7.844  0.00  0.00    +0.000 A 
ATOM     10  C   UNL     1      53.817   5.797   8.425  0.00  0.00    +0.000 A 
ATOM     11  C   UNL     1      54.024   5.784   9.807  0.00  0.00    +0.000 A 
ATOM     12  C   UNL     1      53.474   6.782  10.611  0.00  0.00    +0.000 A 
ATOM     13  C   UNL     1      52.709   7.808  10.042  0.00  0.00    +0.000 A 
ATOM     14  C   UNL     1      52.494   7.799   8.655  0.00  0.00    +0.000 A 
BRANCH   9  16
ATOM     15  C   UNL     1      53.075   8.174   5.904  0.00  0.00    +0.000 C 
ATOM     16  O   UNL     1      52.761   6.927   6.511  0.00  0.00    +0.000 OA
ENDBRANCH   9  16
ENDBRANCH   8  13
ENDBRANCH   2   8
ENDBRANCH   1   5
BRANCH   1  17
ATOM     17  N   UNL     1      46.144   6.930  12.258  0.00  0.00    +0.000 N 
ATOM     18  C   UNL     1      44.926   6.692  11.684  0.00  0.00    +0.000 C 
ATOM     19  O   UNL     1      44.180   7.606  11.337  0.00  0.00    +0.000 OA
ATOM     20  H   UNL     1      46.638   6.183  12.740  0.00  0.00    +0.000 HD
BRANCH  18  21
ATOM     21  C   UNL     1      44.574   5.286  11.437  0.00  0.00    +0.000 A 
ATOM     22  C   UNL     1      43.823   4.595  12.381  0.00  0.00    +0.000 A 
ATOM     23  S   UNL     1      43.465   2.990  11.933  0.00  0.00    +0.000 S 
ATOM     24  C   UNL     1      44.335   3.144  10.480  0.00  0.00    +0.000 A 
ATOM     25  N   UNL     1      44.450   2.095   9.622  0.00  0.00    +0.000 NA
ATOM     26  C   UNL     1      45.161   2.340   8.573  0.00  0.00    +0.000 A 
ATOM     27  N   UNL     1      45.760   3.542   8.300  0.00  0.00    +0.000 N 
ATOM     28  C   UNL     1      45.633   4.642   9.114  0.00  0.00    +0.000 A 
ATOM     29  O   UNL     1      46.114   5.724   8.799  0.00  0.00    +0.000 OA
ATOM     30  C   UNL     1      44.868   4.412  10.324  0.00  0.00    +0.000 A 
ATOM     31  H   UNL     1      46.291   3.676   7.452  0.00  0.00    +0.000 HD
ENDBRANCH  18  21
ENDBRANCH   1  17
TORSDOF 6
ENDMDL
