MODEL 1
REMARK VINA RESULT:    -7.199      0.000      0.000
REMARK INTER + INTRA:         -11.050
REMARK INTER:                 -10.144
REMARK INTRA:                  -0.906
REMARK UNBOUND:                -0.906
REMARK  Name = 
REMARK  9 active torsions:
REMARK  status: ('A' for Active; 'I' for Inactive)
REMARK    1  A    between atoms: C_1  and  O_2
REMARK    2  A    between atoms: O_2  and  C_3
REMARK    3  A    between atoms: C_10  and  C_11
REMARK    4  A    between atoms: N_13  and  C_14
REMARK    5  A    between atoms: C_14  and  C_15
REMARK    6  A    between atoms: C_18  and  N_19
REMARK    7  A    between atoms: N_19  and  C_20
REMARK    8  A    between atoms: C_20  and  C_21
REMARK    9  A    between atoms: N_23  and  C_24
REMARK                            x       y       z     vdW  Elec       q    Type
REMARK                         _______ _______ _______ _____ _____    ______ ____
ROOT
ATOM      1  C   UNL     1      49.050   7.164  15.266  0.00  0.00    +0.000 C 
ENDROOT
BRANCH   1   2
ATOM      2  C   UNL     1      48.023   6.475  14.399  0.00  0.00    +0.000 A 
ATOM      3  C   UNL     1      47.438   5.289  14.845  0.00  0.00    +0.000 A 
ATOM      4  C   UNL     1      46.432   4.659  14.107  0.00  0.00    +0.000 A 
ATOM      5  C   UNL     1      46.012   5.153  12.866  0.00  0.00    +0.000 A 
ATOM      6  C   UNL     1      46.633   6.318  12.398  0.00  0.00    +0.000 A 
ATOM      7  C   UNL     1      47.617   6.982  13.157  0.00  0.00    +0.000 A 
BRANCH   5   8
ATOM      8  N   UNL     1      44.937   4.620  12.147  0.00  0.00    +0.000 N 
ATOM      9  H   UNL     1      44.429   5.312  11.598  0.00  0.00    +0.000 HD
BRANCH   8  10
ATOM     10  C   UNL     1      45.101   3.340  11.452  0.00  0.00    +0.000 C 
BRANCH  10  11
ATOM     11  C   UNL     1      44.218   3.255  10.188  0.00  0.00    +0.000 C 
ATOM     12  C   UNL     1      44.616   2.030   9.329  0.00  0.00    +0.000 C 
ATOM     13  N   UNL     1      45.952   2.215   8.725  0.00  0.00    +0.000 NA
ATOM     14  C   UNL     1      46.348   1.057   7.930  0.00  0.00    +0.000 C 
ATOM     15  C   UNL     1      45.923   3.439   7.901  0.00  0.00    +0.000 C 
ATOM     16  C   UNL     1      45.514   4.658   8.743  0.00  0.00    +0.000 C 
ATOM     17  O   UNL     1      44.255   4.467   9.400  0.00  0.00    +0.000 OA
ENDBRANCH  10  11
ENDBRANCH   8  10
ENDBRANCH   5   8
ENDBRANCH   1   2
BRANCH   1  20
ATOM     18  C   UNL     1      49.971   5.969  17.231  0.00  0.00    +0.000 C 
ATOM     19  O   UNL     1      49.155   6.486  17.998  0.00  0.00    +0.000 OA
ATOM     20  N   UNL     1      49.946   6.218  15.887  0.00  0.00    +0.000 N 
ATOM     21  H   UNL     1      50.669   5.831  15.298  0.00  0.00    +0.000 HD
BRANCH  18  29
ATOM     22  C   UNL     1      50.393   2.556  17.134  0.00  0.00    +0.000 A 
ATOM     23  N   UNL     1      50.840   1.288  17.145  0.00  0.00    +0.000 NA
ATOM     24  C   UNL     1      52.029   1.046  17.700  0.00  0.00    +0.000 A 
ATOM     25  N   UNL     1      52.840   1.935  18.265  0.00  0.00    +0.000 NA
ATOM     26  C   UNL     1      52.367   3.192  18.220  0.00  0.00    +0.000 A 
ATOM     27  S   UNL     1      53.265   4.458  18.904  0.00  0.00    +0.000 S 
ATOM     28  C   UNL     1      52.101   5.606  18.431  0.00  0.00    +0.000 A 
ATOM     29  C   UNL     1      51.022   5.066  17.738  0.00  0.00    +0.000 A 
ATOM     30  C   UNL     1      51.169   3.613  17.650  0.00  0.00    +0.000 A 
BRANCH  22  32
ATOM     31  C   UNL     1      48.112   2.937  17.470  0.00  0.00    +0.000 C 
ATOM     32  O   UNL     1      49.178   2.811  16.533  0.00  0.00    +0.000 OA
ENDBRANCH  22  32
ENDBRANCH  18  29
ENDBRANCH   1  20
TORSDOF 7
ENDMDL
MODEL 2
REMARK VINA RESULT:    -7.152      2.443      3.004
REMARK INTER + INTRA:         -10.984
REMARK INTER:                  -9.924
REMARK INTRA:                  -1.060
REMARK UNBOUND:                -0.906
REMARK  Name = 
REMARK  9 active torsions:
REMARK  status: ('A' for Active; 'I' for Inactive)
REMARK    1  A    between atoms: C_1  and  O_2
REMARK    2  A    between atoms: O_2  and  C_3
REMARK    3  A    between atoms: C_10  and  C_11
REMARK    4  A    between atoms: N_13  and  C_14
REMARK    5  A    between atoms: C_14  and  C_15
REMARK    6  A    between atoms: C_18  and  N_19
REMARK    7  A    between atoms: N_19  and  C_20
REMARK    8  A    between atoms: C_20  and  C_21
REMARK    9  A    between atoms: N_23  and  C_24
REMARK                            x       y       z     vdW  Elec       q    Type
REMARK                         _______ _______ _______ _____ _____    ______ ____
ROOT
ATOM      1  C   UNL     1      48.280   7.716  13.624  0.00  0.00    +0.000 C 
ENDROOT
BRANCH   1   2
ATOM      2  C   UNL     1      47.217   6.814  13.045  0.00  0.00    +0.000 A 
ATOM      3  C   UNL     1      46.621   7.152  11.829  0.00  0.00    +0.000 A 
ATOM      4  C   UNL     1      45.686   6.307  11.224  0.00  0.00    +0.000 A 
ATOM      5  C   UNL     1      45.262   5.122  11.837  0.00  0.00    +0.000 A 
ATOM      6  C   UNL     1      45.826   4.808  13.081  0.00  0.00    +0.000 A 
ATOM      7  C   UNL     1      46.801   5.633  13.676  0.00  0.00    +0.000 A 
BRANCH   5   8
ATOM      8  N   UNL     1      44.414   4.196  11.221  0.00  0.00    +0.000 N 
ATOM      9  H   UNL     1      43.642   4.624  10.711  0.00  0.00    +0.000 HD
BRANCH   8  10
ATOM     10  C   UNL     1      44.993   3.041  10.528  0.00  0.00    +0.000 C 
BRANCH  10  11
ATOM     11  C   UNL     1      44.420   2.881   9.103  0.00  0.00    +0.000 C 
ATOM     12  C   UNL     1      44.930   1.568   8.458  0.00  0.00    +0.000 C 
ATOM     13  N   UNL     1      46.378   1.642   8.172  0.00  0.00    +0.000 NA
ATOM     14  C   UNL     1      46.874   0.403   7.583  0.00  0.00    +0.000 C 
ATOM     15  C   UNL     1      46.615   2.788   7.273  0.00  0.00    +0.000 C 
ATOM     16  C   UNL     1      46.098   4.093   7.898  0.00  0.00    +0.000 C 
ATOM     17  O   UNL     1      44.712   4.015   8.254  0.00  0.00    +0.000 OA
ENDBRANCH  10  11
ENDBRANCH   8  10
ENDBRANCH   5   8
ENDBRANCH   1   2
BRANCH   1  20
ATOM     18  C   UNL     1      49.184   7.196  15.872  0.00  0.00    +0.000 C 
ATOM     19  O   UNL     1      50.213   6.702  15.405  0.00  0.00    +0.000 OA
ATOM     20  N   UNL     1      48.227   7.748  15.067  0.00  0.00    +0.000 N 
ATOM     21  H   UNL     1      47.367   8.084  15.477  0.00  0.00    +0.000 HD
BRANCH  18  29
ATOM     22  C   UNL     1      48.848   4.695  18.211  0.00  0.00    +0.000 A 
ATOM     23  N   UNL     1      48.782   3.931  19.315  0.00  0.00    +0.000 NA
ATOM     24  C   UNL     1      48.648   4.542  20.494  0.00  0.00    +0.000 A 
ATOM     25  N   UNL     1      48.561   5.851  20.707  0.00  0.00    +0.000 NA
ATOM     26  C   UNL     1      48.649   6.581  19.582  0.00  0.00    +0.000 A 
ATOM     27  S   UNL     1      48.547   8.273  19.662  0.00  0.00    +0.000 S 
ATOM     28  C   UNL     1      48.767   8.415  17.981  0.00  0.00    +0.000 A 
ATOM     29  C   UNL     1      48.935   7.199  17.327  0.00  0.00    +0.000 A 
ATOM     30  C   UNL     1      48.823   6.101  18.288  0.00  0.00    +0.000 A 
BRANCH  22  32
ATOM     31  C   UNL     1      47.801   3.544  16.467  0.00  0.00    +0.000 C 
ATOM     32  O   UNL     1      49.018   4.065  16.995  0.00  0.00    +0.000 OA
ENDBRANCH  22  32
ENDBRANCH  18  29
ENDBRANCH   1  20
TORSDOF 7
ENDMDL
MODEL 3
REMARK VINA RESULT:    -6.952      3.159      9.582
REMARK INTER + INTRA:         -10.703
REMARK INTER:                  -9.582
REMARK INTRA:                  -1.121
REMARK UNBOUND:                -0.906
REMARK  Name = 
REMARK  9 active torsions:
REMARK  status: ('A' for Active; 'I' for Inactive)
REMARK    1  A    between atoms: C_1  and  O_2
REMARK    2  A    between atoms: O_2  and  C_3
REMARK    3  A    between atoms: C_10  and  C_11
REMARK    4  A    between atoms: N_13  and  C_14
REMARK    5  A    between atoms: C_14  and  C_15
REMARK    6  A    between atoms: C_18  and  N_19
REMARK    7  A    between atoms: N_19  and  C_20
REMARK    8  A    between atoms: C_20  and  C_21
REMARK    9  A    between atoms: N_23  and  C_24
REMARK                            x       y       z     vdW  Elec       q    Type
REMARK                         _______ _______ _______ _____ _____    ______ ____
ROOT
ATOM      1  C   UNL     1      47.271   3.360  17.078  0.00  0.00    +0.000 C 
ENDROOT
BRANCH   1   2
ATOM      2  C   UNL     1      48.754   3.302  17.357  0.00  0.00    +0.000 A 
ATOM      3  C   UNL     1      49.465   2.144  17.037  0.00  0.00    +0.000 A 
ATOM      4  C   UNL     1      50.850   2.076  17.213  0.00  0.00    +0.000 A 
ATOM      5  C   UNL     1      51.573   3.138  17.771  0.00  0.00    +0.000 A 
ATOM      6  C   UNL     1      50.850   4.282  18.135  0.00  0.00    +0.000 A 
ATOM      7  C   UNL     1      49.461   4.373  17.922  0.00  0.00    +0.000 A 
BRANCH   5   8
ATOM      8  N   UNL     1      52.968   3.156  17.864  0.00  0.00    +0.000 N 
ATOM      9  H   UNL     1      53.405   3.893  17.311  0.00  0.00    +0.000 HD
BRANCH   8  10
ATOM     10  C   UNL     1      53.605   2.961  19.170  0.00  0.00    +0.000 C 
BRANCH  10  11
ATOM     11  C   UNL     1      55.140   2.848  19.048  0.00  0.00    +0.000 C 
ATOM     12  C   UNL     1      55.543   2.439  17.610  0.00  0.00    +0.000 C 
ATOM     13  N   UNL     1      55.135   1.049  17.318  0.00  0.00    +0.000 NA
ATOM     14  C   UNL     1      55.490   0.659  15.957  0.00  0.00    +0.000 C 
ATOM     15  C   UNL     1      55.775   0.160  18.307  0.00  0.00    +0.000 C 
ATOM     16  C   UNL     1      55.393   0.568  19.739  0.00  0.00    +0.000 C 
ATOM     17  O   UNL     1      55.710   1.938  20.018  0.00  0.00    +0.000 OA
ENDBRANCH  10  11
ENDBRANCH   8  10
ENDBRANCH   5   8
ENDBRANCH   1   2
BRANCH   1  20
ATOM     18  C   UNL     1      47.059   4.155  14.740  0.00  0.00    +0.000 C 
ATOM     19  O   UNL     1      47.358   3.051  14.279  0.00  0.00    +0.000 OA
ATOM     20  N   UNL     1      46.953   4.362  16.087  0.00  0.00    +0.000 N 
ATOM     21  H   UNL     1      46.771   5.293  16.434  0.00  0.00    +0.000 HD
BRANCH  18  29
ATOM     22  C   UNL     1      44.435   5.046  12.701  0.00  0.00    +0.000 A 
ATOM     23  N   UNL     1      43.526   5.663  11.927  0.00  0.00    +0.000 NA
ATOM     24  C   UNL     1      43.836   6.861  11.426  0.00  0.00    +0.000 A 
ATOM     25  N   UNL     1      44.973   7.527  11.602  0.00  0.00    +0.000 NA
ATOM     26  C   UNL     1      45.849   6.886  12.394  0.00  0.00    +0.000 A 
ATOM     27  S   UNL     1      47.360   7.584  12.721  0.00  0.00    +0.000 S 
ATOM     28  C   UNL     1      47.798   6.285  13.728  0.00  0.00    +0.000 A 
ATOM     29  C   UNL     1      46.815   5.308  13.852  0.00  0.00    +0.000 A 
ATOM     30  C   UNL     1      45.665   5.656  13.018  0.00  0.00    +0.000 A 
BRANCH  22  32
ATOM     31  C   UNL     1      43.588   2.910  12.278  0.00  0.00    +0.000 C 
ATOM     32  O   UNL     1      44.102   3.822  13.244  0.00  0.00    +0.000 OA
ENDBRANCH  22  32
ENDBRANCH  18  29
ENDBRANCH   1  20
TORSDOF 7
ENDMDL
MODEL 4
REMARK VINA RESULT:    -6.657      1.600      2.401
REMARK INTER + INTRA:         -10.287
REMARK INTER:                  -9.116
REMARK INTRA:                  -1.171
REMARK UNBOUND:                -0.906
REMARK  Name = 
REMARK  9 active torsions:
REMARK  status: ('A' for Active; 'I' for Inactive)
REMARK    1  A    between atoms: C_1  and  O_2
REMARK    2  A    between atoms: O_2  and  C_3
REMARK    3  A    between atoms: C_10  and  C_11
REMARK    4  A    between atoms: N_13  and  C_14
REMARK    5  A    between atoms: C_14  and  C_15
REMARK    6  A    between atoms: C_18  and  N_19
REMARK    7  A    between atoms: N_19  and  C_20
REMARK    8  A    between atoms: C_20  and  C_21
REMARK    9  A    between atoms: N_23  and  C_24
REMARK                            x       y       z     vdW  Elec       q    Type
REMARK                         _______ _______ _______ _____ _____    ______ ____
ROOT
ATOM      1  C   UNL     1      49.568   8.308  16.366  0.00  0.00    +0.000 C 
ENDROOT
BRANCH   1   2
ATOM      2  C   UNL     1      48.803   8.071  15.086  0.00  0.00    +0.000 A 
ATOM      3  C   UNL     1      49.177   7.017  14.251  0.00  0.00    +0.000 A 
ATOM      4  C   UNL     1      48.451   6.720  13.095  0.00  0.00    +0.000 A 
ATOM      5  C   UNL     1      47.359   7.498  12.692  0.00  0.00    +0.000 A 
ATOM      6  C   UNL     1      47.013   8.584  13.507  0.00  0.00    +0.000 A 
ATOM      7  C   UNL     1      47.714   8.864  14.697  0.00  0.00    +0.000 A 
BRANCH   5   8
ATOM      8  N   UNL     1      46.539   7.174  11.607  0.00  0.00    +0.000 N 
ATOM      9  H   UNL     1      46.971   6.528  10.946  0.00  0.00    +0.000 HD
BRANCH   8  10
ATOM     10  C   UNL     1      45.118   6.898  11.836  0.00  0.00    +0.000 C 
BRANCH  10  11
ATOM     11  C   UNL     1      44.910   5.652  12.725  0.00  0.00    +0.000 C 
ATOM     12  C   UNL     1      45.303   4.366  11.958  0.00  0.00    +0.000 C 
ATOM     13  N   UNL     1      44.352   4.089  10.861  0.00  0.00    +0.000 NA
ATOM     14  C   UNL     1      44.724   2.891  10.116  0.00  0.00    +0.000 C 
ATOM     15  C   UNL     1      43.002   3.955  11.441  0.00  0.00    +0.000 C 
ATOM     16  C   UNL     1      42.610   5.222  12.218  0.00  0.00    +0.000 C 
ATOM     17  O   UNL     1      43.561   5.551  13.237  0.00  0.00    +0.000 OA
ENDBRANCH  10  11
ENDBRANCH   8  10
ENDBRANCH   5   8
ENDBRANCH   1   2
BRANCH   1  20
ATOM     18  C   UNL     1      50.025   6.223  17.625  0.00  0.00    +0.000 C 
ATOM     19  O   UNL     1      48.911   6.232  18.153  0.00  0.00    +0.000 OA
ATOM     20  N   UNL     1      50.392   7.174  16.714  0.00  0.00    +0.000 N 
ATOM     21  H   UNL     1      51.335   7.177  16.351  0.00  0.00    +0.000 HD
BRANCH  18  29
ATOM     22  C   UNL     1      50.161   2.823  17.117  0.00  0.00    +0.000 A 
ATOM     23  N   UNL     1      50.502   1.532  16.960  0.00  0.00    +0.000 NA
ATOM     24  C   UNL     1      51.691   1.136  17.419  0.00  0.00    +0.000 A 
ATOM     25  N   UNL     1      52.596   1.888  18.037  0.00  0.00    +0.000 NA
ATOM     26  C   UNL     1      52.227   3.174  18.160  0.00  0.00    +0.000 A 
ATOM     27  S   UNL     1      53.256   4.278  18.935  0.00  0.00    +0.000 S 
ATOM     28  C   UNL     1      52.170   5.559  18.659  0.00  0.00    +0.000 A 
ATOM     29  C   UNL     1      51.021   5.189  17.968  0.00  0.00    +0.000 A 
ATOM     30  C   UNL     1      51.043   3.749  17.707  0.00  0.00    +0.000 A 
BRANCH  22  32
ATOM     31  C   UNL     1      47.853   2.915  17.472  0.00  0.00    +0.000 C 
ATOM     32  O   UNL     1      48.945   3.239  16.616  0.00  0.00    +0.000 OA
ENDBRANCH  22  32
ENDBRANCH  18  29
ENDBRANCH   1  20
TORSDOF 7
ENDMDL
MODEL 5
REMARK VINA RESULT:    -6.560      2.209      3.911
REMARK INTER + INTRA:         -10.150
REMARK INTER:                  -8.781
REMARK INTRA:                  -1.369
REMARK UNBOUND:                -0.906
REMARK  Name = 
REMARK  9 active torsions:
REMARK  status: ('A' for Active; 'I' for Inactive)
REMARK    1  A    between atoms: C_1  and  O_2
REMARK    2  A    between atoms: O_2  and  C_3
REMARK    3  A    between atoms: C_10  and  C_11
REMARK    4  A    between atoms: N_13  and  C_14
REMARK    5  A    between atoms: C_14  and  C_15
REMARK    6  A    between atoms: C_18  and  N_19
REMARK    7  A    between atoms: N_19  and  C_20
REMARK    8  A    between atoms: C_20  and  C_21
REMARK    9  A    between atoms: N_23  and  C_24
REMARK                            x       y       z     vdW  Elec       q    Type
REMARK                         _______ _______ _______ _____ _____    ______ ____
ROOT
ATOM      1  C   UNL     1      48.348   3.190  17.911  0.00  0.00    +0.000 C 
ENDROOT
BRANCH   1   2
ATOM      2  C   UNL     1      48.046   4.070  16.722  0.00  0.00    +0.000 A 
ATOM      3  C   UNL     1      47.217   3.589  15.707  0.00  0.00    +0.000 A 
ATOM      4  C   UNL     1      46.856   4.397  14.627  0.00  0.00    +0.000 A 
ATOM      5  C   UNL     1      47.354   5.698  14.482  0.00  0.00    +0.000 A 
ATOM      6  C   UNL     1      48.224   6.163  15.478  0.00  0.00    +0.000 A 
ATOM      7  C   UNL     1      48.558   5.369  16.592  0.00  0.00    +0.000 A 
BRANCH   5   8
ATOM      8  N   UNL     1      46.936   6.577  13.479  0.00  0.00    +0.000 N 
ATOM      9  H   UNL     1      47.244   7.539  13.623  0.00  0.00    +0.000 HD
BRANCH   8  10
ATOM     10  C   UNL     1      47.002   6.154  12.077  0.00  0.00    +0.000 C 
BRANCH  10  11
ATOM     11  C   UNL     1      45.778   6.641  11.272  0.00  0.00    +0.000 C 
ATOM     12  C   UNL     1      44.486   6.510  12.115  0.00  0.00    +0.000 C 
ATOM     13  N   UNL     1      44.133   5.091  12.330  0.00  0.00    +0.000 NA
ATOM     14  C   UNL     1      42.929   4.953  13.142  0.00  0.00    +0.000 C 
ATOM     15  C   UNL     1      43.960   4.451  11.012  0.00  0.00    +0.000 C 
ATOM     16  C   UNL     1      45.233   4.590  10.162  0.00  0.00    +0.000 C 
ATOM     17  O   UNL     1      45.635   5.957  10.006  0.00  0.00    +0.000 OA
ENDBRANCH  10  11
ENDBRANCH   8  10
ENDBRANCH   5   8
ENDBRANCH   1   2
BRANCH   1  20
ATOM     18  C   UNL     1      50.519   2.189  17.260  0.00  0.00    +0.000 C 
ATOM     19  O   UNL     1      50.036   1.653  16.261  0.00  0.00    +0.000 OA
ATOM     20  N   UNL     1      49.768   2.986  18.078  0.00  0.00    +0.000 N 
ATOM     21  H   UNL     1      50.177   3.356  18.924  0.00  0.00    +0.000 HD
BRANCH  18  29
ATOM     22  C   UNL     1      53.056   4.324  18.179  0.00  0.00    +0.000 A 
ATOM     23  N   UNL     1      54.167   4.916  18.650  0.00  0.00    +0.000 NA
ATOM     24  C   UNL     1      55.216   4.143  18.941  0.00  0.00    +0.000 A 
ATOM     25  N   UNL     1      55.292   2.822  18.807  0.00  0.00    +0.000 NA
ATOM     26  C   UNL     1      54.158   2.267  18.349  0.00  0.00    +0.000 A 
ATOM     27  S   UNL     1      54.077   0.589  18.105  0.00  0.00    +0.000 S 
ATOM     28  C   UNL     1      52.454   0.690  17.606  0.00  0.00    +0.000 A 
ATOM     29  C   UNL     1      51.934   1.980  17.626  0.00  0.00    +0.000 A 
ATOM     30  C   UNL     1      52.974   2.925  18.034  0.00  0.00    +0.000 A 
BRANCH  22  32
ATOM     31  C   UNL     1      52.174   5.994  16.802  0.00  0.00    +0.000 C 
ATOM     32  O   UNL     1      51.962   5.120  17.907  0.00  0.00    +0.000 OA
ENDBRANCH  22  32
ENDBRANCH  18  29
ENDBRANCH   1  20
TORSDOF 7
ENDMDL
MODEL 6
REMARK VINA RESULT:    -6.374      3.801      5.671
REMARK INTER + INTRA:          -9.887
REMARK INTER:                  -9.094
REMARK INTRA:                  -0.793
REMARK UNBOUND:                -0.906
REMARK  Name = 
REMARK  9 active torsions:
REMARK  status: ('A' for Active; 'I' for Inactive)
REMARK    1  A    between atoms: C_1  and  O_2
REMARK    2  A    between atoms: O_2  and  C_3
REMARK    3  A    between atoms: C_10  and  C_11
REMARK    4  A    between atoms: N_13  and  C_14
REMARK    5  A    between atoms: C_14  and  C_15
REMARK    6  A    between atoms: C_18  and  N_19
REMARK    7  A    between atoms: N_19  and  C_20
REMARK    8  A    between atoms: C_20  and  C_21
REMARK    9  A    between atoms: N_23  and  C_24
REMARK                            x       y       z     vdW  Elec       q    Type
REMARK                         _______ _______ _______ _____ _____    ______ ____
ROOT
ATOM      1  C   UNL     1      46.782   4.851  14.051  0.00  0.00    +0.000 C 
ENDROOT
BRANCH   1   2
ATOM      2  C   UNL     1      45.963   4.739  12.788  0.00  0.00    +0.000 A 
ATOM      3  C   UNL     1      46.036   5.755  11.833  0.00  0.00    +0.000 A 
ATOM      4  C   UNL     1      45.350   5.654  10.619  0.00  0.00    +0.000 A 
ATOM      5  C   UNL     1      44.515   4.567  10.334  0.00  0.00    +0.000 A 
ATOM      6  C   UNL     1      44.406   3.571  11.313  0.00  0.00    +0.000 A 
ATOM      7  C   UNL     1      45.128   3.644  12.521  0.00  0.00    +0.000 A 
BRANCH   5   8
ATOM      8  N   UNL     1      43.898   4.373   9.095  0.00  0.00    +0.000 N 
ATOM      9  H   UNL     1      43.465   5.215   8.716  0.00  0.00    +0.000 HD
BRANCH   8  10
ATOM     10  C   UNL     1      44.571   3.563   8.075  0.00  0.00    +0.000 C 
BRANCH  10  11
ATOM     11  C   UNL     1      46.027   3.234   8.472  0.00  0.00    +0.000 C 
ATOM     12  C   UNL     1      46.977   3.437   7.266  0.00  0.00    +0.000 C 
ATOM     13  N   UNL     1      46.735   2.421   6.221  0.00  0.00    +0.000 NA
ATOM     14  C   UNL     1      47.610   2.615   5.069  0.00  0.00    +0.000 C 
ATOM     15  C   UNL     1      46.933   1.086   6.818  0.00  0.00    +0.000 C 
ATOM     16  C   UNL     1      46.005   0.881   8.025  0.00  0.00    +0.000 C 
ATOM     17  O   UNL     1      46.170   1.902   9.017  0.00  0.00    +0.000 OA
ENDBRANCH  10  11
ENDBRANCH   8  10
ENDBRANCH   5   8
ENDBRANCH   1   2
BRANCH   1  20
ATOM     18  C   UNL     1      48.317   6.515  15.058  0.00  0.00    +0.000 C 
ATOM     19  O   UNL     1      49.016   5.641  15.574  0.00  0.00    +0.000 OA
ATOM     20  N   UNL     1      47.246   6.201  14.269  0.00  0.00    +0.000 N 
ATOM     21  H   UNL     1      46.655   6.941  13.916  0.00  0.00    +0.000 HD
BRANCH  18  29
ATOM     22  C   UNL     1      48.580   9.227  12.956  0.00  0.00    +0.000 A 
ATOM     23  N   UNL     1      48.633  10.440  12.380  0.00  0.00    +0.000 NA
ATOM     24  C   UNL     1      48.826  11.501  13.166  0.00  0.00    +0.000 A 
ATOM     25  N   UNL     1      48.985  11.495  14.486  0.00  0.00    +0.000 NA
ATOM     26  C   UNL     1      48.908  10.268  15.027  0.00  0.00    +0.000 A 
ATOM     27  S   UNL     1      49.098  10.068  16.701  0.00  0.00    +0.000 S 
ATOM     28  C   UNL     1      48.846   8.390  16.580  0.00  0.00    +0.000 A 
ATOM     29  C   UNL     1      48.600   7.946  15.284  0.00  0.00    +0.000 A 
ATOM     30  C   UNL     1      48.678   9.072  14.353  0.00  0.00    +0.000 A 
BRANCH  22  32
ATOM     31  C   UNL     1      49.529   7.667  11.498  0.00  0.00    +0.000 C 
ATOM     32  O   UNL     1      48.350   8.133  12.147  0.00  0.00    +0.000 OA
ENDBRANCH  22  32
ENDBRANCH  18  29
ENDBRANCH   1  20
TORSDOF 7
ENDMDL
MODEL 7
REMARK VINA RESULT:    -6.176      2.378      3.628
REMARK INTER + INTRA:          -9.609
REMARK INTER:                  -8.227
REMARK INTRA:                  -1.382
REMARK UNBOUND:                -0.906
REMARK  Name = 
REMARK  9 active torsions:
REMARK  status: ('A' for Active; 'I' for Inactive)
REMARK    1  A    between atoms: C_1  and  O_2
REMARK    2  A    between atoms: O_2  and  C_3
REMARK    3  A    between atoms: C_10  and  C_11
REMARK    4  A    between atoms: N_13  and  C_14
REMARK    5  A    between atoms: C_14  and  C_15
REMARK    6  A    between atoms: C_18  and  N_19
REMARK    7  A    between atoms: N_19  and  C_20
REMARK    8  A    between atoms: C_20  and  C_21
REMARK    9  A    between atoms: N_23  and  C_24
REMARK                            x       y       z     vdW  Elec       q    Type
REMARK                         _______ _______ _______ _____ _____    ______ ____
ROOT
ATOM      1  C   UNL     1      49.685   5.245  19.604  0.00  0.00    +0.000 C 
ENDROOT
BRANCH   1   2
ATOM      2  C   UNL     1      48.873   4.984  18.358  0.00  0.00    +0.000 A 
ATOM      3  C   UNL     1      48.952   5.880  17.290  0.00  0.00    +0.000 A 
ATOM      4  C   UNL     1      48.273   5.637  16.094  0.00  0.00    +0.000 A 
ATOM      5  C   UNL     1      47.441   4.523  15.933  0.00  0.00    +0.000 A 
ATOM      6  C   UNL     1      47.326   3.649  17.023  0.00  0.00    +0.000 A 
ATOM      7  C   UNL     1      48.041   3.865  18.217  0.00  0.00    +0.000 A 
BRANCH   5   8
ATOM      8  N   UNL     1      46.832   4.183  14.722  0.00  0.00    +0.000 N 
ATOM      9  H   UNL     1      45.886   3.816  14.828  0.00  0.00    +0.000 HD
BRANCH   8  10
ATOM     10  C   UNL     1      46.978   5.075  13.568  0.00  0.00    +0.000 C 
BRANCH  10  11
ATOM     11  C   UNL     1      45.650   5.781  13.216  0.00  0.00    +0.000 C 
ATOM     12  C   UNL     1      44.487   4.760  13.173  0.00  0.00    +0.000 C 
ATOM     13  N   UNL     1      44.628   3.841  12.025  0.00  0.00    +0.000 NA
ATOM     14  C   UNL     1      43.549   2.859  11.985  0.00  0.00    +0.000 C 
ATOM     15  C   UNL     1      44.658   4.645  10.788  0.00  0.00    +0.000 C 
ATOM     16  C   UNL     1      45.800   5.672  10.829  0.00  0.00    +0.000 C 
ATOM     17  O   UNL     1      45.725   6.525  11.978  0.00  0.00    +0.000 OA
ENDBRANCH  10  11
ENDBRANCH   8  10
ENDBRANCH   5   8
ENDBRANCH   1   2
BRANCH   1  20
ATOM     18  C   UNL     1      52.115   4.757  19.621  0.00  0.00    +0.000 C 
ATOM     19  O   UNL     1      52.412   5.951  19.536  0.00  0.00    +0.000 OA
ATOM     20  N   UNL     1      50.813   4.348  19.705  0.00  0.00    +0.000 N 
ATOM     21  H   UNL     1      50.602   3.361  19.707  0.00  0.00    +0.000 HD
BRANCH  18  29
ATOM     22  C   UNL     1      52.539   1.850  17.830  0.00  0.00    +0.000 A 
ATOM     23  N   UNL     1      52.985   0.744  17.210  0.00  0.00    +0.000 NA
ATOM     24  C   UNL     1      54.165   0.246  17.585  0.00  0.00    +0.000 A 
ATOM     25  N   UNL     1      54.966   0.725  18.532  0.00  0.00    +0.000 NA
ATOM     26  C   UNL     1      54.494   1.839  19.116  0.00  0.00    +0.000 A 
ATOM     27  S   UNL     1      55.381   2.583  20.356  0.00  0.00    +0.000 S 
ATOM     28  C   UNL     1      54.225   3.823  20.506  0.00  0.00    +0.000 A 
ATOM     29  C   UNL     1      53.158   3.713  19.620  0.00  0.00    +0.000 A 
ATOM     30  C   UNL     1      53.306   2.499  18.817  0.00  0.00    +0.000 A 
BRANCH  22  32
ATOM     31  C   UNL     1      50.511   1.435  16.746  0.00  0.00    +0.000 C 
ATOM     32  O   UNL     1      51.333   2.382  17.420  0.00  0.00    +0.000 OA
ENDBRANCH  22  32
ENDBRANCH  18  29
ENDBRANCH   1  20
TORSDOF 7
ENDMDL
MODEL 8
REMARK VINA RESULT:    -6.149      6.078      7.683
REMARK INTER + INTRA:          -9.570
REMARK INTER:                  -8.612
REMARK INTRA:                  -0.958
REMARK UNBOUND:                -0.906
REMARK  Name = 
REMARK  9 active torsions:
REMARK  status: ('A' for Active; 'I' for Inactive)
REMARK    1  A    between atoms: C_1  and  O_2
REMARK    2  A    between atoms: O_2  and  C_3
REMARK    3  A    between atoms: C_10  and  C_11
REMARK    4  A    between atoms: N_13  and  C_14
REMARK    5  A    between atoms: C_14  and  C_15
REMARK    6  A    between atoms: C_18  and  N_19
REMARK    7  A    between atoms: N_19  and  C_20
REMARK    8  A    between atoms: C_20  and  C_21
REMARK    9  A    between atoms: N_23  and  C_24
REMARK                            x       y       z     vdW  Elec       q    Type
REMARK                         _______ _______ _______ _____ _____    ______ ____
ROOT
ATOM      1  C   UNL     1      51.441   8.859  11.802  0.00  0.00    +0.000 C 
ENDROOT
BRANCH   1   2
ATOM      2  C   UNL     1      50.223   8.122  12.306  0.00  0.00    +0.000 A 
ATOM      3  C   UNL     1      50.143   7.777  13.657  0.00  0.00    +0.000 A 
ATOM      4  C   UNL     1      49.003   7.160  14.177  0.00  0.00    +0.000 A 
ATOM      5  C   UNL     1      47.921   6.806  13.361  0.00  0.00    +0.000 A 
ATOM      6  C   UNL     1      48.023   7.110  11.997  0.00  0.00    +0.000 A 
ATOM      7  C   UNL     1      49.151   7.771  11.473  0.00  0.00    +0.000 A 
BRANCH   5   8
ATOM      8  N   UNL     1      46.720   6.288  13.855  0.00  0.00    +0.000 N 
ATOM      9  H   UNL     1      46.460   6.658  14.769  0.00  0.00    +0.000 HD
BRANCH   8  10
ATOM     10  C   UNL     1      45.577   6.134  12.950  0.00  0.00    +0.000 C 
BRANCH  10  11
ATOM     11  C   UNL     1      44.712   4.910  13.321  0.00  0.00    +0.000 C 
ATOM     12  C   UNL     1      45.002   3.728  12.363  0.00  0.00    +0.000 C 
ATOM     13  N   UNL     1      44.510   4.016  11.000  0.00  0.00    +0.000 NA
ATOM     14  C   UNL     1      44.797   2.918  10.082  0.00  0.00    +0.000 C 
ATOM     15  C   UNL     1      43.060   4.278  11.075  0.00  0.00    +0.000 C 
ATOM     16  C   UNL     1      42.761   5.440  12.036  0.00  0.00    +0.000 C 
ATOM     17  O   UNL     1      43.298   5.214  13.346  0.00  0.00    +0.000 OA
ENDBRANCH  10  11
ENDBRANCH   8  10
ENDBRANCH   5   8
ENDBRANCH   1   2
BRANCH   1  20
ATOM     18  C   UNL     1      52.876   8.933   9.783  0.00  0.00    +0.000 C 
ATOM     19  O   UNL     1      53.563   9.850  10.237  0.00  0.00    +0.000 OA
ATOM     20  N   UNL     1      51.861   8.374  10.507  0.00  0.00    +0.000 N 
ATOM     21  H   UNL     1      51.275   7.670  10.081  0.00  0.00    +0.000 HD
BRANCH  18  29
ATOM     22  C   UNL     1      53.625   5.804   8.565  0.00  0.00    +0.000 A 
ATOM     23  N   UNL     1      53.816   4.691   7.836  0.00  0.00    +0.000 NA
ATOM     24  C   UNL     1      53.837   4.805   6.506  0.00  0.00    +0.000 A 
ATOM     25  N   UNL     1      53.696   5.924   5.802  0.00  0.00    +0.000 NA
ATOM     26  C   UNL     1      53.491   7.011   6.564  0.00  0.00    +0.000 A 
ATOM     27  S   UNL     1      53.300   8.531   5.834  0.00  0.00    +0.000 S 
ATOM     28  C   UNL     1      53.067   9.282   7.343  0.00  0.00    +0.000 A 
ATOM     29  C   UNL     1      53.113   8.407   8.424  0.00  0.00    +0.000 A 
ATOM     30  C   UNL     1      53.407   7.054   7.953  0.00  0.00    +0.000 A 
BRANCH  22  32
ATOM     31  C   UNL     1      54.746   5.086  10.485  0.00  0.00    +0.000 C 
ATOM     32  O   UNL     1      53.572   5.680   9.938  0.00  0.00    +0.000 OA
ENDBRANCH  22  32
ENDBRANCH  18  29
ENDBRANCH   1  20
TORSDOF 7
ENDMDL
MODEL 9
REMARK VINA RESULT:    -5.946      3.692      8.357
REMARK INTER + INTRA:          -9.285
REMARK INTER:                  -7.288
REMARK INTRA:                  -1.997
REMARK UNBOUND:                -0.906
REMARK  Name = 
REMARK  9 active torsions:
REMARK  status: ('A' for Active; 'I' for Inactive)
REMARK    1  A    between atoms: C_1  and  O_2
REMARK    2  A    between atoms: O_2  and  C_3
REMARK    3  A    between atoms: C_10  and  C_11
REMARK    4  A    between atoms: N_13  and  C_14
REMARK    5  A    between atoms: C_14  and  C_15
REMARK    6  A    between atoms: C_18  and  N_19
REMARK    7  A    between atoms: N_19  and  C_20
REMARK    8  A    between atoms: C_20  and  C_21
REMARK    9  A    between atoms: N_23  and  C_24
REMARK                            x       y       z     vdW  Elec       q    Type
REMARK                         _______ _______ _______ _____ _____    ______ ____
ROOT
ATOM      1  C   UNL     1      48.452   8.798  12.601  0.00  0.00    +0.000 C 
ENDROOT
BRANCH   1   2
ATOM      2  C   UNL     1      48.968   8.511  13.991  0.00  0.00    +0.000 A 
ATOM      3  C   UNL     1      48.381   9.152  15.083  0.00  0.00    +0.000 A 
ATOM      4  C   UNL     1      48.780   8.860  16.390  0.00  0.00    +0.000 A 
ATOM      5  C   UNL     1      49.821   7.963  16.658  0.00  0.00    +0.000 A 
ATOM      6  C   UNL     1      50.440   7.355  15.558  0.00  0.00    +0.000 A 
ATOM      7  C   UNL     1      50.015   7.613  14.240  0.00  0.00    +0.000 A 
BRANCH   5   8
ATOM      8  N   UNL     1      50.179   7.560  17.948  0.00  0.00    +0.000 N 
ATOM      9  H   UNL     1      51.137   7.800  18.201  0.00  0.00    +0.000 HD
BRANCH   8  10
ATOM     10  C   UNL     1      49.228   7.745  19.049  0.00  0.00    +0.000 C 
BRANCH  10  11
ATOM     11  C   UNL     1      49.122   6.483  19.934  0.00  0.00    +0.000 C 
ATOM     12  C   UNL     1      49.922   5.313  19.309  0.00  0.00    +0.000 C 
ATOM     13  N   UNL     1      49.284   4.837  18.064  0.00  0.00    +0.000 NA
ATOM     14  C   UNL     1      50.041   3.749  17.454  0.00  0.00    +0.000 C 
ATOM     15  C   UNL     1      47.907   4.413  18.380  0.00  0.00    +0.000 C 
ATOM     16  C   UNL     1      47.110   5.563  19.015  0.00  0.00    +0.000 C 
ATOM     17  O   UNL     1      47.752   6.091  20.182  0.00  0.00    +0.000 OA
ENDBRANCH  10  11
ENDBRANCH   8  10
ENDBRANCH   5   8
ENDBRANCH   1   2
BRANCH   1  20
ATOM     18  C   UNL     1      46.094   8.053  12.445  0.00  0.00    +0.000 C 
ATOM     19  O   UNL     1      45.673   9.099  12.945  0.00  0.00    +0.000 OA
ATOM     20  N   UNL     1      47.426   7.860  12.207  0.00  0.00    +0.000 N 
ATOM     21  H   UNL     1      47.744   6.968  11.858  0.00  0.00    +0.000 HD
BRANCH  18  29
ATOM     22  C   UNL     1      46.218   4.643  12.886  0.00  0.00    +0.000 A 
ATOM     23  N   UNL     1      45.976   3.328  13.022  0.00  0.00    +0.000 NA
ATOM     24  C   UNL     1      44.813   2.853  12.570  0.00  0.00    +0.000 A 
ATOM     25  N   UNL     1      43.846   3.547  11.978  0.00  0.00    +0.000 NA
ATOM     26  C   UNL     1      44.117   4.859  11.876  0.00  0.00    +0.000 A 
ATOM     27  S   UNL     1      42.998   5.899  11.137  0.00  0.00    +0.000 S 
ATOM     28  C   UNL     1      43.990   7.251  11.426  0.00  0.00    +0.000 A 
ATOM     29  C   UNL     1      45.173   6.954  12.094  0.00  0.00    +0.000 A 
ATOM     30  C   UNL     1      45.261   5.512  12.326  0.00  0.00    +0.000 A 
BRANCH  22  32
ATOM     31  C   UNL     1      47.465   5.119  14.804  0.00  0.00    +0.000 C 
ATOM     32  O   UNL     1      47.407   5.139  13.381  0.00  0.00    +0.000 OA
ENDBRANCH  22  32
ENDBRANCH  18  29
ENDBRANCH   1  20
TORSDOF 7
ENDMDL
