MODEL 1
REMARK VINA RESULT:    -8.557      0.000      0.000
REMARK INTER + INTRA:         -13.353
REMARK INTER:                 -12.059
REMARK INTRA:                  -1.294
REMARK UNBOUND:                -1.294
REMARK  Name = 
REMARK  8 active torsions:
REMARK  status: ('A' for Active; 'I' for Inactive)
REMARK    1  A    between atoms: C_1  and  C_2
REMARK    2  A    between atoms: C_2  and  N_3
REMARK    3  A    between atoms: C_2  and  C_25
REMARK    4  A    between atoms: N_3  and  C_4
REMARK    5  A    between atoms: C_4  and  C_5
REMARK    6  A    between atoms: C_8  and  C_9
REMARK    7  A    between atoms: C_9  and  N_10
REMARK    8  A    between atoms: C_11  and  C_13
REMARK                            x       y       z     vdW  Elec       q    Type
REMARK                         _______ _______ _______ _____ _____    ______ ____
ROOT
ATOM      1  C   UNL     1      44.427   5.385  11.003  0.00  0.00    +0.000 A 
ATOM      2  C   UNL     1      44.005   5.882  12.244  0.00  0.00    +0.000 A 
ATOM      3  C   UNL     1      44.809   6.766  12.972  0.00  0.00    +0.000 A 
ATOM      4  C   UNL     1      46.049   7.175  12.467  0.00  0.00    +0.000 A 
ATOM      5  C   UNL     1      46.485   6.652  11.243  0.00  0.00    +0.000 A 
ATOM      6  C   UNL     1      45.681   5.771  10.515  0.00  0.00    +0.000 A 
ENDROOT
BRANCH   1   7
ATOM      7  C   UNL     1      43.584   4.382  10.247  0.00  0.00    +0.000 C 
BRANCH   7   8
ATOM      8  N   UNL     1      44.208   3.971   8.988  0.00  0.00    +0.000 NA
ATOM      9  H   UNL     1      44.794   4.737   8.653  0.00  0.00    +0.000 HD
BRANCH   8  11
ATOM     10  C   UNL     1      44.222   1.474   9.145  0.00  0.00    +0.000 C 
ATOM     11  C   UNL     1      45.051   2.769   9.122  0.00  0.00    +0.000 C 
BRANCH  11  12
ATOM     12  C   UNL     1      46.056   2.637   7.977  0.00  0.00    +0.000 A 
ATOM     13  C   UNL     1      46.753   1.429   7.795  0.00  0.00    +0.000 A 
ATOM     14  C   UNL     1      47.522   1.212   6.648  0.00  0.00    +0.000 A 
ATOM     15  C   UNL     1      47.623   2.205   5.677  0.00  0.00    +0.000 A 
ATOM     16  C   UNL     1      46.980   3.426   5.864  0.00  0.00    +0.000 A 
ATOM     17  C   UNL     1      46.199   3.639   7.003  0.00  0.00    +0.000 A 
ENDBRANCH  11  12
ENDBRANCH   8  11
ENDBRANCH   7   8
ENDBRANCH   1   7
BRANCH   4  18
ATOM     18  C   UNL     1      46.938   8.106  13.251  0.00  0.00    +0.000 C 
BRANCH  18  19
ATOM     19  N   UNL     1      47.424   7.455  14.441  0.00  0.00    +0.000 N 
ATOM     20  C   UNL     1      48.631   6.813  14.480  0.00  0.00    +0.000 C 
ATOM     21  O   UNL     1      49.388   6.778  13.514  0.00  0.00    +0.000 OA
ATOM     22  H   UNL     1      46.734   7.260  15.159  0.00  0.00    +0.000 HD
BRANCH  20  23
ATOM     23  C   UNL     1      49.003   6.222  15.773  0.00  0.00    +0.000 A 
ATOM     24  C   UNL     1      50.052   6.759  16.504  0.00  0.00    +0.000 A 
ATOM     25  S   UNL     1      50.286   6.008  18.018  0.00  0.00    +0.000 S 
ATOM     26  C   UNL     1      49.029   4.898  17.725  0.00  0.00    +0.000 A 
ATOM     27  N   UNL     1      48.704   3.946  18.641  0.00  0.00    +0.000 NA
ATOM     28  C   UNL     1      47.748   3.161  18.278  0.00  0.00    +0.000 A 
ATOM     29  N   UNL     1      47.087   3.236  17.085  0.00  0.00    +0.000 N 
ATOM     30  C   UNL     1      47.368   4.190  16.131  0.00  0.00    +0.000 A 
ATOM     31  O   UNL     1      46.742   4.238  15.078  0.00  0.00    +0.000 OA
ATOM     32  C   UNL     1      48.431   5.109  16.493  0.00  0.00    +0.000 A 
ATOM     33  H   UNL     1      46.344   2.591  16.856  0.00  0.00    +0.000 HD
ENDBRANCH  20  23
ENDBRANCH  18  19
ENDBRANCH   4  18
TORSDOF 7
ENDMDL
MODEL 2
REMARK VINA RESULT:    -7.878      2.300      2.874
REMARK INTER + INTRA:         -12.396
REMARK INTER:                 -11.259
REMARK INTRA:                  -1.137
REMARK UNBOUND:                -1.294
REMARK  Name = 
REMARK  8 active torsions:
REMARK  status: ('A' for Active; 'I' for Inactive)
REMARK    1  A    between atoms: C_1  and  C_2
REMARK    2  A    between atoms: C_2  and  N_3
REMARK    3  A    between atoms: C_2  and  C_25
REMARK    4  A    between atoms: N_3  and  C_4
REMARK    5  A    between atoms: C_4  and  C_5
REMARK    6  A    between atoms: C_8  and  C_9
REMARK    7  A    between atoms: C_9  and  N_10
REMARK    8  A    between atoms: C_11  and  C_13
REMARK                            x       y       z     vdW  Elec       q    Type
REMARK                         _______ _______ _______ _____ _____    ______ ____
ROOT
ATOM      1  C   UNL     1      44.543   5.812  11.823  0.00  0.00    +0.000 A 
ATOM      2  C   UNL     1      44.912   5.064  12.951  0.00  0.00    +0.000 A 
ATOM      3  C   UNL     1      46.088   5.355  13.649  0.00  0.00    +0.000 A 
ATOM      4  C   UNL     1      46.917   6.405  13.236  0.00  0.00    +0.000 A 
ATOM      5  C   UNL     1      46.566   7.130  12.090  0.00  0.00    +0.000 A 
ATOM      6  C   UNL     1      45.390   6.841  11.393  0.00  0.00    +0.000 A 
ENDROOT
BRANCH   1   7
ATOM      7  C   UNL     1      43.302   5.457  11.034  0.00  0.00    +0.000 C 
BRANCH   7   8
ATOM      8  N   UNL     1      43.610   4.644   9.856  0.00  0.00    +0.000 NA
ATOM      9  H   UNL     1      44.044   5.244   9.153  0.00  0.00    +0.000 HD
BRANCH   8  11
ATOM     10  C   UNL     1      43.793   2.284  10.666  0.00  0.00    +0.000 C 
ATOM     11  C   UNL     1      44.530   3.529  10.143  0.00  0.00    +0.000 C 
BRANCH  11  12
ATOM     12  C   UNL     1      45.317   3.096   8.907  0.00  0.00    +0.000 A 
ATOM     13  C   UNL     1      45.820   4.067   8.022  0.00  0.00    +0.000 A 
ATOM     14  C   UNL     1      46.707   3.715   7.001  0.00  0.00    +0.000 A 
ATOM     15  C   UNL     1      47.089   2.386   6.835  0.00  0.00    +0.000 A 
ATOM     16  C   UNL     1      46.562   1.404   7.669  0.00  0.00    +0.000 A 
ATOM     17  C   UNL     1      45.686   1.756   8.700  0.00  0.00    +0.000 A 
ENDBRANCH  11  12
ENDBRANCH   8  11
ENDBRANCH   7   8
ENDBRANCH   1   7
BRANCH   4  18
ATOM     18  C   UNL     1      48.201   6.713  13.962  0.00  0.00    +0.000 C 
BRANCH  18  19
ATOM     19  N   UNL     1      48.046   6.489  15.376  0.00  0.00    +0.000 N 
ATOM     20  C   UNL     1      49.117   6.317  16.210  0.00  0.00    +0.000 C 
ATOM     21  O   UNL     1      50.276   6.373  15.811  0.00  0.00    +0.000 OA
ATOM     22  H   UNL     1      47.124   6.199  15.686  0.00  0.00    +0.000 HD
BRANCH  20  23
ATOM     23  C   UNL     1      48.800   6.128  17.633  0.00  0.00    +0.000 A 
ATOM     24  C   UNL     1      49.007   4.894  18.231  0.00  0.00    +0.000 A 
ATOM     25  S   UNL     1      48.672   4.880  19.903  0.00  0.00    +0.000 S 
ATOM     26  C   UNL     1      48.182   6.509  19.877  0.00  0.00    +0.000 A 
ATOM     27  N   UNL     1      47.753   7.133  21.008  0.00  0.00    +0.000 NA
ATOM     28  C   UNL     1      47.393   8.359  20.837  0.00  0.00    +0.000 A 
ATOM     29  N   UNL     1      47.418   9.020  19.641  0.00  0.00    +0.000 N 
ATOM     30  C   UNL     1      47.858   8.439  18.472  0.00  0.00    +0.000 A 
ATOM     31  O   UNL     1      47.883   9.068  17.421  0.00  0.00    +0.000 OA
ATOM     32  C   UNL     1      48.287   7.059  18.610  0.00  0.00    +0.000 A 
ATOM     33  H   UNL     1      47.123   9.983  19.569  0.00  0.00    +0.000 HD
ENDBRANCH  20  23
ENDBRANCH  18  19
ENDBRANCH   4  18
TORSDOF 7
ENDMDL
MODEL 3
REMARK VINA RESULT:    -7.683      2.166      2.778
REMARK INTER + INTRA:         -12.121
REMARK INTER:                 -10.963
REMARK INTRA:                  -1.158
REMARK UNBOUND:                -1.294
REMARK  Name = 
REMARK  8 active torsions:
REMARK  status: ('A' for Active; 'I' for Inactive)
REMARK    1  A    between atoms: C_1  and  C_2
REMARK    2  A    between atoms: C_2  and  N_3
REMARK    3  A    between atoms: C_2  and  C_25
REMARK    4  A    between atoms: N_3  and  C_4
REMARK    5  A    between atoms: C_4  and  C_5
REMARK    6  A    between atoms: C_8  and  C_9
REMARK    7  A    between atoms: C_9  and  N_10
REMARK    8  A    between atoms: C_11  and  C_13
REMARK                            x       y       z     vdW  Elec       q    Type
REMARK                         _______ _______ _______ _____ _____    ______ ____
ROOT
ATOM      1  C   UNL     1      45.676   4.749  12.567  0.00  0.00    +0.000 A 
ATOM      2  C   UNL     1      46.353   4.577  13.783  0.00  0.00    +0.000 A 
ATOM      3  C   UNL     1      47.300   5.512  14.213  0.00  0.00    +0.000 A 
ATOM      4  C   UNL     1      47.583   6.643  13.437  0.00  0.00    +0.000 A 
ATOM      5  C   UNL     1      46.931   6.797  12.207  0.00  0.00    +0.000 A 
ATOM      6  C   UNL     1      45.984   5.864  11.778  0.00  0.00    +0.000 A 
ENDROOT
BRANCH   1   7
ATOM      7  C   UNL     1      44.698   3.705  12.075  0.00  0.00    +0.000 C 
BRANCH   7   8
ATOM      8  N   UNL     1      45.271   2.861  11.025  0.00  0.00    +0.000 NA
ATOM      9  H   UNL     1      45.273   1.894  11.352  0.00  0.00    +0.000 HD
BRANCH   8  11
ATOM     10  C   UNL     1      43.900   4.304   9.509  0.00  0.00    +0.000 C 
ATOM     11  C   UNL     1      44.519   2.919   9.758  0.00  0.00    +0.000 C 
BRANCH  11  12
ATOM     12  C   UNL     1      45.398   2.597   8.549  0.00  0.00    +0.000 A 
ATOM     13  C   UNL     1      45.732   3.614   7.637  0.00  0.00    +0.000 A 
ATOM     14  C   UNL     1      46.689   3.397   6.642  0.00  0.00    +0.000 A 
ATOM     15  C   UNL     1      47.310   2.156   6.529  0.00  0.00    +0.000 A 
ATOM     16  C   UNL     1      46.954   1.122   7.391  0.00  0.00    +0.000 A 
ATOM     17  C   UNL     1      46.008   1.341   8.395  0.00  0.00    +0.000 A 
ENDBRANCH  11  12
ENDBRANCH   8  11
ENDBRANCH   7   8
ENDBRANCH   1   7
BRANCH   4  18
ATOM     18  C   UNL     1      48.620   7.646  13.875  0.00  0.00    +0.000 C 
BRANCH  18  19
ATOM     19  N   UNL     1      49.720   6.981  14.524  0.00  0.00    +0.000 N 
ATOM     20  C   UNL     1      50.509   7.610  15.449  0.00  0.00    +0.000 C 
ATOM     21  O   UNL     1      50.310   8.768  15.803  0.00  0.00    +0.000 OA
ATOM     22  H   UNL     1      50.052   6.130  14.085  0.00  0.00    +0.000 HD
BRANCH  20  23
ATOM     23  C   UNL     1      51.574   6.793  16.047  0.00  0.00    +0.000 A 
ATOM     24  C   UNL     1      52.904   7.087  15.785  0.00  0.00    +0.000 A 
ATOM     25  S   UNL     1      54.003   6.095  16.632  0.00  0.00    +0.000 S 
ATOM     26  C   UNL     1      52.739   5.198  17.336  0.00  0.00    +0.000 A 
ATOM     27  N   UNL     1      52.998   4.164  18.182  0.00  0.00    +0.000 NA
ATOM     28  C   UNL     1      51.948   3.561  18.623  0.00  0.00    +0.000 A 
ATOM     29  N   UNL     1      50.663   3.891  18.296  0.00  0.00    +0.000 N 
ATOM     30  C   UNL     1      50.349   4.937  17.457  0.00  0.00    +0.000 A 
ATOM     31  O   UNL     1      49.183   5.215  17.199  0.00  0.00    +0.000 OA
ATOM     32  C   UNL     1      51.496   5.660  16.939  0.00  0.00    +0.000 A 
ATOM     33  H   UNL     1      49.878   3.379  18.674  0.00  0.00    +0.000 HD
ENDBRANCH  20  23
ENDBRANCH  18  19
ENDBRANCH   4  18
TORSDOF 7
ENDMDL
MODEL 4
REMARK VINA RESULT:    -7.543      1.285      1.883
REMARK INTER + INTRA:         -11.924
REMARK INTER:                 -11.308
REMARK INTRA:                  -0.616
REMARK UNBOUND:                -1.294
REMARK  Name = 
REMARK  8 active torsions:
REMARK  status: ('A' for Active; 'I' for Inactive)
REMARK    1  A    between atoms: C_1  and  C_2
REMARK    2  A    between atoms: C_2  and  N_3
REMARK    3  A    between atoms: C_2  and  C_25
REMARK    4  A    between atoms: N_3  and  C_4
REMARK    5  A    between atoms: C_4  and  C_5
REMARK    6  A    between atoms: C_8  and  C_9
REMARK    7  A    between atoms: C_9  and  N_10
REMARK    8  A    between atoms: C_11  and  C_13
REMARK                            x       y       z     vdW  Elec       q    Type
REMARK                         _______ _______ _______ _____ _____    ______ ____
ROOT
ATOM      1  C   UNL     1      44.705   6.513  11.803  0.00  0.00    +0.000 A 
ATOM      2  C   UNL     1      45.641   5.567  12.244  0.00  0.00    +0.000 A 
ATOM      3  C   UNL     1      46.923   5.960  12.641  0.00  0.00    +0.000 A 
ATOM      4  C   UNL     1      47.292   7.310  12.611  0.00  0.00    +0.000 A 
ATOM      5  C   UNL     1      46.368   8.251  12.138  0.00  0.00    +0.000 A 
ATOM      6  C   UNL     1      45.087   7.859  11.743  0.00  0.00    +0.000 A 
ENDROOT
BRANCH   1   7
ATOM      7  C   UNL     1      43.340   6.079  11.316  0.00  0.00    +0.000 C 
BRANCH   7   8
ATOM      8  N   UNL     1      43.425   5.111  10.221  0.00  0.00    +0.000 NA
ATOM      9  H   UNL     1      43.824   5.580   9.406  0.00  0.00    +0.000 HD
BRANCH   8  11
ATOM     10  C   UNL     1      43.449   2.775  11.117  0.00  0.00    +0.000 C 
ATOM     11  C   UNL     1      44.266   3.944  10.541  0.00  0.00    +0.000 C 
BRANCH  11  12
ATOM     12  C   UNL     1      45.006   3.411   9.314  0.00  0.00    +0.000 A 
ATOM     13  C   UNL     1      45.582   4.311   8.399  0.00  0.00    +0.000 A 
ATOM     14  C   UNL     1      46.430   3.856   7.385  0.00  0.00    +0.000 A 
ATOM     15  C   UNL     1      46.697   2.496   7.256  0.00  0.00    +0.000 A 
ATOM     16  C   UNL     1      46.095   1.586   8.121  0.00  0.00    +0.000 A 
ATOM     17  C   UNL     1      45.259   2.040   9.144  0.00  0.00    +0.000 A 
ENDBRANCH  11  12
ENDBRANCH   8  11
ENDBRANCH   7   8
ENDBRANCH   1   7
BRANCH   4  18
ATOM     18  C   UNL     1      48.679   7.746  13.010  0.00  0.00    +0.000 C 
BRANCH  18  19
ATOM     19  N   UNL     1      49.079   7.092  14.229  0.00  0.00    +0.000 N 
ATOM     20  C   UNL     1      48.852   7.642  15.461  0.00  0.00    +0.000 C 
ATOM     21  O   UNL     1      48.266   8.711  15.605  0.00  0.00    +0.000 OA
ATOM     22  H   UNL     1      49.764   6.349  14.136  0.00  0.00    +0.000 HD
BRANCH  20  23
ATOM     23  C   UNL     1      49.292   6.842  16.614  0.00  0.00    +0.000 A 
ATOM     24  C   UNL     1      50.264   7.337  17.470  0.00  0.00    +0.000 A 
ATOM     25  S   UNL     1      50.585   6.318  18.800  0.00  0.00    +0.000 S 
ATOM     26  C   UNL     1      49.477   5.152  18.247  0.00  0.00    +0.000 A 
ATOM     27  N   UNL     1      49.271   3.996  18.935  0.00  0.00    +0.000 NA
ATOM     28  C   UNL     1      48.421   3.195  18.390  0.00  0.00    +0.000 A 
ATOM     29  N   UNL     1      47.758   3.438  17.220  0.00  0.00    +0.000 N 
ATOM     30  C   UNL     1      47.921   4.598  16.495  0.00  0.00    +0.000 A 
ATOM     31  O   UNL     1      47.296   4.790  15.457  0.00  0.00    +0.000 OA
ATOM     32  C   UNL     1      48.861   5.543  17.070  0.00  0.00    +0.000 A 
ATOM     33  H   UNL     1      47.102   2.770  16.841  0.00  0.00    +0.000 HD
ENDBRANCH  20  23
ENDBRANCH  18  19
ENDBRANCH   4  18
TORSDOF 7
ENDMDL
MODEL 5
REMARK VINA RESULT:    -7.440      2.923      8.542
REMARK INTER + INTRA:         -11.778
REMARK INTER:                  -9.680
REMARK INTRA:                  -2.099
REMARK UNBOUND:                -1.294
REMARK  Name = 
REMARK  8 active torsions:
REMARK  status: ('A' for Active; 'I' for Inactive)
REMARK    1  A    between atoms: C_1  and  C_2
REMARK    2  A    between atoms: C_2  and  N_3
REMARK    3  A    between atoms: C_2  and  C_25
REMARK    4  A    between atoms: N_3  and  C_4
REMARK    5  A    between atoms: C_4  and  C_5
REMARK    6  A    between atoms: C_8  and  C_9
REMARK    7  A    between atoms: C_9  and  N_10
REMARK    8  A    between atoms: C_11  and  C_13
REMARK                            x       y       z     vdW  Elec       q    Type
REMARK                         _______ _______ _______ _____ _____    ______ ____
ROOT
ATOM      1  C   UNL     1      49.105   7.839  16.429  0.00  0.00    +0.000 A 
ATOM      2  C   UNL     1      49.402   6.762  15.582  0.00  0.00    +0.000 A 
ATOM      3  C   UNL     1      48.957   6.750  14.256  0.00  0.00    +0.000 A 
ATOM      4  C   UNL     1      48.210   7.820  13.750  0.00  0.00    +0.000 A 
ATOM      5  C   UNL     1      47.885   8.881  14.605  0.00  0.00    +0.000 A 
ATOM      6  C   UNL     1      48.332   8.894  15.929  0.00  0.00    +0.000 A 
ENDROOT
BRANCH   1   7
ATOM      7  C   UNL     1      49.536   7.822  17.879  0.00  0.00    +0.000 C 
BRANCH   7   8
ATOM      8  N   UNL     1      48.440   7.453  18.777  0.00  0.00    +0.000 NA
ATOM      9  H   UNL     1      47.593   7.334  18.221  0.00  0.00    +0.000 HD
BRANCH   8  11
ATOM     10  C   UNL     1      47.764   6.047  20.733  0.00  0.00    +0.000 C 
ATOM     11  C   UNL     1      48.689   6.201  19.514  0.00  0.00    +0.000 C 
BRANCH  11  12
ATOM     12  C   UNL     1      48.485   4.964  18.639  0.00  0.00    +0.000 A 
ATOM     13  C   UNL     1      47.293   4.814  17.908  0.00  0.00    +0.000 A 
ATOM     14  C   UNL     1      47.162   3.803  16.952  0.00  0.00    +0.000 A 
ATOM     15  C   UNL     1      48.211   2.915  16.726  0.00  0.00    +0.000 A 
ATOM     16  C   UNL     1      49.379   3.018  17.476  0.00  0.00    +0.000 A 
ATOM     17  C   UNL     1      49.517   4.037  18.422  0.00  0.00    +0.000 A 
ENDBRANCH  11  12
ENDBRANCH   8  11
ENDBRANCH   7   8
ENDBRANCH   1   7
BRANCH   4  18
ATOM     18  C   UNL     1      47.700   7.810  12.331  0.00  0.00    +0.000 C 
BRANCH  18  19
ATOM     19  N   UNL     1      46.980   6.591  12.065  0.00  0.00    +0.000 N 
ATOM     20  C   UNL     1      45.622   6.500  12.209  0.00  0.00    +0.000 C 
ATOM     21  O   UNL     1      44.932   7.457  12.545  0.00  0.00    +0.000 OA
ATOM     22  H   UNL     1      47.534   5.742  12.026  0.00  0.00    +0.000 HD
BRANCH  20  23
ATOM     23  C   UNL     1      45.027   5.199  11.871  0.00  0.00    +0.000 A 
ATOM     24  C   UNL     1      44.357   4.470  12.842  0.00  0.00    +0.000 A 
ATOM     25  S   UNL     1      43.653   3.033  12.253  0.00  0.00    +0.000 S 
ATOM     26  C   UNL     1      44.268   3.304  10.690  0.00  0.00    +0.000 A 
ATOM     27  N   UNL     1      44.035   2.422   9.680  0.00  0.00    +0.000 NA
ATOM     28  C   UNL     1      44.579   2.743   8.556  0.00  0.00    +0.000 A 
ATOM     29  N   UNL     1      45.336   3.861   8.346  0.00  0.00    +0.000 N 
ATOM     30  C   UNL     1      45.589   4.791   9.331  0.00  0.00    +0.000 A 
ATOM     31  O   UNL     1      46.259   5.791   9.103  0.00  0.00    +0.000 OA
ATOM     32  C   UNL     1      44.989   4.484  10.617  0.00  0.00    +0.000 A 
ATOM     33  H   UNL     1      45.738   4.059   7.441  0.00  0.00    +0.000 HD
ENDBRANCH  20  23
ENDBRANCH  18  19
ENDBRANCH   4  18
TORSDOF 7
ENDMDL
MODEL 6
REMARK VINA RESULT:    -7.269      4.236      9.172
REMARK INTER + INTRA:         -11.538
REMARK INTER:                  -9.892
REMARK INTRA:                  -1.645
REMARK UNBOUND:                -1.294
REMARK  Name = 
REMARK  8 active torsions:
REMARK  status: ('A' for Active; 'I' for Inactive)
REMARK    1  A    between atoms: C_1  and  C_2
REMARK    2  A    between atoms: C_2  and  N_3
REMARK    3  A    between atoms: C_2  and  C_25
REMARK    4  A    between atoms: N_3  and  C_4
REMARK    5  A    between atoms: C_4  and  C_5
REMARK    6  A    between atoms: C_8  and  C_9
REMARK    7  A    between atoms: C_9  and  N_10
REMARK    8  A    between atoms: C_11  and  C_13
REMARK                            x       y       z     vdW  Elec       q    Type
REMARK                         _______ _______ _______ _____ _____    ______ ____
ROOT
ATOM      1  C   UNL     1      50.682   2.323  17.471  0.00  0.00    +0.000 A 
ATOM      2  C   UNL     1      49.322   2.433  17.145  0.00  0.00    +0.000 A 
ATOM      3  C   UNL     1      48.737   3.685  16.928  0.00  0.00    +0.000 A 
ATOM      4  C   UNL     1      49.504   4.852  17.026  0.00  0.00    +0.000 A 
ATOM      5  C   UNL     1      50.854   4.744  17.384  0.00  0.00    +0.000 A 
ATOM      6  C   UNL     1      51.439   3.493  17.599  0.00  0.00    +0.000 A 
ENDROOT
BRANCH   1   7
ATOM      7  C   UNL     1      51.298   0.973  17.765  0.00  0.00    +0.000 C 
BRANCH   7   8
ATOM      8  N   UNL     1      52.414   0.666  16.867  0.00  0.00    +0.000 NA
ATOM      9  H   UNL     1      52.571   1.472  16.261  0.00  0.00    +0.000 HD
BRANCH   8  11
ATOM     10  C   UNL     1      54.635  -0.476  16.737  0.00  0.00    +0.000 C 
ATOM     11  C   UNL     1      53.670   0.373  17.581  0.00  0.00    +0.000 C 
BRANCH  11  12
ATOM     12  C   UNL     1      54.420   1.644  17.977  0.00  0.00    +0.000 A 
ATOM     13  C   UNL     1      54.992   2.457  16.982  0.00  0.00    +0.000 A 
ATOM     14  C   UNL     1      55.506   3.719  17.297  0.00  0.00    +0.000 A 
ATOM     15  C   UNL     1      55.476   4.177  18.611  0.00  0.00    +0.000 A 
ATOM     16  C   UNL     1      54.961   3.364  19.617  0.00  0.00    +0.000 A 
ATOM     17  C   UNL     1      54.433   2.110  19.302  0.00  0.00    +0.000 A 
ENDBRANCH  11  12
ENDBRANCH   8  11
ENDBRANCH   7   8
ENDBRANCH   1   7
BRANCH   4  18
ATOM     18  C   UNL     1      48.882   6.210  16.821  0.00  0.00    +0.000 C 
BRANCH  18  19
ATOM     19  N   UNL     1      47.898   6.159  15.771  0.00  0.00    +0.000 N 
ATOM     20  C   UNL     1      48.213   6.405  14.462  0.00  0.00    +0.000 C 
ATOM     21  O   UNL     1      49.358   6.655  14.099  0.00  0.00    +0.000 OA
ATOM     22  H   UNL     1      46.927   6.198  16.064  0.00  0.00    +0.000 HD
BRANCH  20  23
ATOM     23  C   UNL     1      47.107   6.286  13.502  0.00  0.00    +0.000 A 
ATOM     24  C   UNL     1      46.587   7.421  12.899  0.00  0.00    +0.000 A 
ATOM     25  S   UNL     1      45.374   7.089  11.747  0.00  0.00    +0.000 S 
ATOM     26  C   UNL     1      45.460   5.418  12.055  0.00  0.00    +0.000 A 
ATOM     27  N   UNL     1      44.657   4.539  11.394  0.00  0.00    +0.000 NA
ATOM     28  C   UNL     1      44.814   3.308  11.742  0.00  0.00    +0.000 A 
ATOM     29  N   UNL     1      45.695   2.871  12.691  0.00  0.00    +0.000 N 
ATOM     30  C   UNL     1      46.539   3.718  13.376  0.00  0.00    +0.000 A 
ATOM     31  O   UNL     1      47.329   3.289  14.209  0.00  0.00    +0.000 OA
ATOM     32  C   UNL     1      46.412   5.118  13.014  0.00  0.00    +0.000 A 
ATOM     33  H   UNL     1      45.773   1.891  12.922  0.00  0.00    +0.000 HD
ENDBRANCH  20  23
ENDBRANCH  18  19
ENDBRANCH   4  18
TORSDOF 7
ENDMDL
MODEL 7
REMARK VINA RESULT:    -7.176      4.010      9.062
REMARK INTER + INTRA:         -11.407
REMARK INTER:                  -8.968
REMARK INTRA:                  -2.439
REMARK UNBOUND:                -1.294
REMARK  Name = 
REMARK  8 active torsions:
REMARK  status: ('A' for Active; 'I' for Inactive)
REMARK    1  A    between atoms: C_1  and  C_2
REMARK    2  A    between atoms: C_2  and  N_3
REMARK    3  A    between atoms: C_2  and  C_25
REMARK    4  A    between atoms: N_3  and  C_4
REMARK    5  A    between atoms: C_4  and  C_5
REMARK    6  A    between atoms: C_8  and  C_9
REMARK    7  A    between atoms: C_9  and  N_10
REMARK    8  A    between atoms: C_11  and  C_13
REMARK                            x       y       z     vdW  Elec       q    Type
REMARK                         _______ _______ _______ _____ _____    ______ ____
ROOT
ATOM      1  C   UNL     1      49.474   5.531  19.675  0.00  0.00    +0.000 A 
ATOM      2  C   UNL     1      48.119   5.818  19.456  0.00  0.00    +0.000 A 
ATOM      3  C   UNL     1      47.398   5.151  18.460  0.00  0.00    +0.000 A 
ATOM      4  C   UNL     1      48.019   4.179  17.666  0.00  0.00    +0.000 A 
ATOM      5  C   UNL     1      49.381   3.917  17.862  0.00  0.00    +0.000 A 
ATOM      6  C   UNL     1      50.100   4.581  18.859  0.00  0.00    +0.000 A 
ENDROOT
BRANCH   1   7
ATOM      7  C   UNL     1      50.267   6.296  20.711  0.00  0.00    +0.000 C 
BRANCH   7   8
ATOM      8  N   UNL     1      50.237   7.741  20.475  0.00  0.00    +0.000 NA
ATOM      9  H   UNL     1      50.427   8.217  21.358  0.00  0.00    +0.000 HD
BRANCH   8  11
ATOM     10  C   UNL     1      52.551   7.402  19.586  0.00  0.00    +0.000 C 
ATOM     11  C   UNL     1      51.234   8.189  19.486  0.00  0.00    +0.000 C 
BRANCH  11  12
ATOM     12  C   UNL     1      50.731   8.039  18.050  0.00  0.00    +0.000 A 
ATOM     13  C   UNL     1      51.483   7.300  17.119  0.00  0.00    +0.000 A 
ATOM     14  C   UNL     1      50.956   6.980  15.865  0.00  0.00    +0.000 A 
ATOM     15  C   UNL     1      49.679   7.411  15.514  0.00  0.00    +0.000 A 
ATOM     16  C   UNL     1      48.940   8.186  16.403  0.00  0.00    +0.000 A 
ATOM     17  C   UNL     1      49.460   8.495  17.663  0.00  0.00    +0.000 A 
ENDBRANCH  11  12
ENDBRANCH   8  11
ENDBRANCH   7   8
ENDBRANCH   1   7
BRANCH   4  18
ATOM     18  C   UNL     1      47.262   3.472  16.571  0.00  0.00    +0.000 C 
BRANCH  18  19
ATOM     19  N   UNL     1      46.715   4.425  15.640  0.00  0.00    +0.000 N 
ATOM     20  C   UNL     1      46.755   4.229  14.286  0.00  0.00    +0.000 C 
ATOM     21  O   UNL     1      47.231   3.216  13.783  0.00  0.00    +0.000 OA
ATOM     22  H   UNL     1      46.543   5.357  16.002  0.00  0.00    +0.000 HD
BRANCH  20  23
ATOM     23  C   UNL     1      46.129   5.276  13.467  0.00  0.00    +0.000 A 
ATOM     24  C   UNL     1      46.813   6.455  13.208  0.00  0.00    +0.000 A 
ATOM     25  S   UNL     1      45.976   7.517  12.169  0.00  0.00    +0.000 S 
ATOM     26  C   UNL     1      44.643   6.463  12.073  0.00  0.00    +0.000 A 
ATOM     27  N   UNL     1      43.546   6.782  11.332  0.00  0.00    +0.000 NA
ATOM     28  C   UNL     1      42.605   5.903  11.368  0.00  0.00    +0.000 A 
ATOM     29  N   UNL     1      42.653   4.735  12.076  0.00  0.00    +0.000 N 
ATOM     30  C   UNL     1      43.745   4.360  12.828  0.00  0.00    +0.000 A 
ATOM     31  O   UNL     1      43.761   3.296  13.437  0.00  0.00    +0.000 OA
ATOM     32  C   UNL     1      44.842   5.311  12.814  0.00  0.00    +0.000 A 
ATOM     33  H   UNL     1      41.882   4.083  12.065  0.00  0.00    +0.000 HD
ENDBRANCH  20  23
ENDBRANCH  18  19
ENDBRANCH   4  18
TORSDOF 7
ENDMDL
MODEL 8
REMARK VINA RESULT:    -7.072      4.966      9.225
REMARK INTER + INTRA:         -11.260
REMARK INTER:                 -10.164
REMARK INTRA:                  -1.096
REMARK UNBOUND:                -1.294
REMARK  Name = 
REMARK  8 active torsions:
REMARK  status: ('A' for Active; 'I' for Inactive)
REMARK    1  A    between atoms: C_1  and  C_2
REMARK    2  A    between atoms: C_2  and  N_3
REMARK    3  A    between atoms: C_2  and  C_25
REMARK    4  A    between atoms: N_3  and  C_4
REMARK    5  A    between atoms: C_4  and  C_5
REMARK    6  A    between atoms: C_8  and  C_9
REMARK    7  A    between atoms: C_9  and  N_10
REMARK    8  A    between atoms: C_11  and  C_13
REMARK                            x       y       z     vdW  Elec       q    Type
REMARK                         _______ _______ _______ _____ _____    ______ ____
ROOT
ATOM      1  C   UNL     1      50.995   2.448  17.430  0.00  0.00    +0.000 A 
ATOM      2  C   UNL     1      51.691   3.665  17.459  0.00  0.00    +0.000 A 
ATOM      3  C   UNL     1      51.008   4.883  17.379  0.00  0.00    +0.000 A 
ATOM      4  C   UNL     1      49.612   4.906  17.275  0.00  0.00    +0.000 A 
ATOM      5  C   UNL     1      48.919   3.690  17.213  0.00  0.00    +0.000 A 
ATOM      6  C   UNL     1      49.602   2.474  17.294  0.00  0.00    +0.000 A 
ENDROOT
BRANCH   1   7
ATOM      7  C   UNL     1      51.741   1.132  17.455  0.00  0.00    +0.000 C 
BRANCH   7   8
ATOM      8  N   UNL     1      52.732   1.078  18.531  0.00  0.00    +0.000 NA
ATOM      9  H   UNL     1      52.568   0.233  19.079  0.00  0.00    +0.000 HD
BRANCH   8  11
ATOM     10  C   UNL     1      55.123   1.552  19.094  0.00  0.00    +0.000 C 
ATOM     11  C   UNL     1      54.122   1.049  18.041  0.00  0.00    +0.000 C 
BRANCH  11  12
ATOM     12  C   UNL     1      54.564  -0.357  17.638  0.00  0.00    +0.000 A 
ATOM     13  C   UNL     1      54.529  -1.398  18.583  0.00  0.00    +0.000 A 
ATOM     14  C   UNL     1      54.735  -2.726  18.195  0.00  0.00    +0.000 A 
ATOM     15  C   UNL     1      54.997  -3.030  16.862  0.00  0.00    +0.000 A 
ATOM     16  C   UNL     1      55.086  -2.007  15.922  0.00  0.00    +0.000 A 
ATOM     17  C   UNL     1      54.867  -0.682  16.305  0.00  0.00    +0.000 A 
ENDBRANCH  11  12
ENDBRANCH   8  11
ENDBRANCH   7   8
ENDBRANCH   1   7
BRANCH   4  18
ATOM     18  C   UNL     1      48.863   6.210  17.162  0.00  0.00    +0.000 C 
BRANCH  18  19
ATOM     19  N   UNL     1      47.945   6.168  16.053  0.00  0.00    +0.000 N 
ATOM     20  C   UNL     1      48.344   6.405  14.766  0.00  0.00    +0.000 C 
ATOM     21  O   UNL     1      49.513   6.639  14.473  0.00  0.00    +0.000 OA
ATOM     22  H   UNL     1      46.959   6.220  16.285  0.00  0.00    +0.000 HD
BRANCH  20  23
ATOM     23  C   UNL     1      47.299   6.297  13.738  0.00  0.00    +0.000 A 
ATOM     24  C   UNL     1      46.834   7.436  13.100  0.00  0.00    +0.000 A 
ATOM     25  S   UNL     1      45.690   7.115  11.875  0.00  0.00    +0.000 S 
ATOM     26  C   UNL     1      45.732   5.444  12.195  0.00  0.00    +0.000 A 
ATOM     27  N   UNL     1      44.959   4.574  11.490  0.00  0.00    +0.000 NA
ATOM     28  C   UNL     1      45.076   3.343  11.852  0.00  0.00    +0.000 A 
ATOM     29  N   UNL     1      45.890   2.898  12.856  0.00  0.00    +0.000 N 
ATOM     30  C   UNL     1      46.702   3.737  13.589  0.00  0.00    +0.000 A 
ATOM     31  O   UNL     1      47.432   3.300  14.471  0.00  0.00    +0.000 OA
ATOM     32  C   UNL     1      46.618   5.136  13.214  0.00  0.00    +0.000 A 
ATOM     33  H   UNL     1      45.939   1.919  13.096  0.00  0.00    +0.000 HD
ENDBRANCH  20  23
ENDBRANCH  18  19
ENDBRANCH   4  18
TORSDOF 7
ENDMDL
MODEL 9
REMARK VINA RESULT:    -6.782      3.785      8.437
REMARK INTER + INTRA:         -10.851
REMARK INTER:                  -8.412
REMARK INTRA:                  -2.439
REMARK UNBOUND:                -1.294
REMARK  Name = 
REMARK  8 active torsions:
REMARK  status: ('A' for Active; 'I' for Inactive)
REMARK    1  A    between atoms: C_1  and  C_2
REMARK    2  A    between atoms: C_2  and  N_3
REMARK    3  A    between atoms: C_2  and  C_25
REMARK    4  A    between atoms: N_3  and  C_4
REMARK    5  A    between atoms: C_4  and  C_5
REMARK    6  A    between atoms: C_8  and  C_9
REMARK    7  A    between atoms: C_9  and  N_10
REMARK    8  A    between atoms: C_11  and  C_13
REMARK                            x       y       z     vdW  Elec       q    Type
REMARK                         _______ _______ _______ _____ _____    ______ ____
ROOT
ATOM      1  C   UNL     1      49.910   7.193  18.261  0.00  0.00    +0.000 A 
ATOM      2  C   UNL     1      48.800   7.853  17.715  0.00  0.00    +0.000 A 
ATOM      3  C   UNL     1      48.609   7.906  16.331  0.00  0.00    +0.000 A 
ATOM      4  C   UNL     1      49.522   7.293  15.465  0.00  0.00    +0.000 A 
ATOM      5  C   UNL     1      50.648   6.662  16.009  0.00  0.00    +0.000 A 
ATOM      6  C   UNL     1      50.838   6.607  17.392  0.00  0.00    +0.000 A 
ENDROOT
BRANCH   1   7
ATOM      7  C   UNL     1      50.147   7.190  19.755  0.00  0.00    +0.000 C 
BRANCH   7   8
ATOM      8  N   UNL     1      50.293   5.834  20.289  0.00  0.00    +0.000 NA
ATOM      9  H   UNL     1      50.732   5.895  21.209  0.00  0.00    +0.000 HD
BRANCH   8  11
ATOM     10  C   UNL     1      47.855   6.076  20.795  0.00  0.00    +0.000 C 
ATOM     11  C   UNL     1      49.009   5.125  20.435  0.00  0.00    +0.000 C 
BRANCH  11  12
ATOM     12  C   UNL     1      48.604   4.393  19.157  0.00  0.00    +0.000 A 
ATOM     13  C   UNL     1      47.411   4.742  18.499  0.00  0.00    +0.000 A 
ATOM     14  C   UNL     1      47.117   4.233  17.230  0.00  0.00    +0.000 A 
ATOM     15  C   UNL     1      47.999   3.353  16.610  0.00  0.00    +0.000 A 
ATOM     16  C   UNL     1      49.161   2.957  17.268  0.00  0.00    +0.000 A 
ATOM     17  C   UNL     1      49.463   3.475  18.529  0.00  0.00    +0.000 A 
ENDBRANCH  11  12
ENDBRANCH   8  11
ENDBRANCH   7   8
ENDBRANCH   1   7
BRANCH   4  18
ATOM     18  C   UNL     1      49.343   7.363  13.970  0.00  0.00    +0.000 C 
BRANCH  18  19
ATOM     19  N   UNL     1      48.008   6.967  13.603  0.00  0.00    +0.000 N 
ATOM     20  C   UNL     1      47.554   7.037  12.314  0.00  0.00    +0.000 C 
ATOM     21  O   UNL     1      48.265   7.412  11.387  0.00  0.00    +0.000 OA
ATOM     22  H   UNL     1      47.339   6.890  14.362  0.00  0.00    +0.000 HD
BRANCH  20  23
ATOM     23  C   UNL     1      46.179   6.569  12.091  0.00  0.00    +0.000 A 
ATOM     24  C   UNL     1      45.220   7.443  11.600  0.00  0.00    +0.000 A 
ATOM     25  S   UNL     1      43.707   6.709  11.317  0.00  0.00    +0.000 S 
ATOM     26  C   UNL     1      44.262   5.208  11.897  0.00  0.00    +0.000 A 
ATOM     27  N   UNL     1      43.441   4.124  11.939  0.00  0.00    +0.000 NA
ATOM     28  C   UNL     1      43.988   3.060  12.420  0.00  0.00    +0.000 A 
ATOM     29  N   UNL     1      45.276   2.978  12.867  0.00  0.00    +0.000 N 
ATOM     30  C   UNL     1      46.150   4.043  12.832  0.00  0.00    +0.000 A 
ATOM     31  O   UNL     1      47.305   3.928  13.226  0.00  0.00    +0.000 OA
ATOM     32  C   UNL     1      45.589   5.266  12.287  0.00  0.00    +0.000 A 
ATOM     33  H   UNL     1      45.649   2.115  13.235  0.00  0.00    +0.000 HD
ENDBRANCH  20  23
ENDBRANCH  18  19
ENDBRANCH   4  18
TORSDOF 7
ENDMDL
