MODEL 1
REMARK VINA RESULT:    -7.850      0.000      0.000
REMARK INTER + INTRA:         -11.103
REMARK INTER:                 -10.374
REMARK INTRA:                  -0.729
REMARK UNBOUND:                -0.729
REMARK  Name = 
REMARK  7 active torsions:
REMARK  status: ('A' for Active; 'I' for Inactive)
REMARK    1  A    between atoms: C_1  and  O_2
REMARK    2  A    between atoms: O_2  and  C_3
REMARK    3  A    between atoms: N_9  and  C_10
REMARK    4  A    between atoms: C_10  and  C_11
REMARK    5  A    between atoms: C_14  and  C_15
REMARK    6  A    between atoms: C_15  and  C_16
REMARK    7  A    between atoms: C_16  and  N_17
REMARK                            x       y       z     vdW  Elec       q    Type
REMARK                         _______ _______ _______ _____ _____    ______ ____
ROOT
ATOM      1  C   UNL     1      43.837   4.588  10.734  0.00  0.00    +0.000 C 
ENDROOT
BRANCH   1   8
ATOM      2  C   UNL     1      47.027   4.328  14.004  0.00  0.00    +0.000 A 
ATOM      3  C   UNL     1      47.481   5.578  14.415  0.00  0.00    +0.000 A 
ATOM      4  C   UNL     1      47.037   6.741  13.777  0.00  0.00    +0.000 A 
ATOM      5  C   UNL     1      46.112   6.647  12.721  0.00  0.00    +0.000 A 
ATOM      6  C   UNL     1      45.483   7.612  11.889  0.00  0.00    +0.000 A 
ATOM      7  C   UNL     1      44.638   6.939  11.039  0.00  0.00    +0.000 A 
ATOM      8  N   UNL     1      44.722   5.595  11.321  0.00  0.00    +0.000 N 
ATOM      9  C   UNL     1      45.653   5.386  12.324  0.00  0.00    +0.000 A 
ATOM     10  C   UNL     1      46.125   4.212  12.936  0.00  0.00    +0.000 A 
BRANCH   2  12
ATOM     11  C   UNL     1      47.797   3.189  15.926  0.00  0.00    +0.000 C 
ATOM     12  O   UNL     1      47.430   3.136  14.550  0.00  0.00    +0.000 OA
ENDBRANCH   2  12
ENDBRANCH   1   8
BRANCH   1  13
ATOM     13  C   UNL     1      44.530   3.768   9.676  0.00  0.00    +0.000 A 
ATOM     14  C   UNL     1      44.467   2.369   9.708  0.00  0.00    +0.000 A 
ATOM     15  C   UNL     1      45.231   1.604   8.825  0.00  0.00    +0.000 A 
ATOM     16  C   UNL     1      46.079   2.223   7.899  0.00  0.00    +0.000 A 
ATOM     17  C   UNL     1      46.065   3.618   7.795  0.00  0.00    +0.000 A 
ATOM     18  C   UNL     1      45.300   4.385   8.679  0.00  0.00    +0.000 A 
BRANCH  16  19
ATOM     19  C   UNL     1      47.065   1.400   7.106  0.00  0.00    +0.000 C 
BRANCH  19  20
ATOM     20  C   UNL     1      48.296   2.172   6.630  0.00  0.00    +0.000 C 
BRANCH  20  21
ATOM     21  N   UNL     1      48.345   2.187   5.168  0.00  0.00    +0.000 NA
ATOM     22  H   UNL     1      48.109   3.117   4.824  0.00  0.00    +0.000 HD
ATOM     23  H   UNL     1      47.638   1.555   4.794  0.00  0.00    +0.000 HD
ENDBRANCH  20  21
ENDBRANCH  19  20
ENDBRANCH  16  19
ENDBRANCH   1  13
TORSDOF 6
ENDMDL
MODEL 2
REMARK VINA RESULT:    -7.679      2.126      3.460
REMARK INTER + INTRA:         -10.877
REMARK INTER:                 -10.177
REMARK INTRA:                  -0.701
REMARK UNBOUND:                -0.729
REMARK  Name = 
REMARK  7 active torsions:
REMARK  status: ('A' for Active; 'I' for Inactive)
REMARK    1  A    between atoms: C_1  and  O_2
REMARK    2  A    between atoms: O_2  and  C_3
REMARK    3  A    between atoms: N_9  and  C_10
REMARK    4  A    between atoms: C_10  and  C_11
REMARK    5  A    between atoms: C_14  and  C_15
REMARK    6  A    between atoms: C_15  and  C_16
REMARK    7  A    between atoms: C_16  and  N_17
REMARK                            x       y       z     vdW  Elec       q    Type
REMARK                         _______ _______ _______ _____ _____    ______ ____
ROOT
ATOM      1  C   UNL     1      43.717   4.584  10.611  0.00  0.00    +0.000 C 
ENDROOT
BRANCH   1   8
ATOM      2  C   UNL     1      44.884   8.887  11.643  0.00  0.00    +0.000 A 
ATOM      3  C   UNL     1      45.936   8.957  12.553  0.00  0.00    +0.000 A 
ATOM      4  C   UNL     1      46.460   7.793  13.125  0.00  0.00    +0.000 A 
ATOM      5  C   UNL     1      45.929   6.541  12.767  0.00  0.00    +0.000 A 
ATOM      6  C   UNL     1      46.230   5.208  13.158  0.00  0.00    +0.000 A 
ATOM      7  C   UNL     1      45.401   4.371  12.451  0.00  0.00    +0.000 A 
ATOM      8  N   UNL     1      44.603   5.140  11.635  0.00  0.00    +0.000 N 
ATOM      9  C   UNL     1      44.881   6.481  11.841  0.00  0.00    +0.000 A 
ATOM     10  C   UNL     1      44.325   7.649  11.293  0.00  0.00    +0.000 A 
BRANCH   2  12
ATOM     11  C   UNL     1      42.965   9.761  10.577  0.00  0.00    +0.000 C 
ATOM     12  O   UNL     1      44.290   9.975  11.056  0.00  0.00    +0.000 OA
ENDBRANCH   2  12
ENDBRANCH   1   8
BRANCH   1  13
ATOM     13  C   UNL     1      44.468   3.772   9.587  0.00  0.00    +0.000 A 
ATOM     14  C   UNL     1      44.412   2.373   9.612  0.00  0.00    +0.000 A 
ATOM     15  C   UNL     1      45.224   1.615   8.766  0.00  0.00    +0.000 A 
ATOM     16  C   UNL     1      46.115   2.243   7.886  0.00  0.00    +0.000 A 
ATOM     17  C   UNL     1      46.098   3.638   7.787  0.00  0.00    +0.000 A 
ATOM     18  C   UNL     1      45.284   4.397   8.632  0.00  0.00    +0.000 A 
BRANCH  16  19
ATOM     19  C   UNL     1      47.145   1.429   7.142  0.00  0.00    +0.000 C 
BRANCH  19  20
ATOM     20  C   UNL     1      48.331   2.237   6.616  0.00  0.00    +0.000 C 
BRANCH  20  21
ATOM     21  N   UNL     1      48.353   2.203   5.153  0.00  0.00    +0.000 NA
ATOM     22  H   UNL     1      49.212   2.632   4.811  0.00  0.00    +0.000 HD
ATOM     23  H   UNL     1      47.586   2.765   4.786  0.00  0.00    +0.000 HD
ENDBRANCH  20  21
ENDBRANCH  19  20
ENDBRANCH  16  19
ENDBRANCH   1  13
TORSDOF 6
ENDMDL
MODEL 3
REMARK VINA RESULT:    -7.070      1.749      2.521
REMARK INTER + INTRA:         -10.072
REMARK INTER:                  -9.345
REMARK INTRA:                  -0.728
REMARK UNBOUND:                -0.729
REMARK  Name = 
REMARK  7 active torsions:
REMARK  status: ('A' for Active; 'I' for Inactive)
REMARK    1  A    between atoms: C_1  and  O_2
REMARK    2  A    between atoms: O_2  and  C_3
REMARK    3  A    between atoms: N_9  and  C_10
REMARK    4  A    between atoms: C_10  and  C_11
REMARK    5  A    between atoms: C_14  and  C_15
REMARK    6  A    between atoms: C_15  and  C_16
REMARK    7  A    between atoms: C_16  and  N_17
REMARK                            x       y       z     vdW  Elec       q    Type
REMARK                         _______ _______ _______ _____ _____    ______ ____
ROOT
ATOM      1  C   UNL     1      43.801   4.854  10.495  0.00  0.00    +0.000 C 
ENDROOT
BRANCH   1   8
ATOM      2  C   UNL     1      47.641   6.848  11.982  0.00  0.00    +0.000 A 
ATOM      3  C   UNL     1      48.009   6.428  13.257  0.00  0.00    +0.000 A 
ATOM      4  C   UNL     1      47.185   5.563  13.985  0.00  0.00    +0.000 A 
ATOM      5  C   UNL     1      45.983   5.103  13.418  0.00  0.00    +0.000 A 
ATOM      6  C   UNL     1      44.953   4.242  13.884  0.00  0.00    +0.000 A 
ATOM      7  C   UNL     1      44.024   4.123  12.878  0.00  0.00    +0.000 A 
ATOM      8  N   UNL     1      44.448   4.876  11.807  0.00  0.00    +0.000 N 
ATOM      9  C   UNL     1      45.630   5.522  12.130  0.00  0.00    +0.000 A 
ATOM     10  C   UNL     1      46.434   6.421  11.409  0.00  0.00    +0.000 A 
BRANCH   2  12
ATOM     11  C   UNL     1      49.726   7.898  11.610  0.00  0.00    +0.000 C 
ATOM     12  O   UNL     1      48.371   7.716  11.209  0.00  0.00    +0.000 OA
ENDBRANCH   2  12
ENDBRANCH   1   8
BRANCH   1  13
ATOM     13  C   UNL     1      44.512   3.945   9.525  0.00  0.00    +0.000 A 
ATOM     14  C   UNL     1      44.447   2.554   9.678  0.00  0.00    +0.000 A 
ATOM     15  C   UNL     1      45.224   1.715   8.879  0.00  0.00    +0.000 A 
ATOM     16  C   UNL     1      46.091   2.251   7.918  0.00  0.00    +0.000 A 
ATOM     17  C   UNL     1      46.080   3.632   7.692  0.00  0.00    +0.000 A 
ATOM     18  C   UNL     1      45.300   4.472   8.492  0.00  0.00    +0.000 A 
BRANCH  16  19
ATOM     19  C   UNL     1      47.089   1.362   7.217  0.00  0.00    +0.000 C 
BRANCH  19  20
ATOM     20  C   UNL     1      47.715   1.977   5.966  0.00  0.00    +0.000 C 
BRANCH  20  21
ATOM     21  N   UNL     1      49.024   2.548   6.288  0.00  0.00    +0.000 NA
ATOM     22  H   UNL     1      49.288   2.291   7.238  0.00  0.00    +0.000 HD
ATOM     23  H   UNL     1      48.969   3.565   6.270  0.00  0.00    +0.000 HD
ENDBRANCH  20  21
ENDBRANCH  19  20
ENDBRANCH  16  19
ENDBRANCH   1  13
TORSDOF 6
ENDMDL
MODEL 4
REMARK VINA RESULT:    -6.610      2.825      6.732
REMARK INTER + INTRA:          -9.464
REMARK INTER:                  -8.974
REMARK INTRA:                  -0.491
REMARK UNBOUND:                -0.729
REMARK  Name = 
REMARK  7 active torsions:
REMARK  status: ('A' for Active; 'I' for Inactive)
REMARK    1  A    between atoms: C_1  and  O_2
REMARK    2  A    between atoms: O_2  and  C_3
REMARK    3  A    between atoms: N_9  and  C_10
REMARK    4  A    between atoms: C_10  and  C_11
REMARK    5  A    between atoms: C_14  and  C_15
REMARK    6  A    between atoms: C_15  and  C_16
REMARK    7  A    between atoms: C_16  and  N_17
REMARK                            x       y       z     vdW  Elec       q    Type
REMARK                         _______ _______ _______ _____ _____    ______ ____
ROOT
ATOM      1  C   UNL     1      44.043   6.461  11.418  0.00  0.00    +0.000 C 
ENDROOT
BRANCH   1   8
ATOM      2  C   UNL     1      45.658   3.739   8.113  0.00  0.00    +0.000 A 
ATOM      3  C   UNL     1      45.246   2.416   8.254  0.00  0.00    +0.000 A 
ATOM      4  C   UNL     1      44.503   2.018   9.370  0.00  0.00    +0.000 A 
ATOM      5  C   UNL     1      44.157   2.965  10.351  0.00  0.00    +0.000 A 
ATOM      6  C   UNL     1      43.432   2.884  11.570  0.00  0.00    +0.000 A 
ATOM      7  C   UNL     1      43.379   4.148  12.107  0.00  0.00    +0.000 A 
ATOM      8  N   UNL     1      44.042   5.006  11.260  0.00  0.00    +0.000 N 
ATOM      9  C   UNL     1      44.566   4.295  10.192  0.00  0.00    +0.000 A 
ATOM     10  C   UNL     1      45.345   4.692   9.093  0.00  0.00    +0.000 A 
BRANCH   2  12
ATOM     11  C   UNL     1      46.789   3.237   6.100  0.00  0.00    +0.000 C 
ATOM     12  O   UNL     1      46.412   4.211   7.069  0.00  0.00    +0.000 OA
ENDBRANCH   2  12
ENDBRANCH   1   8
BRANCH   1  13
ATOM     13  C   UNL     1      45.303   6.960  12.077  0.00  0.00    +0.000 A 
ATOM     14  C   UNL     1      46.376   6.090  12.307  0.00  0.00    +0.000 A 
ATOM     15  C   UNL     1      47.481   6.507  13.052  0.00  0.00    +0.000 A 
ATOM     16  C   UNL     1      47.529   7.799  13.589  0.00  0.00    +0.000 A 
ATOM     17  C   UNL     1      46.508   8.702  13.273  0.00  0.00    +0.000 A 
ATOM     18  C   UNL     1      45.403   8.285  12.526  0.00  0.00    +0.000 A 
BRANCH  16  19
ATOM     19  C   UNL     1      48.610   8.171  14.575  0.00  0.00    +0.000 C 
BRANCH  19  20
ATOM     20  C   UNL     1      49.191   6.990  15.352  0.00  0.00    +0.000 C 
BRANCH  20  21
ATOM     21  N   UNL     1      50.635   6.905  15.130  0.00  0.00    +0.000 NA
ATOM     22  H   UNL     1      50.821   6.411  14.258  0.00  0.00    +0.000 HD
ATOM     23  H   UNL     1      51.064   6.351  15.871  0.00  0.00    +0.000 HD
ENDBRANCH  20  21
ENDBRANCH  19  20
ENDBRANCH  16  19
ENDBRANCH   1  13
TORSDOF 6
ENDMDL
MODEL 5
REMARK VINA RESULT:    -5.348      2.539      3.994
REMARK INTER + INTRA:          -7.796
REMARK INTER:                  -7.074
REMARK INTRA:                  -0.722
REMARK UNBOUND:                -0.729
REMARK  Name = 
REMARK  7 active torsions:
REMARK  status: ('A' for Active; 'I' for Inactive)
REMARK    1  A    between atoms: C_1  and  O_2
REMARK    2  A    between atoms: O_2  and  C_3
REMARK    3  A    between atoms: N_9  and  C_10
REMARK    4  A    between atoms: C_10  and  C_11
REMARK    5  A    between atoms: C_14  and  C_15
REMARK    6  A    between atoms: C_15  and  C_16
REMARK    7  A    between atoms: C_16  and  N_17
REMARK                            x       y       z     vdW  Elec       q    Type
REMARK                         _______ _______ _______ _____ _____    ______ ____
ROOT
ATOM      1  C   UNL     1      45.956   7.648  12.904  0.00  0.00    +0.000 C 
ENDROOT
BRANCH   1   8
ATOM      2  C   UNL     1      49.514   6.565  15.570  0.00  0.00    +0.000 A 
ATOM      3  C   UNL     1      50.656   7.304  15.273  0.00  0.00    +0.000 A 
ATOM      4  C   UNL     1      50.666   8.192  14.193  0.00  0.00    +0.000 A 
ATOM      5  C   UNL     1      49.509   8.350  13.409  0.00  0.00    +0.000 A 
ATOM      6  C   UNL     1      49.203   9.149  12.274  0.00  0.00    +0.000 A 
ATOM      7  C   UNL     1      47.889   8.916  11.944  0.00  0.00    +0.000 A 
ATOM      8  N   UNL     1      47.374   8.006  12.838  0.00  0.00    +0.000 N 
ATOM      9  C   UNL     1      48.363   7.611  13.724  0.00  0.00    +0.000 A 
ATOM     10  C   UNL     1      48.359   6.689  14.784  0.00  0.00    +0.000 A 
BRANCH   2  12
ATOM     11  C   UNL     1      48.199   4.922  16.647  0.00  0.00    +0.000 C 
ATOM     12  O   UNL     1      49.423   5.651  16.589  0.00  0.00    +0.000 OA
ENDBRANCH   2  12
ENDBRANCH   1   8
BRANCH   1  13
ATOM     13  C   UNL     1      45.677   6.311  12.267  0.00  0.00    +0.000 A 
ATOM     14  C   UNL     1      45.665   6.178  10.873  0.00  0.00    +0.000 A 
ATOM     15  C   UNL     1      45.257   4.983  10.278  0.00  0.00    +0.000 A 
ATOM     16  C   UNL     1      44.844   3.901  11.066  0.00  0.00    +0.000 A 
ATOM     17  C   UNL     1      44.954   3.996  12.457  0.00  0.00    +0.000 A 
ATOM     18  C   UNL     1      45.363   5.192  13.053  0.00  0.00    +0.000 A 
BRANCH  16  19
ATOM     19  C   UNL     1      44.194   2.700  10.424  0.00  0.00    +0.000 C 
BRANCH  19  20
ATOM     20  C   UNL     1      44.569   2.485   8.957  0.00  0.00    +0.000 C 
BRANCH  20  21
ATOM     21  N   UNL     1      45.554   1.408   8.843  0.00  0.00    +0.000 NA
ATOM     22  H   UNL     1      45.367   0.694   9.546  0.00  0.00    +0.000 HD
ATOM     23  H   UNL     1      46.485   1.772   9.043  0.00  0.00    +0.000 HD
ENDBRANCH  20  21
ENDBRANCH  19  20
ENDBRANCH  16  19
ENDBRANCH   1  13
TORSDOF 6
ENDMDL
MODEL 6
REMARK VINA RESULT:    -5.335      3.454      5.448
REMARK INTER + INTRA:          -7.779
REMARK INTER:                  -7.077
REMARK INTRA:                  -0.702
REMARK UNBOUND:                -0.729
REMARK  Name = 
REMARK  7 active torsions:
REMARK  status: ('A' for Active; 'I' for Inactive)
REMARK    1  A    between atoms: C_1  and  O_2
REMARK    2  A    between atoms: O_2  and  C_3
REMARK    3  A    between atoms: N_9  and  C_10
REMARK    4  A    between atoms: C_10  and  C_11
REMARK    5  A    between atoms: C_14  and  C_15
REMARK    6  A    between atoms: C_15  and  C_16
REMARK    7  A    between atoms: C_16  and  N_17
REMARK                            x       y       z     vdW  Elec       q    Type
REMARK                         _______ _______ _______ _____ _____    ______ ____
ROOT
ATOM      1  C   UNL     1      48.536   6.686  13.632  0.00  0.00    +0.000 C 
ENDROOT
BRANCH   1   8
ATOM      2  C   UNL     1      48.527   5.114  17.929  0.00  0.00    +0.000 A 
ATOM      3  C   UNL     1      48.452   6.132  18.876  0.00  0.00    +0.000 A 
ATOM      4  C   UNL     1      48.484   7.473  18.481  0.00  0.00    +0.000 A 
ATOM      5  C   UNL     1      48.577   7.796  17.115  0.00  0.00    +0.000 A 
ATOM      6  C   UNL     1      48.632   9.026  16.407  0.00  0.00    +0.000 A 
ATOM      7  C   UNL     1      48.687   8.732  15.066  0.00  0.00    +0.000 A 
ATOM      8  N   UNL     1      48.665   7.364  14.922  0.00  0.00    +0.000 N 
ATOM      9  C   UNL     1      48.639   6.764  16.171  0.00  0.00    +0.000 A 
ATOM     10  C   UNL     1      48.646   5.416  16.564  0.00  0.00    +0.000 A 
BRANCH   2  12
ATOM     11  C   UNL     1      47.664   2.971  17.432  0.00  0.00    +0.000 C 
ATOM     12  O   UNL     1      48.532   3.774  18.226  0.00  0.00    +0.000 OA
ENDBRANCH   2  12
ENDBRANCH   1   8
BRANCH   1  13
ATOM     13  C   UNL     1      47.136   6.185  13.389  0.00  0.00    +0.000 A 
ATOM     14  C   UNL     1      46.825   4.832  13.571  0.00  0.00    +0.000 A 
ATOM     15  C   UNL     1      45.574   4.335  13.201  0.00  0.00    +0.000 A 
ATOM     16  C   UNL     1      44.612   5.180  12.633  0.00  0.00    +0.000 A 
ATOM     17  C   UNL     1      44.883   6.550  12.547  0.00  0.00    +0.000 A 
ATOM     18  C   UNL     1      46.135   7.048  12.918  0.00  0.00    +0.000 A 
BRANCH  16  19
ATOM     19  C   UNL     1      43.355   4.602  12.031  0.00  0.00    +0.000 C 
BRANCH  19  20
ATOM     20  C   UNL     1      43.589   3.423  11.087  0.00  0.00    +0.000 C 
BRANCH  20  21
ATOM     21  N   UNL     1      43.034   2.199  11.666  0.00  0.00    +0.000 NA
ATOM     22  H   UNL     1      43.791   1.584  11.963  0.00  0.00    +0.000 HD
ATOM     23  H   UNL     1      42.512   1.689  10.955  0.00  0.00    +0.000 HD
ENDBRANCH  20  21
ENDBRANCH  19  20
ENDBRANCH  16  19
ENDBRANCH   1  13
TORSDOF 6
ENDMDL
MODEL 7
REMARK VINA RESULT:    -5.128      2.985      7.491
REMARK INTER + INTRA:          -7.506
REMARK INTER:                  -6.856
REMARK INTRA:                  -0.650
REMARK UNBOUND:                -0.729
REMARK  Name = 
REMARK  7 active torsions:
REMARK  status: ('A' for Active; 'I' for Inactive)
REMARK    1  A    between atoms: C_1  and  O_2
REMARK    2  A    between atoms: O_2  and  C_3
REMARK    3  A    between atoms: N_9  and  C_10
REMARK    4  A    between atoms: C_10  and  C_11
REMARK    5  A    between atoms: C_14  and  C_15
REMARK    6  A    between atoms: C_15  and  C_16
REMARK    7  A    between atoms: C_16  and  N_17
REMARK                            x       y       z     vdW  Elec       q    Type
REMARK                         _______ _______ _______ _____ _____    ______ ____
ROOT
ATOM      1  C   UNL     1      47.958   6.321  13.033  0.00  0.00    +0.000 C 
ENDROOT
BRANCH   1   8
ATOM      2  C   UNL     1      44.377   4.172  11.164  0.00  0.00    +0.000 A 
ATOM      3  C   UNL     1      43.321   5.032  10.877  0.00  0.00    +0.000 A 
ATOM      4  C   UNL     1      43.382   6.380  11.244  0.00  0.00    +0.000 A 
ATOM      5  C   UNL     1      44.527   6.873  11.896  0.00  0.00    +0.000 A 
ATOM      6  C   UNL     1      44.891   8.156  12.388  0.00  0.00    +0.000 A 
ATOM      7  C   UNL     1      46.159   8.056  12.910  0.00  0.00    +0.000 A 
ATOM      8  N   UNL     1      46.590   6.760  12.753  0.00  0.00    +0.000 N 
ATOM      9  C   UNL     1      45.588   6.002  12.169  0.00  0.00    +0.000 A 
ATOM     10  C   UNL     1      45.515   4.639  11.836  0.00  0.00    +0.000 A 
BRANCH   2  12
ATOM     11  C   UNL     1      44.537   2.514   9.487  0.00  0.00    +0.000 C 
ATOM     12  O   UNL     1      44.391   2.832  10.868  0.00  0.00    +0.000 OA
ENDBRANCH   2  12
ENDBRANCH   1   8
BRANCH   1  13
ATOM     13  C   UNL     1      48.193   6.097  14.505  0.00  0.00    +0.000 A 
ATOM     14  C   UNL     1      49.069   6.925  15.218  0.00  0.00    +0.000 A 
ATOM     15  C   UNL     1      49.408   6.629  16.539  0.00  0.00    +0.000 A 
ATOM     16  C   UNL     1      48.884   5.495  17.171  0.00  0.00    +0.000 A 
ATOM     17  C   UNL     1      47.929   4.726  16.497  0.00  0.00    +0.000 A 
ATOM     18  C   UNL     1      47.589   5.022  15.174  0.00  0.00    +0.000 A 
BRANCH  16  19
ATOM     19  C   UNL     1      49.422   5.056  18.511  0.00  0.00    +0.000 C 
BRANCH  19  20
ATOM     20  C   UNL     1      48.350   4.794  19.569  0.00  0.00    +0.000 C 
BRANCH  20  21
ATOM     21  N   UNL     1      48.347   3.379  19.942  0.00  0.00    +0.000 NA
ATOM     22  H   UNL     1      49.299   3.016  19.924  0.00  0.00    +0.000 HD
ATOM     23  H   UNL     1      47.823   2.843  19.251  0.00  0.00    +0.000 HD
ENDBRANCH  20  21
ENDBRANCH  19  20
ENDBRANCH  16  19
ENDBRANCH   1  13
TORSDOF 6
ENDMDL
MODEL 8
REMARK VINA RESULT:    -5.026      4.012      6.482
REMARK INTER + INTRA:          -7.371
REMARK INTER:                  -6.922
REMARK INTRA:                  -0.449
REMARK UNBOUND:                -0.729
REMARK  Name = 
REMARK  7 active torsions:
REMARK  status: ('A' for Active; 'I' for Inactive)
REMARK    1  A    between atoms: C_1  and  O_2
REMARK    2  A    between atoms: O_2  and  C_3
REMARK    3  A    between atoms: N_9  and  C_10
REMARK    4  A    between atoms: C_10  and  C_11
REMARK    5  A    between atoms: C_14  and  C_15
REMARK    6  A    between atoms: C_15  and  C_16
REMARK    7  A    between atoms: C_16  and  N_17
REMARK                            x       y       z     vdW  Elec       q    Type
REMARK                         _______ _______ _______ _____ _____    ______ ____
ROOT
ATOM      1  C   UNL     1      46.706   7.997  12.228  0.00  0.00    +0.000 C 
ENDROOT
BRANCH   1   8
ATOM      2  C   UNL     1      44.744   4.345  10.292  0.00  0.00    +0.000 A 
ATOM      3  C   UNL     1      44.717   3.237  11.134  0.00  0.00    +0.000 A 
ATOM      4  C   UNL     1      45.335   3.281  12.388  0.00  0.00    +0.000 A 
ATOM      5  C   UNL     1      45.977   4.461  12.806  0.00  0.00    +0.000 A 
ATOM      6  C   UNL     1      46.681   4.820  13.987  0.00  0.00    +0.000 A 
ATOM      7  C   UNL     1      47.070   6.132  13.857  0.00  0.00    +0.000 A 
ATOM      8  N   UNL     1      46.627   6.595  12.639  0.00  0.00    +0.000 N 
ATOM      9  C   UNL     1      45.988   5.573  11.956  0.00  0.00    +0.000 A 
ATOM     10  C   UNL     1      45.401   5.521  10.680  0.00  0.00    +0.000 A 
BRANCH   2  12
ATOM     11  C   UNL     1      44.884   3.631   8.043  0.00  0.00    +0.000 C 
ATOM     12  O   UNL     1      44.191   4.381   9.036  0.00  0.00    +0.000 OA
ENDBRANCH   2  12
ENDBRANCH   1   8
BRANCH   1  13
ATOM     13  C   UNL     1      48.103   8.395  11.825  0.00  0.00    +0.000 A 
ATOM     14  C   UNL     1      49.077   7.417  11.586  0.00  0.00    +0.000 A 
ATOM     15  C   UNL     1      50.406   7.780  11.363  0.00  0.00    +0.000 A 
ATOM     16  C   UNL     1      50.789   9.127  11.386  0.00  0.00    +0.000 A 
ATOM     17  C   UNL     1      49.801  10.109  11.522  0.00  0.00    +0.000 A 
ATOM     18  C   UNL     1      48.470   9.746  11.743  0.00  0.00    +0.000 A 
BRANCH  16  19
ATOM     19  C   UNL     1      52.251   9.501  11.372  0.00  0.00    +0.000 C 
BRANCH  19  20
ATOM     20  C   UNL     1      53.042   8.918  10.200  0.00  0.00    +0.000 C 
BRANCH  20  21
ATOM     21  N   UNL     1      52.684   9.609   8.960  0.00  0.00    +0.000 NA
ATOM     22  H   UNL     1      53.243  10.457   8.865  0.00  0.00    +0.000 HD
ATOM     23  H   UNL     1      51.712   9.910   9.003  0.00  0.00    +0.000 HD
ENDBRANCH  20  21
ENDBRANCH  19  20
ENDBRANCH  16  19
ENDBRANCH   1  13
TORSDOF 6
ENDMDL
