MODEL 1
REMARK VINA RESULT:    -8.839      0.000      0.000
REMARK INTER + INTRA:         -12.333
REMARK INTER:                 -11.423
REMARK INTRA:                  -0.910
REMARK UNBOUND:                -0.910
REMARK  Name = 
REMARK  8 active torsions:
REMARK  status: ('A' for Active; 'I' for Inactive)
REMARK    1  A    between atoms: C_1  and  C_2
REMARK    2  A    between atoms: C_8  and  C_9
REMARK    3  A    between atoms: C_9  and  C_10
REMARK    4  A    between atoms: C_9  and  C_11
REMARK    5  A    between atoms: C_9  and  C_12
REMARK    6  A    between atoms: C_12  and  N_13
REMARK    7  A    between atoms: N_13  and  C_14
REMARK    8  A    between atoms: C_17  and  C_18
REMARK                            x       y       z     vdW  Elec       q    Type
REMARK                         _______ _______ _______ _____ _____    ______ ____
ROOT
ATOM      1  C   UNL     1      43.842   5.386  12.052  0.00  0.00    +0.000 C 
ATOM      2  C   UNL     1      42.780   5.313  13.179  0.00  0.00    +0.000 C 
ATOM      3  C   UNL     1      43.741   6.782  11.385  0.00  0.00    +0.000 C 
ENDROOT
BRANCH   1  11
ATOM      4  C   UNL     1      49.397  11.226  13.285  0.00  0.00    +0.000 C 
ATOM      5  C   UNL     1      49.533   9.748  12.927  0.00  0.00    +0.000 C 
ATOM      6  C   UNL     1      49.462   8.870  14.193  0.00  0.00    +0.000 C 
ATOM      7  C   UNL     1      49.430   7.371  13.858  0.00  0.00    +0.000 C 
ATOM      8  N   UNL     1      48.346   7.172  12.909  0.00  0.00    +0.000 N 
ATOM      9  C   UNL     1      47.481   6.110  13.050  0.00  0.00    +0.000 A 
ATOM     10  C   UNL     1      46.185   6.224  12.540  0.00  0.00    +0.000 A 
ATOM     11  C   UNL     1      45.235   5.202  12.673  0.00  0.00    +0.000 A 
ATOM     12  C   UNL     1      45.652   4.080  13.387  0.00  0.00    +0.000 A 
ATOM     13  C   UNL     1      46.955   4.028  13.863  0.00  0.00    +0.000 A 
ATOM     14  F   UNL     1      47.346   2.915  14.499  0.00  0.00    +0.000 F 
ATOM     15  N   UNL     1      47.865   5.011  13.720  0.00  0.00    +0.000 NA
ATOM     16  C   UNL     1      48.489   7.853  11.629  0.00  0.00    +0.000 C 
ATOM     17  C   UNL     1      48.454   9.353  11.904  0.00  0.00    +0.000 C 
ENDBRANCH   1  11
BRANCH   1  18
ATOM     18  C   UNL     1      43.449   4.310  10.993  0.00  0.00    +0.000 C 
BRANCH  18  19
ATOM     19  N   UNL     1      43.739   4.740   9.618  0.00  0.00    +0.000 N 
ATOM     20  H   UNL     1      43.857   5.743   9.513  0.00  0.00    +0.000 HD
BRANCH  19  21
ATOM     21  C   UNL     1      44.709   4.011   8.920  0.00  0.00    +0.000 A 
ATOM     22  C   UNL     1      44.780   2.625   9.064  0.00  0.00    +0.000 A 
ATOM     23  C   UNL     1      45.772   1.895   8.408  0.00  0.00    +0.000 A 
ATOM     24  C   UNL     1      46.689   2.590   7.636  0.00  0.00    +0.000 A 
ATOM     25  N   UNL     1      46.684   3.940   7.479  0.00  0.00    +0.000 NA
ATOM     26  C   UNL     1      45.705   4.605   8.135  0.00  0.00    +0.000 A 
BRANCH  24  27
ATOM     27  C   UNL     1      47.780   1.853   6.919  0.00  0.00    +0.000 C 
ATOM     28  N   UNL     1      48.628   2.638   6.187  0.00  0.00    +0.000 N 
ATOM     29  O   UNL     1      47.909   0.637   6.981  0.00  0.00    +0.000 OA
ATOM     30  H   UNL     1      48.484   3.643   6.175  0.00  0.00    +0.000 HD
ATOM     31  H   UNL     1      49.390   2.218   5.682  0.00  0.00    +0.000 HD
ENDBRANCH  24  27
ENDBRANCH  19  21
ENDBRANCH  18  19
ENDBRANCH   1  18
TORSDOF 5
ENDMDL
MODEL 2
REMARK VINA RESULT:    -8.351      3.085      7.463
REMARK INTER + INTRA:         -11.701
REMARK INTER:                 -10.685
REMARK INTRA:                  -1.016
REMARK UNBOUND:                -0.910
REMARK  Name = 
REMARK  8 active torsions:
REMARK  status: ('A' for Active; 'I' for Inactive)
REMARK    1  A    between atoms: C_1  and  C_2
REMARK    2  A    between atoms: C_8  and  C_9
REMARK    3  A    between atoms: C_9  and  C_10
REMARK    4  A    between atoms: C_9  and  C_11
REMARK    5  A    between atoms: C_9  and  C_12
REMARK    6  A    between atoms: C_12  and  N_13
REMARK    7  A    between atoms: N_13  and  C_14
REMARK    8  A    between atoms: C_17  and  C_18
REMARK                            x       y       z     vdW  Elec       q    Type
REMARK                         _______ _______ _______ _____ _____    ______ ____
ROOT
ATOM      1  C   UNL     1      46.687   7.791  12.201  0.00  0.00    +0.000 C 
ATOM      2  C   UNL     1      47.957   7.495  11.363  0.00  0.00    +0.000 C 
ATOM      3  C   UNL     1      46.086   9.131  11.704  0.00  0.00    +0.000 C 
ENDROOT
BRANCH   1  11
ATOM      4  C   UNL     1      47.512   1.493   7.088  0.00  0.00    +0.000 C 
ATOM      5  C   UNL     1      46.287   2.284   7.544  0.00  0.00    +0.000 C 
ATOM      6  C   UNL     1      45.762   1.750   8.892  0.00  0.00    +0.000 C 
ATOM      7  C   UNL     1      44.635   2.622   9.462  0.00  0.00    +0.000 C 
ATOM      8  N   UNL     1      45.131   3.989   9.493  0.00  0.00    +0.000 N 
ATOM      9  C   UNL     1      44.911   4.787  10.593  0.00  0.00    +0.000 A 
ATOM     10  C   UNL     1      45.812   5.819  10.868  0.00  0.00    +0.000 A 
ATOM     11  C   UNL     1      45.677   6.653  11.987  0.00  0.00    +0.000 A 
ATOM     12  C   UNL     1      44.611   6.359  12.834  0.00  0.00    +0.000 A 
ATOM     13  C   UNL     1      43.750   5.322  12.500  0.00  0.00    +0.000 A 
ATOM     14  F   UNL     1      42.701   5.096  13.304  0.00  0.00    +0.000 F 
ATOM     15  N   UNL     1      43.881   4.534  11.416  0.00  0.00    +0.000 NA
ATOM     16  C   UNL     1      45.460   4.575   8.200  0.00  0.00    +0.000 C 
ATOM     17  C   UNL     1      46.628   3.782   7.624  0.00  0.00    +0.000 C 
ENDBRANCH   1  11
BRANCH   1  18
ATOM     18  C   UNL     1      47.155   7.984  13.676  0.00  0.00    +0.000 C 
BRANCH  18  19
ATOM     19  N   UNL     1      48.345   7.183  13.999  0.00  0.00    +0.000 N 
ATOM     20  H   UNL     1      49.181   7.733  14.172  0.00  0.00    +0.000 HD
BRANCH  19  21
ATOM     21  C   UNL     1      48.179   6.154  14.932  0.00  0.00    +0.000 A 
ATOM     22  C   UNL     1      47.344   5.074  14.641  0.00  0.00    +0.000 A 
ATOM     23  C   UNL     1      47.136   4.065  15.584  0.00  0.00    +0.000 A 
ATOM     24  C   UNL     1      47.762   4.185  16.814  0.00  0.00    +0.000 A 
ATOM     25  N   UNL     1      48.565   5.225  17.162  0.00  0.00    +0.000 NA
ATOM     26  C   UNL     1      48.735   6.179  16.217  0.00  0.00    +0.000 A 
BRANCH  24  27
ATOM     27  C   UNL     1      47.564   3.133  17.863  0.00  0.00    +0.000 C 
ATOM     28  N   UNL     1      48.498   3.127  18.863  0.00  0.00    +0.000 N 
ATOM     29  O   UNL     1      46.635   2.336  17.835  0.00  0.00    +0.000 OA
ATOM     30  H   UNL     1      49.244   3.815  18.847  0.00  0.00    +0.000 HD
ATOM     31  H   UNL     1      48.429   2.454  19.608  0.00  0.00    +0.000 HD
ENDBRANCH  24  27
ENDBRANCH  19  21
ENDBRANCH  18  19
ENDBRANCH   1  18
TORSDOF 5
ENDMDL
MODEL 3
REMARK VINA RESULT:    -7.579      3.866      8.167
REMARK INTER + INTRA:         -10.703
REMARK INTER:                 -10.543
REMARK INTRA:                  -0.160
REMARK UNBOUND:                -0.910
REMARK  Name = 
REMARK  8 active torsions:
REMARK  status: ('A' for Active; 'I' for Inactive)
REMARK    1  A    between atoms: C_1  and  C_2
REMARK    2  A    between atoms: C_8  and  C_9
REMARK    3  A    between atoms: C_9  and  C_10
REMARK    4  A    between atoms: C_9  and  C_11
REMARK    5  A    between atoms: C_9  and  C_12
REMARK    6  A    between atoms: C_12  and  N_13
REMARK    7  A    between atoms: N_13  and  C_14
REMARK    8  A    between atoms: C_17  and  C_18
REMARK                            x       y       z     vdW  Elec       q    Type
REMARK                         _______ _______ _______ _____ _____    ______ ____
ROOT
ATOM      1  C   UNL     1      46.462   6.630  12.570  0.00  0.00    +0.000 C 
ATOM      2  C   UNL     1      47.339   7.057  11.364  0.00  0.00    +0.000 C 
ATOM      3  C   UNL     1      45.513   7.808  12.914  0.00  0.00    +0.000 C 
ENDROOT
BRANCH   1  11
ATOM      4  C   UNL     1      47.886   1.727   6.213  0.00  0.00    +0.000 C 
ATOM      5  C   UNL     1      46.590   2.178   6.883  0.00  0.00    +0.000 C 
ATOM      6  C   UNL     1      46.276   1.301   8.112  0.00  0.00    +0.000 C 
ATOM      7  C   UNL     1      45.071   1.827   8.906  0.00  0.00    +0.000 C 
ATOM      8  N   UNL     1      45.335   3.227   9.200  0.00  0.00    +0.000 N 
ATOM      9  C   UNL     1      45.079   3.737  10.453  0.00  0.00    +0.000 A 
ATOM     10  C   UNL     1      45.817   4.838  10.895  0.00  0.00    +0.000 A 
ATOM     11  C   UNL     1      45.640   5.395  12.170  0.00  0.00    +0.000 A 
ATOM     12  C   UNL     1      44.712   4.753  12.986  0.00  0.00    +0.000 A 
ATOM     13  C   UNL     1      44.009   3.666  12.483  0.00  0.00    +0.000 A 
ATOM     14  F   UNL     1      43.083   3.100  13.270  0.00  0.00    +0.000 F 
ATOM     15  N   UNL     1      44.177   3.145  11.252  0.00  0.00    +0.000 NA
ATOM     16  C   UNL     1      45.453   4.107   8.045  0.00  0.00    +0.000 C 
ATOM     17  C   UNL     1      46.684   3.667   7.260  0.00  0.00    +0.000 C 
ENDBRANCH   1  11
BRANCH   1  18
ATOM     18  C   UNL     1      47.427   6.413  13.775  0.00  0.00    +0.000 C 
BRANCH  18  19
ATOM     19  N   UNL     1      47.200   5.130  14.456  0.00  0.00    +0.000 N 
ATOM     20  H   UNL     1      47.428   4.316  13.893  0.00  0.00    +0.000 HD
BRANCH  19  21
ATOM     21  C   UNL     1      47.669   5.021  15.770  0.00  0.00    +0.000 A 
ATOM     22  C   UNL     1      48.598   5.940  16.259  0.00  0.00    +0.000 A 
ATOM     23  C   UNL     1      49.106   5.813  17.553  0.00  0.00    +0.000 A 
ATOM     24  C   UNL     1      48.677   4.741  18.318  0.00  0.00    +0.000 A 
ATOM     25  N   UNL     1      47.794   3.802  17.886  0.00  0.00    +0.000 NA
ATOM     26  C   UNL     1      47.331   3.966  16.626  0.00  0.00    +0.000 A 
BRANCH  24  27
ATOM     27  C   UNL     1      49.200   4.555  19.711  0.00  0.00    +0.000 C 
ATOM     28  N   UNL     1      48.580   3.576  20.438  0.00  0.00    +0.000 N 
ATOM     29  O   UNL     1      50.116   5.226  20.169  0.00  0.00    +0.000 OA
ATOM     30  H   UNL     1      47.831   3.041  20.010  0.00  0.00    +0.000 HD
ATOM     31  H   UNL     1      48.879   3.387  21.380  0.00  0.00    +0.000 HD
ENDBRANCH  24  27
ENDBRANCH  19  21
ENDBRANCH  18  19
ENDBRANCH   1  18
TORSDOF 5
ENDMDL
MODEL 4
REMARK VINA RESULT:    -6.963      3.429      7.179
REMARK INTER + INTRA:          -9.908
REMARK INTER:                  -9.267
REMARK INTRA:                  -0.641
REMARK UNBOUND:                -0.910
REMARK  Name = 
REMARK  8 active torsions:
REMARK  status: ('A' for Active; 'I' for Inactive)
REMARK    1  A    between atoms: C_1  and  C_2
REMARK    2  A    between atoms: C_8  and  C_9
REMARK    3  A    between atoms: C_9  and  C_10
REMARK    4  A    between atoms: C_9  and  C_11
REMARK    5  A    between atoms: C_9  and  C_12
REMARK    6  A    between atoms: C_12  and  N_13
REMARK    7  A    between atoms: N_13  and  C_14
REMARK    8  A    between atoms: C_17  and  C_18
REMARK                            x       y       z     vdW  Elec       q    Type
REMARK                         _______ _______ _______ _____ _____    ______ ____
ROOT
ATOM      1  C   UNL     1      46.862   7.042  12.803  0.00  0.00    +0.000 C 
ATOM      2  C   UNL     1      46.118   8.363  13.130  0.00  0.00    +0.000 C 
ATOM      3  C   UNL     1      47.625   6.594  14.076  0.00  0.00    +0.000 C 
ENDROOT
BRANCH   1  11
ATOM      4  C   UNL     1      47.499   1.707   6.669  0.00  0.00    +0.000 C 
ATOM      5  C   UNL     1      46.296   2.430   7.272  0.00  0.00    +0.000 C 
ATOM      6  C   UNL     1      45.775   1.681   8.516  0.00  0.00    +0.000 C 
ATOM      7  C   UNL     1      44.672   2.463   9.244  0.00  0.00    +0.000 C 
ATOM      8  N   UNL     1      45.198   3.795   9.503  0.00  0.00    +0.000 N 
ATOM      9  C   UNL     1      45.006   4.394  10.727  0.00  0.00    +0.000 A 
ATOM     10  C   UNL     1      45.931   5.346  11.163  0.00  0.00    +0.000 A 
ATOM     11  C   UNL     1      45.826   5.977  12.411  0.00  0.00    +0.000 A 
ATOM     12  C   UNL     1      44.764   5.561  13.209  0.00  0.00    +0.000 A 
ATOM     13  C   UNL     1      43.877   4.614  12.714  0.00  0.00    +0.000 A 
ATOM     14  F   UNL     1      42.833   4.272  13.482  0.00  0.00    +0.000 F 
ATOM     15  N   UNL     1      43.980   4.022  11.508  0.00  0.00    +0.000 NA
ATOM     16  C   UNL     1      45.524   4.588   8.326  0.00  0.00    +0.000 C 
ATOM     17  C   UNL     1      46.669   3.885   7.605  0.00  0.00    +0.000 C 
ENDBRANCH   1  11
BRANCH   1  18
ATOM     18  C   UNL     1      47.909   7.377  11.698  0.00  0.00    +0.000 C 
BRANCH  18  19
ATOM     19  N   UNL     1      48.682   8.590  12.002  0.00  0.00    +0.000 N 
ATOM     20  H   UNL     1      48.683   8.845  12.985  0.00  0.00    +0.000 HD
BRANCH  19  21
ATOM     21  C   UNL     1      49.952   8.691  11.422  0.00  0.00    +0.000 A 
ATOM     22  C   UNL     1      50.670   7.537  11.107  0.00  0.00    +0.000 A 
ATOM     23  C   UNL     1      51.956   7.627  10.570  0.00  0.00    +0.000 A 
ATOM     24  C   UNL     1      52.496   8.890  10.384  0.00  0.00    +0.000 A 
ATOM     25  N   UNL     1      51.853  10.047  10.695  0.00  0.00    +0.000 NA
ATOM     26  C   UNL     1      50.611   9.908  11.214  0.00  0.00    +0.000 A 
BRANCH  24  27
ATOM     27  C   UNL     1      53.876   9.040   9.819  0.00  0.00    +0.000 C 
ATOM     28  N   UNL     1      54.716   7.984  10.048  0.00  0.00    +0.000 N 
ATOM     29  O   UNL     1      54.233  10.032   9.197  0.00  0.00    +0.000 OA
ATOM     30  H   UNL     1      54.370   7.180  10.562  0.00  0.00    +0.000 HD
ATOM     31  H   UNL     1      55.658   8.007   9.694  0.00  0.00    +0.000 HD
ENDBRANCH  24  27
ENDBRANCH  19  21
ENDBRANCH  18  19
ENDBRANCH   1  18
TORSDOF 5
ENDMDL
MODEL 5
REMARK VINA RESULT:    -6.644      3.338      5.945
REMARK INTER + INTRA:          -9.496
REMARK INTER:                  -8.715
REMARK INTRA:                  -0.781
REMARK UNBOUND:                -0.910
REMARK  Name = 
REMARK  8 active torsions:
REMARK  status: ('A' for Active; 'I' for Inactive)
REMARK    1  A    between atoms: C_1  and  C_2
REMARK    2  A    between atoms: C_8  and  C_9
REMARK    3  A    between atoms: C_9  and  C_10
REMARK    4  A    between atoms: C_9  and  C_11
REMARK    5  A    between atoms: C_9  and  C_12
REMARK    6  A    between atoms: C_12  and  N_13
REMARK    7  A    between atoms: N_13  and  C_14
REMARK    8  A    between atoms: C_17  and  C_18
REMARK                            x       y       z     vdW  Elec       q    Type
REMARK                         _______ _______ _______ _____ _____    ______ ____
ROOT
ATOM      1  C   UNL     1      48.352   8.456  12.860  0.00  0.00    +0.000 C 
ATOM      2  C   UNL     1      49.062   9.736  12.347  0.00  0.00    +0.000 C 
ATOM      3  C   UNL     1      49.006   7.234  12.165  0.00  0.00    +0.000 C 
ENDROOT
BRANCH   1  11
ATOM      4  C   UNL     1      50.345   1.763  17.069  0.00  0.00    +0.000 C 
ATOM      5  C   UNL     1      49.461   2.960  17.415  0.00  0.00    +0.000 C 
ATOM      6  C   UNL     1      50.313   4.135  17.938  0.00  0.00    +0.000 C 
ATOM      7  C   UNL     1      49.480   5.410  18.140  0.00  0.00    +0.000 C 
ATOM      8  N   UNL     1      48.784   5.663  16.887  0.00  0.00    +0.000 N 
ATOM      9  C   UNL     1      48.722   6.938  16.370  0.00  0.00    +0.000 A 
ATOM     10  C   UNL     1      48.583   7.098  14.989  0.00  0.00    +0.000 A 
ATOM     11  C   UNL     1      48.546   8.361  14.381  0.00  0.00    +0.000 A 
ATOM     12  C   UNL     1      48.702   9.448  15.238  0.00  0.00    +0.000 A 
ATOM     13  C   UNL     1      48.830   9.220  16.601  0.00  0.00    +0.000 A 
ATOM     14  F   UNL     1      48.925  10.286  17.409  0.00  0.00    +0.000 F 
ATOM     15  N   UNL     1      48.853   8.002  17.178  0.00  0.00    +0.000 NA
ATOM     16  C   UNL     1      47.835   4.641  16.470  0.00  0.00    +0.000 C 
ATOM     17  C   UNL     1      48.628   3.370  16.188  0.00  0.00    +0.000 C 
ENDBRANCH   1  11
BRANCH   1  18
ATOM     18  C   UNL     1      46.867   8.546  12.393  0.00  0.00    +0.000 C 
BRANCH  18  19
ATOM     19  N   UNL     1      45.963   7.746  13.231  0.00  0.00    +0.000 N 
ATOM     20  H   UNL     1      45.224   8.283  13.674  0.00  0.00    +0.000 HD
BRANCH  19  21
ATOM     21  C   UNL     1      45.497   6.543  12.687  0.00  0.00    +0.000 A 
ATOM     22  C   UNL     1      44.634   6.560  11.590  0.00  0.00    +0.000 A 
ATOM     23  C   UNL     1      44.128   5.368  11.069  0.00  0.00    +0.000 A 
ATOM     24  C   UNL     1      44.491   4.182  11.687  0.00  0.00    +0.000 A 
ATOM     25  N   UNL     1      45.307   4.106  12.771  0.00  0.00    +0.000 NA
ATOM     26  C   UNL     1      45.771   5.287  13.241  0.00  0.00    +0.000 A 
BRANCH  24  27
ATOM     27  C   UNL     1      43.967   2.876  11.171  0.00  0.00    +0.000 C 
ATOM     28  N   UNL     1      44.686   2.326  10.145  0.00  0.00    +0.000 N 
ATOM     29  O   UNL     1      42.970   2.333  11.630  0.00  0.00    +0.000 OA
ATOM     30  H   UNL     1      45.512   2.810   9.805  0.00  0.00    +0.000 HD
ATOM     31  H   UNL     1      44.402   1.446   9.749  0.00  0.00    +0.000 HD
ENDBRANCH  24  27
ENDBRANCH  19  21
ENDBRANCH  18  19
ENDBRANCH   1  18
TORSDOF 5
ENDMDL
MODEL 6
REMARK VINA RESULT:    -6.583      3.907      8.517
REMARK INTER + INTRA:          -9.417
REMARK INTER:                  -8.903
REMARK INTRA:                  -0.514
REMARK UNBOUND:                -0.910
REMARK  Name = 
REMARK  8 active torsions:
REMARK  status: ('A' for Active; 'I' for Inactive)
REMARK    1  A    between atoms: C_1  and  C_2
REMARK    2  A    between atoms: C_8  and  C_9
REMARK    3  A    between atoms: C_9  and  C_10
REMARK    4  A    between atoms: C_9  and  C_11
REMARK    5  A    between atoms: C_9  and  C_12
REMARK    6  A    between atoms: C_12  and  N_13
REMARK    7  A    between atoms: N_13  and  C_14
REMARK    8  A    between atoms: C_17  and  C_18
REMARK                            x       y       z     vdW  Elec       q    Type
REMARK                         _______ _______ _______ _____ _____    ______ ____
ROOT
ATOM      1  C   UNL     1      46.776   7.541  12.467  0.00  0.00    +0.000 C 
ATOM      2  C   UNL     1      48.037   7.269  11.606  0.00  0.00    +0.000 C 
ATOM      3  C   UNL     1      46.222   8.936  12.079  0.00  0.00    +0.000 C 
ENDROOT
BRANCH   1  11
ATOM      4  C   UNL     1      47.467   1.547   6.982  0.00  0.00    +0.000 C 
ATOM      5  C   UNL     1      46.263   2.355   7.465  0.00  0.00    +0.000 C 
ATOM      6  C   UNL     1      45.692   1.758   8.767  0.00  0.00    +0.000 C 
ATOM      7  C   UNL     1      44.587   2.636   9.372  0.00  0.00    +0.000 C 
ATOM      8  N   UNL     1      45.134   3.979   9.497  0.00  0.00    +0.000 N 
ATOM      9  C   UNL     1      44.921   4.714  10.642  0.00  0.00    +0.000 A 
ATOM     10  C   UNL     1      45.855   5.691  10.997  0.00  0.00    +0.000 A 
ATOM     11  C   UNL     1      45.729   6.458  12.164  0.00  0.00    +0.000 A 
ATOM     12  C   UNL     1      44.636   6.153  12.972  0.00  0.00    +0.000 A 
ATOM     13  C   UNL     1      43.743   5.174  12.558  0.00  0.00    +0.000 A 
ATOM     14  F   UNL     1      42.671   4.938  13.328  0.00  0.00    +0.000 F 
ATOM     15  N   UNL     1      43.866   4.450  11.429  0.00  0.00    +0.000 NA
ATOM     16  C   UNL     1      45.510   4.630   8.250  0.00  0.00    +0.000 C 
ATOM     17  C   UNL     1      46.659   3.831   7.646  0.00  0.00    +0.000 C 
ENDBRANCH   1  11
BRANCH   1  18
ATOM     18  C   UNL     1      47.248   7.599  13.952  0.00  0.00    +0.000 C 
BRANCH  18  19
ATOM     19  N   UNL     1      48.706   7.460  14.087  0.00  0.00    +0.000 N 
ATOM     20  H   UNL     1      49.238   8.028  13.434  0.00  0.00    +0.000 HD
BRANCH  19  21
ATOM     21  C   UNL     1      49.227   7.506  15.384  0.00  0.00    +0.000 A 
ATOM     22  C   UNL     1      50.384   6.791  15.698  0.00  0.00    +0.000 A 
ATOM     23  C   UNL     1      50.887   6.794  17.001  0.00  0.00    +0.000 A 
ATOM     24  C   UNL     1      50.190   7.504  17.966  0.00  0.00    +0.000 A 
ATOM     25  N   UNL     1      49.046   8.197  17.724  0.00  0.00    +0.000 NA
ATOM     26  C   UNL     1      48.597   8.164  16.448  0.00  0.00    +0.000 A 
BRANCH  24  27
ATOM     27  C   UNL     1      50.684   7.530  19.381  0.00  0.00    +0.000 C 
ATOM     28  N   UNL     1      51.436   8.623  19.713  0.00  0.00    +0.000 N 
ATOM     29  O   UNL     1      50.434   6.642  20.186  0.00  0.00    +0.000 OA
ATOM     30  H   UNL     1      51.608   9.337  19.012  0.00  0.00    +0.000 HD
ATOM     31  H   UNL     1      51.798   8.717  20.647  0.00  0.00    +0.000 HD
ENDBRANCH  24  27
ENDBRANCH  19  21
ENDBRANCH  18  19
ENDBRANCH   1  18
TORSDOF 5
ENDMDL
MODEL 7
REMARK VINA RESULT:    -6.528      2.386      3.929
REMARK INTER + INTRA:          -9.345
REMARK INTER:                  -8.753
REMARK INTRA:                  -0.592
REMARK UNBOUND:                -0.910
REMARK  Name = 
REMARK  8 active torsions:
REMARK  status: ('A' for Active; 'I' for Inactive)
REMARK    1  A    between atoms: C_1  and  C_2
REMARK    2  A    between atoms: C_8  and  C_9
REMARK    3  A    between atoms: C_9  and  C_10
REMARK    4  A    between atoms: C_9  and  C_11
REMARK    5  A    between atoms: C_9  and  C_12
REMARK    6  A    between atoms: C_12  and  N_13
REMARK    7  A    between atoms: N_13  and  C_14
REMARK    8  A    between atoms: C_17  and  C_18
REMARK                            x       y       z     vdW  Elec       q    Type
REMARK                         _______ _______ _______ _____ _____    ______ ____
ROOT
ATOM      1  C   UNL     1      44.258   4.744  12.239  0.00  0.00    +0.000 C 
ATOM      2  C   UNL     1      43.186   4.483  13.329  0.00  0.00    +0.000 C 
ATOM      3  C   UNL     1      43.605   5.590  11.116  0.00  0.00    +0.000 C 
ENDROOT
BRANCH   1  11
ATOM      4  C   UNL     1      49.626   1.853  17.654  0.00  0.00    +0.000 C 
ATOM      5  C   UNL     1      49.009   3.238  17.468  0.00  0.00    +0.000 C 
ATOM      6  C   UNL     1      49.780   4.041  16.400  0.00  0.00    +0.000 C 
ATOM      7  C   UNL     1      49.093   5.373  16.067  0.00  0.00    +0.000 C 
ATOM      8  N   UNL     1      47.712   5.064  15.728  0.00  0.00    +0.000 N 
ATOM      9  C   UNL     1      47.110   5.663  14.644  0.00  0.00    +0.000 A 
ATOM     10  C   UNL     1      46.066   4.994  14.000  0.00  0.00    +0.000 A 
ATOM     11  C   UNL     1      45.424   5.520  12.869  0.00  0.00    +0.000 A 
ATOM     12  C   UNL     1      45.924   6.734  12.402  0.00  0.00    +0.000 A 
ATOM     13  C   UNL     1      46.960   7.348  13.092  0.00  0.00    +0.000 A 
ATOM     14  F   UNL     1      47.386   8.541  12.651  0.00  0.00    +0.000 F 
ATOM     15  N   UNL     1      47.563   6.840  14.184  0.00  0.00    +0.000 NA
ATOM     16  C   UNL     1      46.914   4.470  16.792  0.00  0.00    +0.000 C 
ATOM     17  C   UNL     1      47.519   3.107  17.108  0.00  0.00    +0.000 C 
ENDBRANCH   1  11
BRANCH   1  18
ATOM     18  C   UNL     1      44.641   3.355  11.643  0.00  0.00    +0.000 C 
BRANCH  18  19
ATOM     19  N   UNL     1      44.077   3.142  10.302  0.00  0.00    +0.000 N 
ATOM     20  H   UNL     1      43.329   3.784  10.060  0.00  0.00    +0.000 HD
BRANCH  19  21
ATOM     21  C   UNL     1      44.989   2.963   9.255  0.00  0.00    +0.000 A 
ATOM     22  C   UNL     1      45.272   4.019   8.387  0.00  0.00    +0.000 A 
ATOM     23  C   UNL     1      46.145   3.837   7.313  0.00  0.00    +0.000 A 
ATOM     24  C   UNL     1      46.696   2.580   7.127  0.00  0.00    +0.000 A 
ATOM     25  N   UNL     1      46.438   1.510   7.925  0.00  0.00    +0.000 NA
ATOM     26  C   UNL     1      45.585   1.733   8.951  0.00  0.00    +0.000 A 
BRANCH  24  27
ATOM     27  C   UNL     1      47.632   2.331   5.983  0.00  0.00    +0.000 C 
ATOM     28  N   UNL     1      47.563   3.245   4.967  0.00  0.00    +0.000 N 
ATOM     29  O   UNL     1      48.406   1.383   5.954  0.00  0.00    +0.000 OA
ATOM     30  H   UNL     1      46.911   4.020   5.042  0.00  0.00    +0.000 HD
ATOM     31  H   UNL     1      48.164   3.150   4.166  0.00  0.00    +0.000 HD
ENDBRANCH  24  27
ENDBRANCH  19  21
ENDBRANCH  18  19
ENDBRANCH   1  18
TORSDOF 5
ENDMDL
MODEL 8
REMARK VINA RESULT:    -6.356      3.820      6.602
REMARK INTER + INTRA:          -9.123
REMARK INTER:                  -8.072
REMARK INTRA:                  -1.051
REMARK UNBOUND:                -0.910
REMARK  Name = 
REMARK  8 active torsions:
REMARK  status: ('A' for Active; 'I' for Inactive)
REMARK    1  A    between atoms: C_1  and  C_2
REMARK    2  A    between atoms: C_8  and  C_9
REMARK    3  A    between atoms: C_9  and  C_10
REMARK    4  A    between atoms: C_9  and  C_11
REMARK    5  A    between atoms: C_9  and  C_12
REMARK    6  A    between atoms: C_12  and  N_13
REMARK    7  A    between atoms: N_13  and  C_14
REMARK    8  A    between atoms: C_17  and  C_18
REMARK                            x       y       z     vdW  Elec       q    Type
REMARK                         _______ _______ _______ _____ _____    ______ ____
ROOT
ATOM      1  C   UNL     1      49.958   8.898  12.767  0.00  0.00    +0.000 C 
ATOM      2  C   UNL     1      49.947  10.434  12.979  0.00  0.00    +0.000 C 
ATOM      3  C   UNL     1      50.629   8.606  11.400  0.00  0.00    +0.000 C 
ENDROOT
BRANCH   1  11
ATOM      4  C   UNL     1      47.524   2.785  17.584  0.00  0.00    +0.000 C 
ATOM      5  C   UNL     1      48.420   3.995  17.844  0.00  0.00    +0.000 C 
ATOM      6  C   UNL     1      49.867   3.711  17.393  0.00  0.00    +0.000 C 
ATOM      7  C   UNL     1      50.758   4.958  17.486  0.00  0.00    +0.000 C 
ATOM      8  N   UNL     1      50.082   6.018  16.755  0.00  0.00    +0.000 N 
ATOM      9  C   UNL     1      50.788   6.838  15.903  0.00  0.00    +0.000 A 
ATOM     10  C   UNL     1      50.117   7.431  14.830  0.00  0.00    +0.000 A 
ATOM     11  C   UNL     1      50.771   8.250  13.899  0.00  0.00    +0.000 A 
ATOM     12  C   UNL     1      52.143   8.401  14.086  0.00  0.00    +0.000 A 
ATOM     13  C   UNL     1      52.747   7.788  15.176  0.00  0.00    +0.000 A 
ATOM     14  F   UNL     1      54.059   7.993  15.363  0.00  0.00    +0.000 F 
ATOM     15  N   UNL     1      52.108   7.012  16.072  0.00  0.00    +0.000 NA
ATOM     16  C   UNL     1      48.787   6.426  17.281  0.00  0.00    +0.000 C 
ATOM     17  C   UNL     1      47.843   5.237  17.143  0.00  0.00    +0.000 C 
ENDBRANCH   1  11
BRANCH   1  18
ATOM     18  C   UNL     1      48.469   8.444  12.687  0.00  0.00    +0.000 C 
BRANCH  18  19
ATOM     19  N   UNL     1      48.299   7.199  11.923  0.00  0.00    +0.000 N 
ATOM     20  H   UNL     1      49.137   6.629  11.869  0.00  0.00    +0.000 HD
BRANCH  19  21
ATOM     21  C   UNL     1      47.154   6.443  12.196  0.00  0.00    +0.000 A 
ATOM     22  C   UNL     1      47.075   5.692  13.370  0.00  0.00    +0.000 A 
ATOM     23  C   UNL     1      45.957   4.898  13.629  0.00  0.00    +0.000 A 
ATOM     24  C   UNL     1      44.948   4.864  12.679  0.00  0.00    +0.000 A 
ATOM     25  N   UNL     1      44.982   5.554  11.508  0.00  0.00    +0.000 NA
ATOM     26  C   UNL     1      46.086   6.307  11.301  0.00  0.00    +0.000 A 
BRANCH  24  27
ATOM     27  C   UNL     1      43.731   4.020  12.906  0.00  0.00    +0.000 C 
ATOM     28  N   UNL     1      43.877   2.695  12.600  0.00  0.00    +0.000 N 
ATOM     29  O   UNL     1      42.679   4.476  13.336  0.00  0.00    +0.000 OA
ATOM     30  H   UNL     1      44.773   2.363  12.255  0.00  0.00    +0.000 HD
ATOM     31  H   UNL     1      43.106   2.062  12.731  0.00  0.00    +0.000 HD
ENDBRANCH  24  27
ENDBRANCH  19  21
ENDBRANCH  18  19
ENDBRANCH   1  18
TORSDOF 5
ENDMDL
MODEL 9
REMARK VINA RESULT:    -6.264      3.908      7.995
REMARK INTER + INTRA:          -9.005
REMARK INTER:                  -7.973
REMARK INTRA:                  -1.031
REMARK UNBOUND:                -0.910
REMARK  Name = 
REMARK  8 active torsions:
REMARK  status: ('A' for Active; 'I' for Inactive)
REMARK    1  A    between atoms: C_1  and  C_2
REMARK    2  A    between atoms: C_8  and  C_9
REMARK    3  A    between atoms: C_9  and  C_10
REMARK    4  A    between atoms: C_9  and  C_11
REMARK    5  A    between atoms: C_9  and  C_12
REMARK    6  A    between atoms: C_12  and  N_13
REMARK    7  A    between atoms: N_13  and  C_14
REMARK    8  A    between atoms: C_17  and  C_18
REMARK                            x       y       z     vdW  Elec       q    Type
REMARK                         _______ _______ _______ _____ _____    ______ ____
ROOT
ATOM      1  C   UNL     1      49.247   9.374  15.897  0.00  0.00    +0.000 C 
ATOM      2  C   UNL     1      49.745  10.840  15.967  0.00  0.00    +0.000 C 
ATOM      3  C   UNL     1      47.919   9.279  16.692  0.00  0.00    +0.000 C 
ENDROOT
BRANCH   1  11
ATOM      4  C   UNL     1      43.470   4.368  13.057  0.00  0.00    +0.000 C 
ATOM      5  C   UNL     1      44.896   4.651  12.588  0.00  0.00    +0.000 C 
ATOM      6  C   UNL     1      44.937   5.904  11.690  0.00  0.00    +0.000 C 
ATOM      7  C   UNL     1      46.374   6.315  11.334  0.00  0.00    +0.000 C 
ATOM      8  N   UNL     1      47.104   6.431  12.586  0.00  0.00    +0.000 N 
ATOM      9  C   UNL     1      47.948   7.496  12.805  0.00  0.00    +0.000 A 
ATOM     10  C   UNL     1      48.184   7.908  14.120  0.00  0.00    +0.000 A 
ATOM     11  C   UNL     1      49.003   9.005  14.425  0.00  0.00    +0.000 A 
ATOM     12  C   UNL     1      49.532   9.686  13.331  0.00  0.00    +0.000 A 
ATOM     13  C   UNL     1      49.262   9.221  12.051  0.00  0.00    +0.000 A 
ATOM     14  F   UNL     1      49.827   9.863  11.019  0.00  0.00    +0.000 F 
ATOM     15  N   UNL     1      48.483   8.159  11.768  0.00  0.00    +0.000 NA
ATOM     16  C   UNL     1      47.231   5.205  13.363  0.00  0.00    +0.000 C 
ATOM     17  C   UNL     1      45.830   4.795  13.802  0.00  0.00    +0.000 C 
ENDBRANCH   1  11
BRANCH   1  18
ATOM     18  C   UNL     1      50.314   8.500  16.624  0.00  0.00    +0.000 C 
BRANCH  18  19
ATOM     19  N   UNL     1      49.734   7.673  17.692  0.00  0.00    +0.000 N 
ATOM     20  H   UNL     1      48.819   7.984  18.006  0.00  0.00    +0.000 HD
BRANCH  19  21
ATOM     21  C   UNL     1      49.799   6.286  17.523  0.00  0.00    +0.000 A 
ATOM     22  C   UNL     1      50.935   5.585  17.930  0.00  0.00    +0.000 A 
ATOM     23  C   UNL     1      51.028   4.207  17.724  0.00  0.00    +0.000 A 
ATOM     24  C   UNL     1      49.974   3.571  17.087  0.00  0.00    +0.000 A 
ATOM     25  N   UNL     1      48.856   4.206  16.647  0.00  0.00    +0.000 NA
ATOM     26  C   UNL     1      48.811   5.540  16.868  0.00  0.00    +0.000 A 
BRANCH  24  27
ATOM     27  C   UNL     1      50.030   2.095  16.834  0.00  0.00    +0.000 C 
ATOM     28  N   UNL     1      50.858   1.394  17.668  0.00  0.00    +0.000 N 
ATOM     29  O   UNL     1      49.384   1.549  15.949  0.00  0.00    +0.000 OA
ATOM     30  H   UNL     1      51.366   1.890  18.393  0.00  0.00    +0.000 HD
ATOM     31  H   UNL     1      50.944   0.397  17.565  0.00  0.00    +0.000 HD
ENDBRANCH  24  27
ENDBRANCH  19  21
ENDBRANCH  18  19
ENDBRANCH   1  18
TORSDOF 5
ENDMDL
