MODEL 1
REMARK VINA RESULT:    -8.698      0.000      0.000
REMARK INTER + INTRA:         -11.862
REMARK INTER:                 -11.240
REMARK INTRA:                  -0.622
REMARK UNBOUND:                -0.622
REMARK  Name = 
REMARK  5 active torsions:
REMARK  status: ('A' for Active; 'I' for Inactive)
REMARK    1  A    between atoms: C_2  and  C_4
REMARK    2  A    between atoms: C_7  and  N_8
REMARK    3  A    between atoms: N_8  and  C_9
REMARK    4  A    between atoms: C_9  and  C_10
REMARK    5  A    between atoms: C_14  and  C_15
REMARK                            x       y       z     vdW  Elec       q    Type
REMARK                         _______ _______ _______ _____ _____    ______ ____
ROOT
ATOM      1  C   UNL     1      43.876   4.615  11.348  0.00  0.00    +0.000 C 
ENDROOT
BRANCH   1   2
ATOM      2  C   UNL     1      45.061   5.398  11.877  0.00  0.00    +0.000 A 
ATOM      3  C   UNL     1      45.454   6.599  11.280  0.00  0.00    +0.000 A 
ATOM      4  C   UNL     1      46.536   7.312  11.791  0.00  0.00    +0.000 A 
ATOM      5  C   UNL     1      47.228   6.839  12.910  0.00  0.00    +0.000 A 
ATOM      6  C   UNL     1      46.854   5.646  13.553  0.00  0.00    +0.000 A 
ATOM      7  C   UNL     1      45.777   4.929  12.995  0.00  0.00    +0.000 A 
BRANCH   6   8
ATOM      8  C   UNL     1      47.517   5.189  14.794  0.00  0.00    +0.000 A 
ATOM      9  C   UNL     1      48.532   5.937  15.408  0.00  0.00    +0.000 A 
ATOM     10  N   UNL     1      49.155   5.617  16.572  0.00  0.00    +0.000 NA
ATOM     11  C   UNL     1      48.741   4.485  17.179  0.00  0.00    +0.000 A 
ATOM     12  C   UNL     1      47.752   3.669  16.664  0.00  0.00    +0.000 A 
ATOM     13  F   UNL     1      47.376   2.561  17.316  0.00  0.00    +0.000 F 
ATOM     14  C   UNL     1      47.142   4.014  15.464  0.00  0.00    +0.000 A 
ENDBRANCH   6   8
ENDBRANCH   1   2
BRANCH   1  15
ATOM     15  N   UNL     1      43.815   4.794   9.902  0.00  0.00    +0.000 N 
ATOM     16  H   UNL     1      43.928   5.771   9.645  0.00  0.00    +0.000 HD
BRANCH  15  20
ATOM     17  C   UNL     1      46.357   2.310   7.845  0.00  0.00    +0.000 A 
ATOM     18  C   UNL     1      46.353   3.672   7.596  0.00  0.00    +0.000 A 
ATOM     19  N   UNL     1      45.520   4.535   8.244  0.00  0.00    +0.000 NA
ATOM     20  C   UNL     1      44.680   3.992   9.151  0.00  0.00    +0.000 A 
ATOM     21  C   UNL     1      44.708   2.610   9.392  0.00  0.00    +0.000 A 
ATOM     22  N   UNL     1      45.525   1.732   8.753  0.00  0.00    +0.000 NA
BRANCH  17  24
ATOM     23  N   UNL     1      48.368   2.038   6.528  0.00  0.00    +0.000 N 
ATOM     24  C   UNL     1      47.299   1.418   7.115  0.00  0.00    +0.000 C 
ATOM     25  O   UNL     1      47.131   0.207   7.044  0.00  0.00    +0.000 OA
ATOM     26  H   UNL     1      49.040   1.492   6.007  0.00  0.00    +0.000 HD
ATOM     27  H   UNL     1      48.475   3.044   6.602  0.00  0.00    +0.000 HD
ENDBRANCH  17  24
ENDBRANCH  15  20
ENDBRANCH   1  15
TORSDOF 5
ENDMDL
MODEL 2
REMARK VINA RESULT:    -8.619      2.872      3.925
REMARK INTER + INTRA:         -11.760
REMARK INTER:                 -11.118
REMARK INTRA:                  -0.642
REMARK UNBOUND:                -0.622
REMARK  Name = 
REMARK  5 active torsions:
REMARK  status: ('A' for Active; 'I' for Inactive)
REMARK    1  A    between atoms: C_2  and  C_4
REMARK    2  A    between atoms: C_7  and  N_8
REMARK    3  A    between atoms: N_8  and  C_9
REMARK    4  A    between atoms: C_9  and  C_10
REMARK    5  A    between atoms: C_14  and  C_15
REMARK                            x       y       z     vdW  Elec       q    Type
REMARK                         _______ _______ _______ _____ _____    ______ ____
ROOT
ATOM      1  C   UNL     1      43.540   4.671  11.099  0.00  0.00    +0.000 C 
ENDROOT
BRANCH   1   2
ATOM      2  C   UNL     1      44.791   5.010  11.884  0.00  0.00    +0.000 A 
ATOM      3  C   UNL     1      45.355   4.089  12.772  0.00  0.00    +0.000 A 
ATOM      4  C   UNL     1      46.514   4.412  13.471  0.00  0.00    +0.000 A 
ATOM      5  C   UNL     1      47.129   5.655  13.282  0.00  0.00    +0.000 A 
ATOM      6  C   UNL     1      46.607   6.602  12.386  0.00  0.00    +0.000 A 
ATOM      7  C   UNL     1      45.415   6.261  11.716  0.00  0.00    +0.000 A 
BRANCH   6   8
ATOM      8  C   UNL     1      47.303   7.877  12.107  0.00  0.00    +0.000 A 
ATOM      9  C   UNL     1      46.668   9.117  12.265  0.00  0.00    +0.000 A 
ATOM     10  N   UNL     1      47.248  10.332  12.080  0.00  0.00    +0.000 NA
ATOM     11  C   UNL     1      48.550  10.323  11.726  0.00  0.00    +0.000 A 
ATOM     12  C   UNL     1      49.276   9.163  11.539  0.00  0.00    +0.000 A 
ATOM     13  F   UNL     1      50.569   9.217  11.196  0.00  0.00    +0.000 F 
ATOM     14  C   UNL     1      48.653   7.934  11.721  0.00  0.00    +0.000 A 
ENDBRANCH   6   8
ENDBRANCH   1   2
BRANCH   1  15
ATOM     15  N   UNL     1      43.802   4.921   9.686  0.00  0.00    +0.000 N 
ATOM     16  H   UNL     1      44.152   5.862   9.536  0.00  0.00    +0.000 HD
BRANCH  15  20
ATOM     17  C   UNL     1      46.201   2.070   7.960  0.00  0.00    +0.000 A 
ATOM     18  C   UNL     1      46.326   3.403   7.603  0.00  0.00    +0.000 A 
ATOM     19  N   UNL     1      45.545   4.382   8.139  0.00  0.00    +0.000 NA
ATOM     20  C   UNL     1      44.625   3.989   9.045  0.00  0.00    +0.000 A 
ATOM     21  C   UNL     1      44.522   2.634   9.396  0.00  0.00    +0.000 A 
ATOM     22  N   UNL     1      45.285   1.642   8.869  0.00  0.00    +0.000 NA
BRANCH  17  24
ATOM     23  N   UNL     1      46.792  -0.255   7.649  0.00  0.00    +0.000 N 
ATOM     24  C   UNL     1      47.092   1.046   7.349  0.00  0.00    +0.000 C 
ATOM     25  O   UNL     1      48.032   1.345   6.623  0.00  0.00    +0.000 OA
ATOM     26  H   UNL     1      47.364  -1.000   7.275  0.00  0.00    +0.000 HD
ATOM     27  H   UNL     1      46.009  -0.468   8.258  0.00  0.00    +0.000 HD
ENDBRANCH  17  24
ENDBRANCH  15  20
ENDBRANCH   1  15
TORSDOF 5
ENDMDL
MODEL 3
REMARK VINA RESULT:    -8.174      2.969      4.230
REMARK INTER + INTRA:         -11.185
REMARK INTER:                 -10.409
REMARK INTRA:                  -0.777
REMARK UNBOUND:                -0.622
REMARK  Name = 
REMARK  5 active torsions:
REMARK  status: ('A' for Active; 'I' for Inactive)
REMARK    1  A    between atoms: C_2  and  C_4
REMARK    2  A    between atoms: C_7  and  N_8
REMARK    3  A    between atoms: N_8  and  C_9
REMARK    4  A    between atoms: C_9  and  C_10
REMARK    5  A    between atoms: C_14  and  C_15
REMARK                            x       y       z     vdW  Elec       q    Type
REMARK                         _______ _______ _______ _____ _____    ______ ____
ROOT
ATOM      1  C   UNL     1      43.593   4.169  11.444  0.00  0.00    +0.000 C 
ENDROOT
BRANCH   1   2
ATOM      2  C   UNL     1      44.766   4.807  12.160  0.00  0.00    +0.000 A 
ATOM      3  C   UNL     1      45.650   4.036  12.922  0.00  0.00    +0.000 A 
ATOM      4  C   UNL     1      46.732   4.638  13.558  0.00  0.00    +0.000 A 
ATOM      5  C   UNL     1      46.950   6.014  13.430  0.00  0.00    +0.000 A 
ATOM      6  C   UNL     1      46.098   6.823  12.658  0.00  0.00    +0.000 A 
ATOM      7  C   UNL     1      44.993   6.193  12.052  0.00  0.00    +0.000 A 
BRANCH   6   8
ATOM      8  C   UNL     1      46.377   8.258  12.438  0.00  0.00    +0.000 A 
ATOM      9  C   UNL     1      47.686   8.758  12.383  0.00  0.00    +0.000 A 
ATOM     10  N   UNL     1      48.030  10.048  12.135  0.00  0.00    +0.000 NA
ATOM     11  C   UNL     1      47.011  10.905  11.914  0.00  0.00    +0.000 A 
ATOM     12  C   UNL     1      45.683  10.526  11.946  0.00  0.00    +0.000 A 
ATOM     13  F   UNL     1      44.714  11.420  11.710  0.00  0.00    +0.000 F 
ATOM     14  C   UNL     1      45.360   9.202  12.217  0.00  0.00    +0.000 A 
ENDBRANCH   6   8
ENDBRANCH   1   2
BRANCH   1  15
ATOM     15  N   UNL     1      43.680   4.506  10.028  0.00  0.00    +0.000 N 
ATOM     16  H   UNL     1      43.811   5.504   9.893  0.00  0.00    +0.000 HD
BRANCH  15  20
ATOM     17  C   UNL     1      46.440   2.534   7.714  0.00  0.00    +0.000 A 
ATOM     18  C   UNL     1      45.644   1.835   8.606  0.00  0.00    +0.000 A 
ATOM     19  N   UNL     1      44.723   2.446   9.403  0.00  0.00    +0.000 NA
ATOM     20  C   UNL     1      44.624   3.787   9.287  0.00  0.00    +0.000 A 
ATOM     21  C   UNL     1      45.436   4.473   8.371  0.00  0.00    +0.000 A 
ATOM     22  N   UNL     1      46.364   3.884   7.573  0.00  0.00    +0.000 NA
BRANCH  17  24
ATOM     23  N   UNL     1      48.486   2.549   6.423  0.00  0.00    +0.000 N 
ATOM     24  C   UNL     1      47.420   1.810   6.860  0.00  0.00    +0.000 C 
ATOM     25  O   UNL     1      47.286   0.628   6.567  0.00  0.00    +0.000 OA
ATOM     26  H   UNL     1      49.183   2.120   5.830  0.00  0.00    +0.000 HD
ATOM     27  H   UNL     1      48.565   3.527   6.680  0.00  0.00    +0.000 HD
ENDBRANCH  17  24
ENDBRANCH  15  20
ENDBRANCH   1  15
TORSDOF 5
ENDMDL
MODEL 4
REMARK VINA RESULT:    -7.799      3.383      7.438
REMARK INTER + INTRA:         -10.701
REMARK INTER:                 -10.516
REMARK INTRA:                  -0.185
REMARK UNBOUND:                -0.622
REMARK  Name = 
REMARK  5 active torsions:
REMARK  status: ('A' for Active; 'I' for Inactive)
REMARK    1  A    between atoms: C_2  and  C_4
REMARK    2  A    between atoms: C_7  and  N_8
REMARK    3  A    between atoms: N_8  and  C_9
REMARK    4  A    between atoms: C_9  and  C_10
REMARK    5  A    between atoms: C_14  and  C_15
REMARK                            x       y       z     vdW  Elec       q    Type
REMARK                         _______ _______ _______ _____ _____    ______ ____
ROOT
ATOM      1  C   UNL     1      46.154   7.234  12.153  0.00  0.00    +0.000 C 
ENDROOT
BRANCH   1   2
ATOM      2  C   UNL     1      45.263   6.238  11.439  0.00  0.00    +0.000 A 
ATOM      3  C   UNL     1      43.886   6.205  11.677  0.00  0.00    +0.000 A 
ATOM      4  C   UNL     1      43.081   5.294  10.999  0.00  0.00    +0.000 A 
ATOM      5  C   UNL     1      43.641   4.414  10.067  0.00  0.00    +0.000 A 
ATOM      6  C   UNL     1      45.018   4.426   9.783  0.00  0.00    +0.000 A 
ATOM      7  C   UNL     1      45.813   5.336  10.507  0.00  0.00    +0.000 A 
BRANCH   6   8
ATOM      8  C   UNL     1      45.603   3.569   8.729  0.00  0.00    +0.000 A 
ATOM      9  C   UNL     1      46.181   4.109   7.572  0.00  0.00    +0.000 A 
ATOM     10  N   UNL     1      46.783   3.399   6.583  0.00  0.00    +0.000 NA
ATOM     11  C   UNL     1      46.829   2.060   6.753  0.00  0.00    +0.000 A 
ATOM     12  C   UNL     1      46.290   1.418   7.851  0.00  0.00    +0.000 A 
ATOM     13  F   UNL     1      46.374   0.087   7.970  0.00  0.00    +0.000 F 
ATOM     14  C   UNL     1      45.667   2.170   8.841  0.00  0.00    +0.000 A 
ENDBRANCH   6   8
ENDBRANCH   1   2
BRANCH   1  15
ATOM     15  N   UNL     1      47.439   6.595  12.417  0.00  0.00    +0.000 N 
ATOM     16  H   UNL     1      48.202   7.263  12.363  0.00  0.00    +0.000 HD
BRANCH  15  20
ATOM     17  C   UNL     1      47.504   4.360  15.861  0.00  0.00    +0.000 A 
ATOM     18  C   UNL     1      48.231   5.535  15.773  0.00  0.00    +0.000 A 
ATOM     19  N   UNL     1      48.250   6.304  14.648  0.00  0.00    +0.000 NA
ATOM     20  C   UNL     1      47.521   5.858  13.603  0.00  0.00    +0.000 A 
ATOM     21  C   UNL     1      46.786   4.669  13.719  0.00  0.00    +0.000 A 
ATOM     22  N   UNL     1      46.758   3.885  14.828  0.00  0.00    +0.000 NA
BRANCH  17  24
ATOM     23  N   UNL     1      48.665   3.629  17.853  0.00  0.00    +0.000 N 
ATOM     24  C   UNL     1      47.511   3.568  17.121  0.00  0.00    +0.000 C 
ATOM     25  O   UNL     1      46.547   2.905  17.483  0.00  0.00    +0.000 OA
ATOM     26  H   UNL     1      48.740   3.105  18.715  0.00  0.00    +0.000 HD
ATOM     27  H   UNL     1      49.447   4.184  17.523  0.00  0.00    +0.000 HD
ENDBRANCH  17  24
ENDBRANCH  15  20
ENDBRANCH   1  15
TORSDOF 5
ENDMDL
MODEL 5
REMARK VINA RESULT:    -7.705      3.980      7.629
REMARK INTER + INTRA:         -10.579
REMARK INTER:                  -9.979
REMARK INTRA:                  -0.600
REMARK UNBOUND:                -0.622
REMARK  Name = 
REMARK  5 active torsions:
REMARK  status: ('A' for Active; 'I' for Inactive)
REMARK    1  A    between atoms: C_2  and  C_4
REMARK    2  A    between atoms: C_7  and  N_8
REMARK    3  A    between atoms: N_8  and  C_9
REMARK    4  A    between atoms: C_9  and  C_10
REMARK    5  A    between atoms: C_14  and  C_15
REMARK                            x       y       z     vdW  Elec       q    Type
REMARK                         _______ _______ _______ _____ _____    ______ ____
ROOT
ATOM      1  C   UNL     1      44.229   6.647  11.136  0.00  0.00    +0.000 C 
ENDROOT
BRANCH   1   2
ATOM      2  C   UNL     1      44.223   5.161  10.839  0.00  0.00    +0.000 A 
ATOM      3  C   UNL     1      43.404   4.286  11.559  0.00  0.00    +0.000 A 
ATOM      4  C   UNL     1      43.400   2.927  11.260  0.00  0.00    +0.000 A 
ATOM      5  C   UNL     1      44.204   2.428  10.229  0.00  0.00    +0.000 A 
ATOM      6  C   UNL     1      45.028   3.275   9.468  0.00  0.00    +0.000 A 
ATOM      7  C   UNL     1      45.037   4.640   9.813  0.00  0.00    +0.000 A 
BRANCH   6   8
ATOM      8  C   UNL     1      45.806   2.772   8.314  0.00  0.00    +0.000 A 
ATOM      9  C   UNL     1      46.292   1.458   8.267  0.00  0.00    +0.000 A 
ATOM     10  N   UNL     1      46.969   0.902   7.228  0.00  0.00    +0.000 NA
ATOM     11  C   UNL     1      47.171   1.696   6.155  0.00  0.00    +0.000 A 
ATOM     12  C   UNL     1      46.740   3.007   6.092  0.00  0.00    +0.000 A 
ATOM     13  F   UNL     1      46.962   3.744   4.996  0.00  0.00    +0.000 F 
ATOM     14  C   UNL     1      46.062   3.553   7.176  0.00  0.00    +0.000 A 
ENDBRANCH   6   8
ENDBRANCH   1   2
BRANCH   1  15
ATOM     15  N   UNL     1      44.437   6.828  12.568  0.00  0.00    +0.000 N 
ATOM     16  H   UNL     1      43.970   6.103  13.104  0.00  0.00    +0.000 HD
BRANCH  15  20
ATOM     17  C   UNL     1      48.318   7.049  13.889  0.00  0.00    +0.000 A 
ATOM     18  C   UNL     1      47.653   8.190  13.472  0.00  0.00    +0.000 A 
ATOM     19  N   UNL     1      46.370   8.165  13.015  0.00  0.00    +0.000 NA
ATOM     20  C   UNL     1      45.767   6.957  12.980  0.00  0.00    +0.000 A 
ATOM     21  C   UNL     1      46.459   5.816  13.414  0.00  0.00    +0.000 A 
ATOM     22  N   UNL     1      47.740   5.818  13.867  0.00  0.00    +0.000 NA
BRANCH  17  24
ATOM     23  N   UNL     1      50.588   7.835  13.598  0.00  0.00    +0.000 N 
ATOM     24  C   UNL     1      49.717   7.139  14.391  0.00  0.00    +0.000 C 
ATOM     25  O   UNL     1      50.068   6.626  15.446  0.00  0.00    +0.000 OA
ATOM     26  H   UNL     1      51.555   7.925  13.876  0.00  0.00    +0.000 HD
ATOM     27  H   UNL     1      50.266   8.244  12.727  0.00  0.00    +0.000 HD
ENDBRANCH  17  24
ENDBRANCH  15  20
ENDBRANCH   1  15
TORSDOF 5
ENDMDL
MODEL 6
REMARK VINA RESULT:    -7.667      3.877      8.453
REMARK INTER + INTRA:         -10.530
REMARK INTER:                 -10.063
REMARK INTRA:                  -0.467
REMARK UNBOUND:                -0.622
REMARK  Name = 
REMARK  5 active torsions:
REMARK  status: ('A' for Active; 'I' for Inactive)
REMARK    1  A    between atoms: C_2  and  C_4
REMARK    2  A    between atoms: C_7  and  N_8
REMARK    3  A    between atoms: N_8  and  C_9
REMARK    4  A    between atoms: C_9  and  C_10
REMARK    5  A    between atoms: C_14  and  C_15
REMARK                            x       y       z     vdW  Elec       q    Type
REMARK                         _______ _______ _______ _____ _____    ______ ____
ROOT
ATOM      1  C   UNL     1      46.054   5.403  13.906  0.00  0.00    +0.000 C 
ENDROOT
BRANCH   1   2
ATOM      2  C   UNL     1      45.109   5.062  12.771  0.00  0.00    +0.000 A 
ATOM      3  C   UNL     1      43.754   5.403  12.836  0.00  0.00    +0.000 A 
ATOM      4  C   UNL     1      42.906   5.096  11.776  0.00  0.00    +0.000 A 
ATOM      5  C   UNL     1      43.403   4.457  10.635  0.00  0.00    +0.000 A 
ATOM      6  C   UNL     1      44.761   4.114  10.521  0.00  0.00    +0.000 A 
ATOM      7  C   UNL     1      45.591   4.407  11.621  0.00  0.00    +0.000 A 
BRANCH   6   8
ATOM      8  C   UNL     1      45.314   3.528   9.280  0.00  0.00    +0.000 A 
ATOM      9  C   UNL     1      45.705   4.326   8.195  0.00  0.00    +0.000 A 
ATOM     10  N   UNL     1      46.267   3.875   7.044  0.00  0.00    +0.000 NA
ATOM     11  C   UNL     1      46.468   2.543   6.961  0.00  0.00    +0.000 A 
ATOM     12  C   UNL     1      46.119   1.660   7.965  0.00  0.00    +0.000 A 
ATOM     13  F   UNL     1      46.351   0.349   7.829  0.00  0.00    +0.000 F 
ATOM     14  C   UNL     1      45.533   2.150   9.126  0.00  0.00    +0.000 A 
ENDBRANCH   6   8
ENDBRANCH   1   2
BRANCH   1  15
ATOM     15  N   UNL     1      46.538   4.158  14.491  0.00  0.00    +0.000 N 
ATOM     16  H   UNL     1      47.177   3.678  13.863  0.00  0.00    +0.000 HD
BRANCH  15  20
ATOM     17  C   UNL     1      48.342   4.541  18.159  0.00  0.00    +0.000 A 
ATOM     18  C   UNL     1      47.398   3.551  17.942  0.00  0.00    +0.000 A 
ATOM     19  N   UNL     1      46.764   3.392  16.746  0.00  0.00    +0.000 NA
ATOM     20  C   UNL     1      47.099   4.261  15.768  0.00  0.00    +0.000 A 
ATOM     21  C   UNL     1      48.064   5.250  16.010  0.00  0.00    +0.000 A 
ATOM     22  N   UNL     1      48.702   5.430  17.195  0.00  0.00    +0.000 NA
BRANCH  17  24
ATOM     23  N   UNL     1      48.639   3.733  20.421  0.00  0.00    +0.000 N 
ATOM     24  C   UNL     1      49.012   4.658  19.484  0.00  0.00    +0.000 C 
ATOM     25  O   UNL     1      49.844   5.524  19.722  0.00  0.00    +0.000 OA
ATOM     26  H   UNL     1      49.048   3.763  21.344  0.00  0.00    +0.000 HD
ATOM     27  H   UNL     1      47.943   3.032  20.193  0.00  0.00    +0.000 HD
ENDBRANCH  17  24
ENDBRANCH  15  20
ENDBRANCH   1  15
TORSDOF 5
ENDMDL
MODEL 7
REMARK VINA RESULT:    -7.591      2.399      3.259
REMARK INTER + INTRA:         -10.431
REMARK INTER:                  -9.860
REMARK INTRA:                  -0.571
REMARK UNBOUND:                -0.622
REMARK  Name = 
REMARK  5 active torsions:
REMARK  status: ('A' for Active; 'I' for Inactive)
REMARK    1  A    between atoms: C_2  and  C_4
REMARK    2  A    between atoms: C_7  and  N_8
REMARK    3  A    between atoms: N_8  and  C_9
REMARK    4  A    between atoms: C_9  and  C_10
REMARK    5  A    between atoms: C_14  and  C_15
REMARK                            x       y       z     vdW  Elec       q    Type
REMARK                         _______ _______ _______ _____ _____    ______ ____
ROOT
ATOM      1  C   UNL     1      44.326   5.933  10.675  0.00  0.00    +0.000 C 
ENDROOT
BRANCH   1   2
ATOM      2  C   UNL     1      45.311   5.675  11.797  0.00  0.00    +0.000 A 
ATOM      3  C   UNL     1      45.084   4.662  12.734  0.00  0.00    +0.000 A 
ATOM      4  C   UNL     1      46.009   4.429  13.749  0.00  0.00    +0.000 A 
ATOM      5  C   UNL     1      47.175   5.197  13.831  0.00  0.00    +0.000 A 
ATOM      6  C   UNL     1      47.451   6.212  12.899  0.00  0.00    +0.000 A 
ATOM      7  C   UNL     1      46.484   6.448  11.903  0.00  0.00    +0.000 A 
BRANCH   6   8
ATOM      8  C   UNL     1      48.726   6.962  12.920  0.00  0.00    +0.000 A 
ATOM      9  C   UNL     1      49.331   7.427  11.743  0.00  0.00    +0.000 A 
ATOM     10  N   UNL     1      50.470   8.164  11.677  0.00  0.00    +0.000 NA
ATOM     11  C   UNL     1      51.048   8.474  12.857  0.00  0.00    +0.000 A 
ATOM     12  C   UNL     1      50.544   8.069  14.077  0.00  0.00    +0.000 A 
ATOM     13  F   UNL     1      51.157   8.415  15.216  0.00  0.00    +0.000 F 
ATOM     14  C   UNL     1      49.385   7.303  14.113  0.00  0.00    +0.000 A 
ENDBRANCH   6   8
ENDBRANCH   1   2
BRANCH   1  15
ATOM     15  N   UNL     1      43.833   4.649  10.192  0.00  0.00    +0.000 N 
ATOM     16  H   UNL     1      42.947   4.752   9.704  0.00  0.00    +0.000 HD
BRANCH  15  20
ATOM     17  C   UNL     1      46.452   2.597   7.786  0.00  0.00    +0.000 A 
ATOM     18  C   UNL     1      45.658   1.920   8.697  0.00  0.00    +0.000 A 
ATOM     19  N   UNL     1      44.783   2.557   9.524  0.00  0.00    +0.000 NA
ATOM     20  C   UNL     1      44.728   3.902   9.419  0.00  0.00    +0.000 A 
ATOM     21  C   UNL     1      45.537   4.566   8.483  0.00  0.00    +0.000 A 
ATOM     22  N   UNL     1      46.419   3.950   7.654  0.00  0.00    +0.000 NA
BRANCH  17  24
ATOM     23  N   UNL     1      48.439   2.559   6.405  0.00  0.00    +0.000 N 
ATOM     24  C   UNL     1      47.381   1.845   6.898  0.00  0.00    +0.000 C 
ATOM     25  O   UNL     1      47.212   0.662   6.626  0.00  0.00    +0.000 OA
ATOM     26  H   UNL     1      49.101   2.110   5.788  0.00  0.00    +0.000 HD
ATOM     27  H   UNL     1      48.547   3.538   6.646  0.00  0.00    +0.000 HD
ENDBRANCH  17  24
ENDBRANCH  15  20
ENDBRANCH   1  15
TORSDOF 5
ENDMDL
MODEL 8
REMARK VINA RESULT:    -7.586      3.268      3.738
REMARK INTER + INTRA:         -10.425
REMARK INTER:                  -9.780
REMARK INTRA:                  -0.645
REMARK UNBOUND:                -0.622
REMARK  Name = 
REMARK  5 active torsions:
REMARK  status: ('A' for Active; 'I' for Inactive)
REMARK    1  A    between atoms: C_2  and  C_4
REMARK    2  A    between atoms: C_7  and  N_8
REMARK    3  A    between atoms: N_8  and  C_9
REMARK    4  A    between atoms: C_9  and  C_10
REMARK    5  A    between atoms: C_14  and  C_15
REMARK                            x       y       z     vdW  Elec       q    Type
REMARK                         _______ _______ _______ _____ _____    ______ ____
ROOT
ATOM      1  C   UNL     1      45.048   5.166  11.430  0.00  0.00    +0.000 C 
ENDROOT
BRANCH   1   2
ATOM      2  C   UNL     1      45.598   6.526  11.810  0.00  0.00    +0.000 A 
ATOM      3  C   UNL     1      44.752   7.542  12.265  0.00  0.00    +0.000 A 
ATOM      4  C   UNL     1      45.279   8.779  12.626  0.00  0.00    +0.000 A 
ATOM      5  C   UNL     1      46.656   9.011  12.547  0.00  0.00    +0.000 A 
ATOM      6  C   UNL     1      47.544   8.012  12.113  0.00  0.00    +0.000 A 
ATOM      7  C   UNL     1      46.981   6.781  11.724  0.00  0.00    +0.000 A 
BRANCH   6   8
ATOM      8  C   UNL     1      49.009   8.215  12.121  0.00  0.00    +0.000 A 
ATOM      9  C   UNL     1      49.652   8.923  13.146  0.00  0.00    +0.000 A 
ATOM     10  N   UNL     1      50.993   9.112  13.256  0.00  0.00    +0.000 NA
ATOM     11  C   UNL     1      51.754   8.554  12.291  0.00  0.00    +0.000 A 
ATOM     12  C   UNL     1      51.230   7.838  11.232  0.00  0.00    +0.000 A 
ATOM     13  F   UNL     1      52.037   7.299  10.310  0.00  0.00    +0.000 F 
ATOM     14  C   UNL     1      49.853   7.673  11.138  0.00  0.00    +0.000 A 
ENDBRANCH   6   8
ENDBRANCH   1   2
BRANCH   1  15
ATOM     15  N   UNL     1      44.612   5.219  10.039  0.00  0.00    +0.000 N 
ATOM     16  H   UNL     1      44.604   6.173   9.690  0.00  0.00    +0.000 HD
BRANCH  15  20
ATOM     17  C   UNL     1      46.628   2.626   7.575  0.00  0.00    +0.000 A 
ATOM     18  C   UNL     1      46.746   3.995   7.400  0.00  0.00    +0.000 A 
ATOM     19  N   UNL     1      46.088   4.894   8.185  0.00  0.00    +0.000 NA
ATOM     20  C   UNL     1      45.297   4.382   9.152  0.00  0.00    +0.000 A 
ATOM     21  C   UNL     1      45.199   2.992   9.314  0.00  0.00    +0.000 A 
ATOM     22  N   UNL     1      45.841   2.079   8.540  0.00  0.00    +0.000 NA
BRANCH  17  24
ATOM     23  N   UNL     1      48.432   2.240   6.009  0.00  0.00    +0.000 N 
ATOM     24  C   UNL     1      47.382   1.692   6.694  0.00  0.00    +0.000 C 
ATOM     25  O   UNL     1      47.084   0.509   6.589  0.00  0.00    +0.000 OA
ATOM     26  H   UNL     1      48.979   1.662   5.386  0.00  0.00    +0.000 HD
ATOM     27  H   UNL     1      48.649   3.225   6.115  0.00  0.00    +0.000 HD
ENDBRANCH  17  24
ENDBRANCH  15  20
ENDBRANCH   1  15
TORSDOF 5
ENDMDL
MODEL 9
REMARK VINA RESULT:    -7.077      4.340      7.589
REMARK INTER + INTRA:          -9.768
REMARK INTER:                  -9.135
REMARK INTRA:                  -0.633
REMARK UNBOUND:                -0.622
REMARK  Name = 
REMARK  5 active torsions:
REMARK  status: ('A' for Active; 'I' for Inactive)
REMARK    1  A    between atoms: C_2  and  C_4
REMARK    2  A    between atoms: C_7  and  N_8
REMARK    3  A    between atoms: N_8  and  C_9
REMARK    4  A    between atoms: C_9  and  C_10
REMARK    5  A    between atoms: C_14  and  C_15
REMARK                            x       y       z     vdW  Elec       q    Type
REMARK                         _______ _______ _______ _____ _____    ______ ____
ROOT
ATOM      1  C   UNL     1      43.649   6.669  11.315  0.00  0.00    +0.000 C 
ENDROOT
BRANCH   1   2
ATOM      2  C   UNL     1      43.817   5.179  11.092  0.00  0.00    +0.000 A 
ATOM      3  C   UNL     1      43.156   4.251  11.903  0.00  0.00    +0.000 A 
ATOM      4  C   UNL     1      43.310   2.887  11.672  0.00  0.00    +0.000 A 
ATOM      5  C   UNL     1      44.115   2.435  10.621  0.00  0.00    +0.000 A 
ATOM      6  C   UNL     1      44.781   3.333   9.770  0.00  0.00    +0.000 A 
ATOM      7  C   UNL     1      44.634   4.707  10.046  0.00  0.00    +0.000 A 
BRANCH   6   8
ATOM      8  C   UNL     1      45.554   2.867   8.598  0.00  0.00    +0.000 A 
ATOM      9  C   UNL     1      46.011   3.754   7.613  0.00  0.00    +0.000 A 
ATOM     10  N   UNL     1      46.767   3.418   6.535  0.00  0.00    +0.000 NA
ATOM     11  C   UNL     1      47.106   2.116   6.428  0.00  0.00    +0.000 A 
ATOM     12  C   UNL     1      46.710   1.153   7.336  0.00  0.00    +0.000 A 
ATOM     13  F   UNL     1      47.085  -0.123   7.181  0.00  0.00    +0.000 F 
ATOM     14  C   UNL     1      45.925   1.524   8.421  0.00  0.00    +0.000 A 
ENDBRANCH   6   8
ENDBRANCH   1   2
BRANCH   1  15
ATOM     15  N   UNL     1      44.266   7.015  12.590  0.00  0.00    +0.000 N 
ATOM     16  H   UNL     1      44.394   6.194  13.175  0.00  0.00    +0.000 HD
BRANCH  15  20
ATOM     17  C   UNL     1      47.670   9.285  12.243  0.00  0.00    +0.000 A 
ATOM     18  C   UNL     1      47.753   7.938  12.555  0.00  0.00    +0.000 A 
ATOM     19  N   UNL     1      46.652   7.147  12.693  0.00  0.00    +0.000 NA
ATOM     20  C   UNL     1      45.455   7.747  12.514  0.00  0.00    +0.000 A 
ATOM     21  C   UNL     1      45.397   9.111  12.191  0.00  0.00    +0.000 A 
ATOM     22  N   UNL     1      46.481   9.918  12.056  0.00  0.00    +0.000 NA
BRANCH  17  24
ATOM     23  N   UNL     1      49.025  10.790  10.920  0.00  0.00    +0.000 N 
ATOM     24  C   UNL     1      48.909  10.096  12.094  0.00  0.00    +0.000 C 
ATOM     25  O   UNL     1      49.770  10.143  12.964  0.00  0.00    +0.000 OA
ATOM     26  H   UNL     1      49.848  11.352  10.750  0.00  0.00    +0.000 HD
ATOM     27  H   UNL     1      48.296  10.726  10.218  0.00  0.00    +0.000 HD
ENDBRANCH  17  24
ENDBRANCH  15  20
ENDBRANCH   1  15
TORSDOF 5
ENDMDL
