MODEL 1
REMARK VINA RESULT:    -8.017      0.000      0.000
REMARK INTER + INTRA:         -10.299
REMARK INTER:                  -9.892
REMARK INTRA:                  -0.407
REMARK UNBOUND:                -0.407
REMARK  Name = 
REMARK  5 active torsions:
REMARK  status: ('A' for Active; 'I' for Inactive)
REMARK    1  A    between atoms: C_1  and  C_2
REMARK    2  A    between atoms: C_5  and  C_6
REMARK    3  A    between atoms: C_6  and  N_7
REMARK    4  A    between atoms: N_7  and  C_8
REMARK    5  A    between atoms: C_11  and  C_12
REMARK                            x       y       z     vdW  Elec       q    Type
REMARK                         _______ _______ _______ _____ _____    ______ ____
ROOT
ATOM      1  N   UNL     1      43.838   3.723  10.638  0.00  0.00    +0.000 N 
ATOM      2  H   UNL     1      43.103   3.043  10.806  0.00  0.00    +0.000 HD
ENDROOT
BRANCH   1   3
ATOM      3  C   UNL     1      44.688   3.436   9.571  0.00  0.00    +0.000 A 
ATOM      4  C   UNL     1      45.171   4.338   8.638  0.00  0.00    +0.000 A 
ATOM      5  N   UNL     1      46.003   4.026   7.613  0.00  0.00    +0.000 NA
ATOM      6  C   UNL     1      46.379   2.727   7.544  0.00  0.00    +0.000 A 
ATOM      7  N   UNL     1      46.004   1.758   8.398  0.00  0.00    +0.000 NA
ATOM      8  C   UNL     1      45.178   2.147   9.388  0.00  0.00    +0.000 A 
BRANCH   6   9
ATOM      9  C   UNL     1      47.280   2.331   6.394  0.00  0.00    +0.000 C 
ATOM     10  N   UNL     1      47.222   3.145   5.285  0.00  0.00    +0.000 N 
ATOM     11  O   UNL     1      48.018   1.352   6.404  0.00  0.00    +0.000 OA
ATOM     12  H   UNL     1      46.596   3.940   5.268  0.00  0.00    +0.000 HD
ATOM     13  H   UNL     1      47.785   2.911   4.480  0.00  0.00    +0.000 HD
ENDBRANCH   6   9
ENDBRANCH   1   3
BRANCH   1  14
ATOM     14  C   UNL     1      43.820   4.944  11.452  0.00  0.00    +0.000 C 
ATOM     15  C   UNL     1      42.707   5.967  11.348  0.00  0.00    +0.000 C 
ATOM     16  C   UNL     1      42.691   4.999  12.482  0.00  0.00    +0.000 C 
BRANCH  14  21
ATOM     17  C   UNL     1      48.991   6.903  13.431  0.00  0.00    +0.000 C 
ATOM     18  C   UNL     1      47.702   6.381  12.871  0.00  0.00    +0.000 A 
ATOM     19  C   UNL     1      47.018   7.065  11.866  0.00  0.00    +0.000 A 
ATOM     20  C   UNL     1      45.786   6.591  11.396  0.00  0.00    +0.000 A 
ATOM     21  C   UNL     1      45.198   5.423  11.909  0.00  0.00    +0.000 A 
ATOM     22  C   UNL     1      45.927   4.729  12.892  0.00  0.00    +0.000 A 
ATOM     23  C   UNL     1      47.151   5.201  13.376  0.00  0.00    +0.000 A 
ENDBRANCH  14  21
ENDBRANCH   1  14
TORSDOF 4
ENDMDL
MODEL 2
REMARK VINA RESULT:    -7.489      3.683      6.544
REMARK INTER + INTRA:          -9.647
REMARK INTER:                  -9.211
REMARK INTRA:                  -0.436
REMARK UNBOUND:                -0.407
REMARK  Name = 
REMARK  5 active torsions:
REMARK  status: ('A' for Active; 'I' for Inactive)
REMARK    1  A    between atoms: C_1  and  C_2
REMARK    2  A    between atoms: C_5  and  C_6
REMARK    3  A    between atoms: C_6  and  N_7
REMARK    4  A    between atoms: N_7  and  C_8
REMARK    5  A    between atoms: C_11  and  C_12
REMARK                            x       y       z     vdW  Elec       q    Type
REMARK                         _______ _______ _______ _____ _____    ______ ____
ROOT
ATOM      1  N   UNL     1      45.550   5.221  11.867  0.00  0.00    +0.000 N 
ATOM      2  H   UNL     1      45.730   6.192  11.633  0.00  0.00    +0.000 HD
ENDROOT
BRANCH   1   3
ATOM      3  C   UNL     1      46.183   4.752  13.016  0.00  0.00    +0.000 A 
ATOM      4  C   UNL     1      46.560   3.444  13.273  0.00  0.00    +0.000 A 
ATOM      5  N   UNL     1      47.181   3.022  14.402  0.00  0.00    +0.000 NA
ATOM      6  C   UNL     1      47.450   3.987  15.314  0.00  0.00    +0.000 A 
ATOM      7  N   UNL     1      47.162   5.294  15.178  0.00  0.00    +0.000 NA
ATOM      8  C   UNL     1      46.546   5.633  14.029  0.00  0.00    +0.000 A 
BRANCH   6   9
ATOM      9  C   UNL     1      48.113   3.550  16.603  0.00  0.00    +0.000 C 
ATOM     10  N   UNL     1      47.258   3.212  17.628  0.00  0.00    +0.000 N 
ATOM     11  O   UNL     1      49.326   3.499  16.769  0.00  0.00    +0.000 OA
ATOM     12  H   UNL     1      46.256   3.276  17.497  0.00  0.00    +0.000 HD
ATOM     13  H   UNL     1      47.648   2.939  18.518  0.00  0.00    +0.000 HD
ENDBRANCH   6   9
ENDBRANCH   1   3
BRANCH   1  14
ATOM     14  C   UNL     1      44.571   4.504  11.040  0.00  0.00    +0.000 C 
ATOM     15  C   UNL     1      43.313   3.894  11.626  0.00  0.00    +0.000 C 
ATOM     16  C   UNL     1      43.216   5.203  10.919  0.00  0.00    +0.000 C 
BRANCH  14  21
ATOM     17  C   UNL     1      47.017   2.067   6.290  0.00  0.00    +0.000 C 
ATOM     18  C   UNL     1      46.341   2.707   7.465  0.00  0.00    +0.000 A 
ATOM     19  C   UNL     1      46.335   4.092   7.632  0.00  0.00    +0.000 A 
ATOM     20  C   UNL     1      45.747   4.668   8.766  0.00  0.00    +0.000 A 
ATOM     21  C   UNL     1      45.146   3.885   9.767  0.00  0.00    +0.000 A 
ATOM     22  C   UNL     1      45.128   2.495   9.555  0.00  0.00    +0.000 A 
ATOM     23  C   UNL     1      45.724   1.911   8.432  0.00  0.00    +0.000 A 
ENDBRANCH  14  21
ENDBRANCH   1  14
TORSDOF 4
ENDMDL
MODEL 3
REMARK VINA RESULT:    -6.959      3.657      6.337
REMARK INTER + INTRA:          -8.993
REMARK INTER:                  -8.699
REMARK INTRA:                  -0.294
REMARK UNBOUND:                -0.407
REMARK  Name = 
REMARK  5 active torsions:
REMARK  status: ('A' for Active; 'I' for Inactive)
REMARK    1  A    between atoms: C_1  and  C_2
REMARK    2  A    between atoms: C_5  and  C_6
REMARK    3  A    between atoms: C_6  and  N_7
REMARK    4  A    between atoms: N_7  and  C_8
REMARK    5  A    between atoms: C_11  and  C_12
REMARK                            x       y       z     vdW  Elec       q    Type
REMARK                         _______ _______ _______ _____ _____    ______ ____
ROOT
ATOM      1  N   UNL     1      44.971   5.555  11.461  0.00  0.00    +0.000 N 
ATOM      2  H   UNL     1      44.396   6.341  11.172  0.00  0.00    +0.000 HD
ENDROOT
BRANCH   1   3
ATOM      3  C   UNL     1      46.047   5.870  12.287  0.00  0.00    +0.000 A 
ATOM      4  C   UNL     1      46.602   5.056  13.261  0.00  0.00    +0.000 A 
ATOM      5  N   UNL     1      47.656   5.392  14.047  0.00  0.00    +0.000 NA
ATOM      6  C   UNL     1      48.186   6.617  13.816  0.00  0.00    +0.000 A 
ATOM      7  N   UNL     1      47.760   7.492  12.888  0.00  0.00    +0.000 NA
ATOM      8  C   UNL     1      46.710   7.084  12.149  0.00  0.00    +0.000 A 
BRANCH   6   9
ATOM      9  C   UNL     1      49.342   7.043  14.696  0.00  0.00    +0.000 C 
ATOM     10  N   UNL     1      49.850   8.298  14.447  0.00  0.00    +0.000 N 
ATOM     11  O   UNL     1      49.833   6.341  15.574  0.00  0.00    +0.000 OA
ATOM     12  H   UNL     1      49.460   8.868  13.707  0.00  0.00    +0.000 HD
ATOM     13  H   UNL     1      50.639   8.620  14.989  0.00  0.00    +0.000 HD
ENDBRANCH   6   9
ENDBRANCH   1   3
BRANCH   1  14
ATOM     14  C   UNL     1      44.517   4.215  11.068  0.00  0.00    +0.000 C 
ATOM     15  C   UNL     1      44.030   3.200  12.083  0.00  0.00    +0.000 C 
ATOM     16  C   UNL     1      43.025   3.964  11.290  0.00  0.00    +0.000 C 
BRANCH  14  21
ATOM     17  C   UNL     1      47.078   2.184   6.189  0.00  0.00    +0.000 C 
ATOM     18  C   UNL     1      46.371   2.716   7.399  0.00  0.00    +0.000 A 
ATOM     19  C   UNL     1      46.235   4.088   7.615  0.00  0.00    +0.000 A 
ATOM     20  C   UNL     1      45.620   4.567   8.780  0.00  0.00    +0.000 A 
ATOM     21  C   UNL     1      45.120   3.697   9.763  0.00  0.00    +0.000 A 
ATOM     22  C   UNL     1      45.231   2.319   9.503  0.00  0.00    +0.000 A 
ATOM     23  C   UNL     1      45.855   1.833   8.349  0.00  0.00    +0.000 A 
ENDBRANCH  14  21
ENDBRANCH   1  14
TORSDOF 4
ENDMDL
MODEL 4
REMARK VINA RESULT:    -6.609      4.069      6.550
REMARK INTER + INTRA:          -8.562
REMARK INTER:                  -8.148
REMARK INTRA:                  -0.413
REMARK UNBOUND:                -0.407
REMARK  Name = 
REMARK  5 active torsions:
REMARK  status: ('A' for Active; 'I' for Inactive)
REMARK    1  A    between atoms: C_1  and  C_2
REMARK    2  A    between atoms: C_5  and  C_6
REMARK    3  A    between atoms: C_6  and  N_7
REMARK    4  A    between atoms: N_7  and  C_8
REMARK    5  A    between atoms: C_11  and  C_12
REMARK                            x       y       z     vdW  Elec       q    Type
REMARK                         _______ _______ _______ _____ _____    ______ ____
ROOT
ATOM      1  N   UNL     1      46.271   5.863  12.538  0.00  0.00    +0.000 N 
ATOM      2  H   UNL     1      46.703   6.759  12.336  0.00  0.00    +0.000 HD
ENDROOT
BRANCH   1   3
ATOM      3  C   UNL     1      46.837   5.148  13.592  0.00  0.00    +0.000 A 
ATOM      4  C   UNL     1      47.436   5.682  14.721  0.00  0.00    +0.000 A 
ATOM      5  N   UNL     1      47.973   4.956  15.733  0.00  0.00    +0.000 NA
ATOM      6  C   UNL     1      47.880   3.612  15.598  0.00  0.00    +0.000 A 
ATOM      7  N   UNL     1      47.303   2.967  14.568  0.00  0.00    +0.000 NA
ATOM      8  C   UNL     1      46.793   3.758  13.604  0.00  0.00    +0.000 A 
BRANCH   6   9
ATOM      9  C   UNL     1      48.498   2.766  16.691  0.00  0.00    +0.000 C 
ATOM     10  N   UNL     1      49.324   1.751  16.264  0.00  0.00    +0.000 N 
ATOM     11  O   UNL     1      48.292   2.933  17.888  0.00  0.00    +0.000 OA
ATOM     12  H   UNL     1      49.476   1.600  15.275  0.00  0.00    +0.000 HD
ATOM     13  H   UNL     1      49.741   1.141  16.952  0.00  0.00    +0.000 HD
ENDBRANCH   6   9
ENDBRANCH   1   3
BRANCH   1  14
ATOM     14  C   UNL     1      45.061   5.517  11.782  0.00  0.00    +0.000 C 
ATOM     15  C   UNL     1      43.716   5.326  12.455  0.00  0.00    +0.000 C 
ATOM     16  C   UNL     1      43.996   6.614  11.760  0.00  0.00    +0.000 C 
BRANCH  14  21
ATOM     17  C   UNL     1      45.837   2.807   6.630  0.00  0.00    +0.000 C 
ATOM     18  C   UNL     1      45.688   3.462   7.970  0.00  0.00    +0.000 A 
ATOM     19  C   UNL     1      45.052   2.813   9.028  0.00  0.00    +0.000 A 
ATOM     20  C   UNL     1      44.872   3.463  10.256  0.00  0.00    +0.000 A 
ATOM     21  C   UNL     1      45.321   4.778  10.470  0.00  0.00    +0.000 A 
ATOM     22  C   UNL     1      45.996   5.396   9.402  0.00  0.00    +0.000 A 
ATOM     23  C   UNL     1      46.168   4.759   8.169  0.00  0.00    +0.000 A 
ENDBRANCH  14  21
ENDBRANCH   1  14
TORSDOF 4
ENDMDL
MODEL 5
REMARK VINA RESULT:    -6.537      3.535      6.067
REMARK INTER + INTRA:          -8.472
REMARK INTER:                  -8.494
REMARK INTRA:                   0.022
REMARK UNBOUND:                -0.407
REMARK  Name = 
REMARK  5 active torsions:
REMARK  status: ('A' for Active; 'I' for Inactive)
REMARK    1  A    between atoms: C_1  and  C_2
REMARK    2  A    between atoms: C_5  and  C_6
REMARK    3  A    between atoms: C_6  and  N_7
REMARK    4  A    between atoms: N_7  and  C_8
REMARK    5  A    between atoms: C_11  and  C_12
REMARK                            x       y       z     vdW  Elec       q    Type
REMARK                         _______ _______ _______ _____ _____    ______ ____
ROOT
ATOM      1  N   UNL     1      45.358   4.502  12.383  0.00  0.00    +0.000 N 
ATOM      2  H   UNL     1      45.803   3.942  13.104  0.00  0.00    +0.000 HD
ENDROOT
BRANCH   1   3
ATOM      3  C   UNL     1      45.778   5.828  12.309  0.00  0.00    +0.000 A 
ATOM      4  C   UNL     1      44.964   6.946  12.226  0.00  0.00    +0.000 A 
ATOM      5  N   UNL     1      45.405   8.226  12.161  0.00  0.00    +0.000 NA
ATOM      6  C   UNL     1      46.750   8.380  12.201  0.00  0.00    +0.000 A 
ATOM      7  N   UNL     1      47.649   7.385  12.306  0.00  0.00    +0.000 NA
ATOM      8  C   UNL     1      47.131   6.143  12.365  0.00  0.00    +0.000 A 
BRANCH   6   9
ATOM      9  C   UNL     1      47.284   9.793  12.096  0.00  0.00    +0.000 C 
ATOM     10  N   UNL     1      46.430  10.786  12.520  0.00  0.00    +0.000 N 
ATOM     11  O   UNL     1      48.393  10.078  11.657  0.00  0.00    +0.000 OA
ATOM     12  H   UNL     1      45.506  10.552  12.862  0.00  0.00    +0.000 HD
ATOM     13  H   UNL     1      46.727  11.748  12.447  0.00  0.00    +0.000 HD
ENDBRANCH   6   9
ENDBRANCH   1   3
BRANCH   1  14
ATOM     14  C   UNL     1      44.445   3.809  11.466  0.00  0.00    +0.000 C 
ATOM     15  C   UNL     1      43.374   2.857  11.960  0.00  0.00    +0.000 C 
ATOM     16  C   UNL     1      42.984   4.245  11.582  0.00  0.00    +0.000 C 
BRANCH  14  21
ATOM     17  C   UNL     1      46.817   2.968   6.159  0.00  0.00    +0.000 C 
ATOM     18  C   UNL     1      46.155   3.200   7.484  0.00  0.00    +0.000 A 
ATOM     19  C   UNL     1      45.960   4.488   7.982  0.00  0.00    +0.000 A 
ATOM     20  C   UNL     1      45.390   4.683   9.247  0.00  0.00    +0.000 A 
ATOM     21  C   UNL     1      44.996   3.603  10.055  0.00  0.00    +0.000 A 
ATOM     22  C   UNL     1      45.164   2.316   9.514  0.00  0.00    +0.000 A 
ATOM     23  C   UNL     1      45.743   2.112   8.257  0.00  0.00    +0.000 A 
ENDBRANCH  14  21
ENDBRANCH   1  14
TORSDOF 4
ENDMDL
MODEL 6
REMARK VINA RESULT:    -5.695      2.814      4.666
REMARK INTER + INTRA:          -7.434
REMARK INTER:                  -7.417
REMARK INTRA:                  -0.017
REMARK UNBOUND:                -0.407
REMARK  Name = 
REMARK  5 active torsions:
REMARK  status: ('A' for Active; 'I' for Inactive)
REMARK    1  A    between atoms: C_1  and  C_2
REMARK    2  A    between atoms: C_5  and  C_6
REMARK    3  A    between atoms: C_6  and  N_7
REMARK    4  A    between atoms: N_7  and  C_8
REMARK    5  A    between atoms: C_11  and  C_12
REMARK                            x       y       z     vdW  Elec       q    Type
REMARK                         _______ _______ _______ _____ _____    ______ ____
ROOT
ATOM      1  N   UNL     1      46.179   6.180  13.344  0.00  0.00    +0.000 N 
ATOM      2  H   UNL     1      45.464   6.808  13.696  0.00  0.00    +0.000 HD
ENDROOT
BRANCH   1   3
ATOM      3  C   UNL     1      45.776   5.326  12.319  0.00  0.00    +0.000 A 
ATOM      4  C   UNL     1      45.354   4.014  12.460  0.00  0.00    +0.000 A 
ATOM      5  N   UNL     1      44.962   3.210  11.440  0.00  0.00    +0.000 NA
ATOM      6  C   UNL     1      44.983   3.778  10.210  0.00  0.00    +0.000 A 
ATOM      7  N   UNL     1      45.345   5.045   9.940  0.00  0.00    +0.000 NA
ATOM      8  C   UNL     1      45.721   5.778  11.006  0.00  0.00    +0.000 A 
BRANCH   6   9
ATOM      9  C   UNL     1      44.585   2.902   9.041  0.00  0.00    +0.000 C 
ATOM     10  N   UNL     1      44.217   3.569   7.895  0.00  0.00    +0.000 N 
ATOM     11  O   UNL     1      44.565   1.677   9.076  0.00  0.00    +0.000 OA
ATOM     12  H   UNL     1      44.212   4.582   7.874  0.00  0.00    +0.000 HD
ATOM     13  H   UNL     1      43.918   3.033   7.094  0.00  0.00    +0.000 HD
ENDBRANCH   6   9
ENDBRANCH   1   3
BRANCH   1  14
ATOM     14  C   UNL     1      47.538   6.348  13.874  0.00  0.00    +0.000 C 
ATOM     15  C   UNL     1      48.723   6.643  12.977  0.00  0.00    +0.000 C 
ATOM     16  C   UNL     1      48.098   7.764  13.735  0.00  0.00    +0.000 C 
BRANCH  14  21
ATOM     17  C   UNL     1      48.769   3.473  18.845  0.00  0.00    +0.000 C 
ATOM     18  C   UNL     1      48.397   4.225  17.603  0.00  0.00    +0.000 A 
ATOM     19  C   UNL     1      47.486   3.704  16.684  0.00  0.00    +0.000 A 
ATOM     20  C   UNL     1      47.194   4.395  15.502  0.00  0.00    +0.000 A 
ATOM     21  C   UNL     1      47.797   5.627  15.197  0.00  0.00    +0.000 A 
ATOM     22  C   UNL     1      48.680   6.153  16.157  0.00  0.00    +0.000 A 
ATOM     23  C   UNL     1      48.986   5.463  17.335  0.00  0.00    +0.000 A 
ENDBRANCH  14  21
ENDBRANCH   1  14
TORSDOF 4
ENDMDL
MODEL 7
REMARK VINA RESULT:    -5.666      4.459      6.483
REMARK INTER + INTRA:          -7.398
REMARK INTER:                  -7.009
REMARK INTRA:                  -0.390
REMARK UNBOUND:                -0.407
REMARK  Name = 
REMARK  5 active torsions:
REMARK  status: ('A' for Active; 'I' for Inactive)
REMARK    1  A    between atoms: C_1  and  C_2
REMARK    2  A    between atoms: C_5  and  C_6
REMARK    3  A    between atoms: C_6  and  N_7
REMARK    4  A    between atoms: N_7  and  C_8
REMARK    5  A    between atoms: C_11  and  C_12
REMARK                            x       y       z     vdW  Elec       q    Type
REMARK                         _______ _______ _______ _____ _____    ______ ____
ROOT
ATOM      1  N   UNL     1      45.949   6.048  13.589  0.00  0.00    +0.000 N 
ATOM      2  H   UNL     1      45.099   6.363  14.048  0.00  0.00    +0.000 HD
ENDROOT
BRANCH   1   3
ATOM      3  C   UNL     1      46.721   5.142  14.313  0.00  0.00    +0.000 A 
ATOM      4  C   UNL     1      46.839   3.784  14.070  0.00  0.00    +0.000 A 
ATOM      5  N   UNL     1      47.606   2.929  14.792  0.00  0.00    +0.000 NA
ATOM      6  C   UNL     1      48.306   3.490  15.807  0.00  0.00    +0.000 A 
ATOM      7  N   UNL     1      48.300   4.795  16.132  0.00  0.00    +0.000 NA
ATOM      8  C   UNL     1      47.514   5.578  15.368  0.00  0.00    +0.000 A 
BRANCH   6   9
ATOM      9  C   UNL     1      49.147   2.563  16.657  0.00  0.00    +0.000 C 
ATOM     10  N   UNL     1      49.165   2.843  18.005  0.00  0.00    +0.000 N 
ATOM     11  O   UNL     1      49.796   1.622  16.213  0.00  0.00    +0.000 OA
ATOM     12  H   UNL     1      48.648   3.633  18.368  0.00  0.00    +0.000 HD
ATOM     13  H   UNL     1      49.732   2.270  18.614  0.00  0.00    +0.000 HD
ENDBRANCH   6   9
ENDBRANCH   1   3
BRANCH   1  14
ATOM     14  C   UNL     1      46.169   6.495  12.208  0.00  0.00    +0.000 C 
ATOM     15  C   UNL     1      45.873   5.607  11.016  0.00  0.00    +0.000 C 
ATOM     16  C   UNL     1      44.889   6.663  11.388  0.00  0.00    +0.000 C 
BRANCH  14  21
ATOM     17  C   UNL     1      50.177  10.701  11.353  0.00  0.00    +0.000 C 
ATOM     18  C   UNL     1      49.183   9.614  11.629  0.00  0.00    +0.000 A 
ATOM     19  C   UNL     1      49.513   8.269  11.458  0.00  0.00    +0.000 A 
ATOM     20  C   UNL     1      48.553   7.270  11.666  0.00  0.00    +0.000 A 
ATOM     21  C   UNL     1      47.237   7.576  12.053  0.00  0.00    +0.000 A 
ATOM     22  C   UNL     1      46.941   8.935  12.260  0.00  0.00    +0.000 A 
ATOM     23  C   UNL     1      47.889   9.940  12.042  0.00  0.00    +0.000 A 
ENDBRANCH  14  21
ENDBRANCH   1  14
TORSDOF 4
ENDMDL
MODEL 8
REMARK VINA RESULT:    -5.635      3.132      5.421
REMARK INTER + INTRA:          -7.360
REMARK INTER:                  -7.176
REMARK INTRA:                  -0.184
REMARK UNBOUND:                -0.407
REMARK  Name = 
REMARK  5 active torsions:
REMARK  status: ('A' for Active; 'I' for Inactive)
REMARK    1  A    between atoms: C_1  and  C_2
REMARK    2  A    between atoms: C_5  and  C_6
REMARK    3  A    between atoms: C_6  and  N_7
REMARK    4  A    between atoms: N_7  and  C_8
REMARK    5  A    between atoms: C_11  and  C_12
REMARK                            x       y       z     vdW  Elec       q    Type
REMARK                         _______ _______ _______ _____ _____    ______ ____
ROOT
ATOM      1  N   UNL     1      46.865   7.037  13.657  0.00  0.00    +0.000 N 
ATOM      2  H   UNL     1      46.316   7.645  14.257  0.00  0.00    +0.000 HD
ENDROOT
BRANCH   1   3
ATOM      3  C   UNL     1      46.149   6.042  12.994  0.00  0.00    +0.000 A 
ATOM      4  C   UNL     1      45.467   6.179  11.797  0.00  0.00    +0.000 A 
ATOM      5  N   UNL     1      44.783   5.187  11.174  0.00  0.00    +0.000 NA
ATOM      6  C   UNL     1      44.811   3.983  11.794  0.00  0.00    +0.000 A 
ATOM      7  N   UNL     1      45.455   3.710  12.943  0.00  0.00    +0.000 NA
ATOM      8  C   UNL     1      46.110   4.747  13.499  0.00  0.00    +0.000 A 
BRANCH   6   9
ATOM      9  C   UNL     1      44.031   2.858  11.147  0.00  0.00    +0.000 C 
ATOM     10  N   UNL     1      44.606   2.301  10.028  0.00  0.00    +0.000 N 
ATOM     11  O   UNL     1      42.949   2.449  11.555  0.00  0.00    +0.000 OA
ATOM     12  H   UNL     1      45.488   2.655   9.678  0.00  0.00    +0.000 HD
ATOM     13  H   UNL     1      44.114   1.564   9.543  0.00  0.00    +0.000 HD
ENDBRANCH   6   9
ENDBRANCH   1   3
BRANCH   1  14
ATOM     14  C   UNL     1      48.286   7.368  13.489  0.00  0.00    +0.000 C 
ATOM     15  C   UNL     1      48.946   7.419  12.125  0.00  0.00    +0.000 C 
ATOM     16  C   UNL     1      48.543   8.697  12.778  0.00  0.00    +0.000 C 
BRANCH  14  21
ATOM     17  C   UNL     1      51.757   5.932  18.003  0.00  0.00    +0.000 C 
ATOM     18  C   UNL     1      50.842   6.344  16.889  0.00  0.00    +0.000 A 
ATOM     19  C   UNL     1      49.506   5.945  16.862  0.00  0.00    +0.000 A 
ATOM     20  C   UNL     1      48.682   6.293  15.784  0.00  0.00    +0.000 A 
ATOM     21  C   UNL     1      49.160   7.050  14.701  0.00  0.00    +0.000 A 
ATOM     22  C   UNL     1      50.499   7.477  14.771  0.00  0.00    +0.000 A 
ATOM     23  C   UNL     1      51.332   7.123  15.838  0.00  0.00    +0.000 A 
ENDBRANCH  14  21
ENDBRANCH   1  14
TORSDOF 4
ENDMDL
MODEL 9
REMARK VINA RESULT:    -5.432      5.308      7.270
REMARK INTER + INTRA:          -7.110
REMARK INTER:                  -6.789
REMARK INTRA:                  -0.321
REMARK UNBOUND:                -0.407
REMARK  Name = 
REMARK  5 active torsions:
REMARK  status: ('A' for Active; 'I' for Inactive)
REMARK    1  A    between atoms: C_1  and  C_2
REMARK    2  A    between atoms: C_5  and  C_6
REMARK    3  A    between atoms: C_6  and  N_7
REMARK    4  A    between atoms: N_7  and  C_8
REMARK    5  A    between atoms: C_11  and  C_12
REMARK                            x       y       z     vdW  Elec       q    Type
REMARK                         _______ _______ _______ _____ _____    ______ ____
ROOT
ATOM      1  N   UNL     1      46.315   4.721  15.136  0.00  0.00    +0.000 N 
ATOM      2  H   UNL     1      45.472   4.770  15.700  0.00  0.00    +0.000 HD
ENDROOT
BRANCH   1   3
ATOM      3  C   UNL     1      47.486   4.427  15.831  0.00  0.00    +0.000 A 
ATOM      4  C   UNL     1      48.423   5.339  16.289  0.00  0.00    +0.000 A 
ATOM      5  N   UNL     1      49.552   5.019  16.968  0.00  0.00    +0.000 NA
ATOM      6  C   UNL     1      49.730   3.699  17.213  0.00  0.00    +0.000 A 
ATOM      7  N   UNL     1      48.887   2.716  16.848  0.00  0.00    +0.000 NA
ATOM      8  C   UNL     1      47.789   3.114  16.176  0.00  0.00    +0.000 A 
BRANCH   6   9
ATOM      9  C   UNL     1      50.996   3.298  17.940  0.00  0.00    +0.000 C 
ATOM     10  N   UNL     1      51.406   1.998  17.750  0.00  0.00    +0.000 N 
ATOM     11  O   UNL     1      51.635   4.047  18.669  0.00  0.00    +0.000 OA
ATOM     12  H   UNL     1      50.865   1.373  17.165  0.00  0.00    +0.000 HD
ATOM     13  H   UNL     1      52.230   1.672  18.233  0.00  0.00    +0.000 HD
ENDBRANCH   6   9
ENDBRANCH   1   3
BRANCH   1  14
ATOM     14  C   UNL     1      46.155   4.845  13.682  0.00  0.00    +0.000 C 
ATOM     15  C   UNL     1      46.047   3.634  12.776  0.00  0.00    +0.000 C 
ATOM     16  C   UNL     1      44.803   4.364  13.153  0.00  0.00    +0.000 C 
BRANCH  14  21
ATOM     17  C   UNL     1      48.386   9.888  11.662  0.00  0.00    +0.000 C 
ATOM     18  C   UNL     1      47.788   8.591  12.118  0.00  0.00    +0.000 A 
ATOM     19  C   UNL     1      46.438   8.492  12.454  0.00  0.00    +0.000 A 
ATOM     20  C   UNL     1      45.911   7.286  12.932  0.00  0.00    +0.000 A 
ATOM     21  C   UNL     1      46.709   6.140  13.090  0.00  0.00    +0.000 A 
ATOM     22  C   UNL     1      48.057   6.252  12.705  0.00  0.00    +0.000 A 
ATOM     23  C   UNL     1      48.595   7.457  12.239  0.00  0.00    +0.000 A 
ENDBRANCH  14  21
ENDBRANCH   1  14
TORSDOF 4
ENDMDL
