MODEL 1
REMARK VINA RESULT:    -7.557      0.000      0.000
REMARK INTER + INTRA:         -12.239
REMARK INTER:                 -11.312
REMARK INTRA:                  -0.927
REMARK UNBOUND:                -0.927
REMARK  Name = 
REMARK  9 active torsions:
REMARK  status: ('A' for Active; 'I' for Inactive)
REMARK    1  A    between atoms: N_1  and  C_2
REMARK    2  A    between atoms: C_2  and  C_3
REMARK    3  A    between atoms: C_3  and  N_4
REMARK    4  A    between atoms: C_7  and  C_8
REMARK    5  A    between atoms: N_10  and  C_11
REMARK    6  A    between atoms: C_11  and  C_12
REMARK    7  A    between atoms: C_15  and  C_16
REMARK    8  A    between atoms: C_16  and  N_17
REMARK    9  A    between atoms: C_18  and  C_20
REMARK                            x       y       z     vdW  Elec       q    Type
REMARK                         _______ _______ _______ _____ _____    ______ ____
ROOT
ATOM      1  C   UNL     1      46.266   4.815  13.542  0.00  0.00    +0.000 A 
ATOM      2  C   UNL     1      46.882   5.959  13.016  0.00  0.00    +0.000 A 
ATOM      3  C   UNL     1      47.860   6.644  13.749  0.00  0.00    +0.000 A 
ATOM      4  C   UNL     1      48.257   6.183  15.012  0.00  0.00    +0.000 A 
ATOM      5  C   UNL     1      47.655   5.026  15.524  0.00  0.00    +0.000 A 
ATOM      6  C   UNL     1      46.682   4.342  14.793  0.00  0.00    +0.000 A 
ENDROOT
BRANCH   1   7
ATOM      7  C   UNL     1      45.187   4.095  12.779  0.00  0.00    +0.000 C 
BRANCH   7  10
ATOM      8  C   UNL     1      44.261   4.001  10.514  0.00  0.00    +0.000 C 
ATOM      9  O   UNL     1      43.200   3.533  10.914  0.00  0.00    +0.000 OA
ATOM     10  N   UNL     1      45.305   4.313  11.359  0.00  0.00    +0.000 N 
ATOM     11  H   UNL     1      46.220   4.519  10.980  0.00  0.00    +0.000 HD
BRANCH   8  15
ATOM     12  N   UNL     1      45.692   2.922   7.381  0.00  0.00    +0.000 NA
ATOM     13  C   UNL     1      46.225   4.299   7.381  0.00  0.00    +0.000 C 
ATOM     14  C   UNL     1      45.957   4.812   8.785  0.00  0.00    +0.000 C 
ATOM     15  C   UNL     1      44.559   4.278   9.054  0.00  0.00    +0.000 C 
ATOM     16  C   UNL     1      44.476   2.999   8.216  0.00  0.00    +0.000 C 
BRANCH  12  17
ATOM     17  C   UNL     1      46.688   1.975   7.936  0.00  0.00    +0.000 C 
BRANCH  17  18
ATOM     18  C   UNL     1      47.365   1.085   6.867  0.00  0.00    +0.000 C 
BRANCH  18  19
ATOM     19  N   UNL     1      48.358   1.828   6.086  0.00  0.00    +0.000 NA
ATOM     20  H   UNL     1      48.251   1.584   5.102  0.00  0.00    +0.000 HD
ATOM     21  H   UNL     1      49.294   1.521   6.352  0.00  0.00    +0.000 HD
ENDBRANCH  18  19
ENDBRANCH  17  18
ENDBRANCH  12  17
ENDBRANCH   8  15
ENDBRANCH   7  10
ENDBRANCH   1   7
BRANCH   4  22
ATOM     22  C   UNL     1      49.277   6.929  15.837  0.00  0.00    +0.000 C 
BRANCH  22  23
ATOM     23  N   UNL     1      50.295   6.042  16.349  0.00  0.00    +0.000 N 
ATOM     24  C   UNL     1      50.260   5.595  17.646  0.00  0.00    +0.000 C 
ATOM     25  O   UNL     1      49.344   5.886  18.411  0.00  0.00    +0.000 OA
ATOM     26  H   UNL     1      51.170   6.002  15.836  0.00  0.00    +0.000 HD
BRANCH  24  27
ATOM     27  C   UNL     1      51.348   4.699  18.062  0.00  0.00    +0.000 A 
ATOM     28  C   UNL     1      52.439   5.211  18.753  0.00  0.00    +0.000 A 
ATOM     29  S   UNL     1      53.595   4.032  19.181  0.00  0.00    +0.000 S 
ATOM     30  C   UNL     1      52.703   2.799  18.417  0.00  0.00    +0.000 A 
ATOM     31  N   UNL     1      53.161   1.521  18.381  0.00  0.00    +0.000 NA
ATOM     32  C   UNL     1      52.397   0.696  17.748  0.00  0.00    +0.000 A 
ATOM     33  N   UNL     1      51.203   1.035  17.156  0.00  0.00    +0.000 N 
ATOM     34  C   UNL     1      50.688   2.308  17.191  0.00  0.00    +0.000 A 
ATOM     35  O   UNL     1      49.598   2.566  16.695  0.00  0.00    +0.000 OA
ATOM     36  C   UNL     1      51.522   3.278  17.870  0.00  0.00    +0.000 A 
ATOM     37  H   UNL     1      50.647   0.336  16.688  0.00  0.00    +0.000 HD
ENDBRANCH  24  27
ENDBRANCH  22  23
ENDBRANCH   4  22
TORSDOF 9
ENDMDL
MODEL 2
REMARK VINA RESULT:    -7.044      3.349      9.628
REMARK INTER + INTRA:         -11.472
REMARK INTER:                 -10.041
REMARK INTRA:                  -1.431
REMARK UNBOUND:                -0.927
REMARK  Name = 
REMARK  9 active torsions:
REMARK  status: ('A' for Active; 'I' for Inactive)
REMARK    1  A    between atoms: N_1  and  C_2
REMARK    2  A    between atoms: C_2  and  C_3
REMARK    3  A    between atoms: C_3  and  N_4
REMARK    4  A    between atoms: C_7  and  C_8
REMARK    5  A    between atoms: N_10  and  C_11
REMARK    6  A    between atoms: C_11  and  C_12
REMARK    7  A    between atoms: C_15  and  C_16
REMARK    8  A    between atoms: C_16  and  N_17
REMARK    9  A    between atoms: C_18  and  C_20
REMARK                            x       y       z     vdW  Elec       q    Type
REMARK                         _______ _______ _______ _____ _____    ______ ____
ROOT
ATOM      1  C   UNL     1      50.782   7.677  15.037  0.00  0.00    +0.000 A 
ATOM      2  C   UNL     1      49.545   7.023  15.120  0.00  0.00    +0.000 A 
ATOM      3  C   UNL     1      48.629   7.090  14.063  0.00  0.00    +0.000 A 
ATOM      4  C   UNL     1      48.943   7.795  12.892  0.00  0.00    +0.000 A 
ATOM      5  C   UNL     1      50.189   8.429  12.803  0.00  0.00    +0.000 A 
ATOM      6  C   UNL     1      51.103   8.360  13.857  0.00  0.00    +0.000 A 
ENDROOT
BRANCH   1   7
ATOM      7  C   UNL     1      51.756   7.644  16.183  0.00  0.00    +0.000 C 
BRANCH   7  10
ATOM      8  C   UNL     1      51.900   5.673  17.630  0.00  0.00    +0.000 C 
ATOM      9  O   UNL     1      52.897   5.258  17.050  0.00  0.00    +0.000 OA
ATOM     10  N   UNL     1      51.263   6.844  17.276  0.00  0.00    +0.000 N 
ATOM     11  H   UNL     1      50.347   7.056  17.651  0.00  0.00    +0.000 HD
BRANCH   8  15
ATOM     12  N   UNL     1      48.943   4.210  19.095  0.00  0.00    +0.000 NA
ATOM     13  C   UNL     1      49.416   4.941  20.287  0.00  0.00    +0.000 C 
ATOM     14  C   UNL     1      50.507   5.858  19.764  0.00  0.00    +0.000 C 
ATOM     15  C   UNL     1      51.241   4.951  18.788  0.00  0.00    +0.000 C 
ATOM     16  C   UNL     1      50.165   3.977  18.297  0.00  0.00    +0.000 C 
BRANCH  12  17
ATOM     17  C   UNL     1      47.940   5.011  18.354  0.00  0.00    +0.000 C 
BRANCH  17  18
ATOM     18  C   UNL     1      47.174   4.208  17.276  0.00  0.00    +0.000 C 
BRANCH  18  19
ATOM     19  N   UNL     1      46.776   2.884  17.761  0.00  0.00    +0.000 NA
ATOM     20  H   UNL     1      46.903   2.853  18.772  0.00  0.00    +0.000 HD
ATOM     21  H   UNL     1      47.408   2.181  17.377  0.00  0.00    +0.000 HD
ENDBRANCH  18  19
ENDBRANCH  17  18
ENDBRANCH  12  17
ENDBRANCH   8  15
ENDBRANCH   7  10
ENDBRANCH   1   7
BRANCH   4  22
ATOM     22  C   UNL     1      47.955   7.917  11.757  0.00  0.00    +0.000 C 
BRANCH  22  23
ATOM     23  N   UNL     1      47.140   6.732  11.635  0.00  0.00    +0.000 N 
ATOM     24  C   UNL     1      45.771   6.803  11.697  0.00  0.00    +0.000 C 
ATOM     25  O   UNL     1      45.178   7.873  11.810  0.00  0.00    +0.000 OA
ATOM     26  H   UNL     1      47.596   5.840  11.801  0.00  0.00    +0.000 HD
BRANCH  24  27
ATOM     27  C   UNL     1      45.040   5.535  11.565  0.00  0.00    +0.000 A 
ATOM     28  C   UNL     1      44.265   5.071  12.620  0.00  0.00    +0.000 A 
ATOM     29  S   UNL     1      43.466   3.600  12.288  0.00  0.00    +0.000 S 
ATOM     30  C   UNL     1      44.165   3.505  10.739  0.00  0.00    +0.000 A 
ATOM     31  N   UNL     1      43.920   2.446   9.923  0.00  0.00    +0.000 NA
ATOM     32  C   UNL     1      44.534   2.491   8.790  0.00  0.00    +0.000 A 
ATOM     33  N   UNL     1      45.366   3.511   8.391  0.00  0.00    +0.000 N 
ATOM     34  C   UNL     1      45.621   4.613   9.172  0.00  0.00    +0.000 A 
ATOM     35  O   UNL     1      46.329   5.528   8.768  0.00  0.00    +0.000 OA
ATOM     36  C   UNL     1      44.973   4.598  10.467  0.00  0.00    +0.000 A 
ATOM     37  H   UNL     1      45.805   3.491   7.484  0.00  0.00    +0.000 HD
ENDBRANCH  24  27
ENDBRANCH  22  23
ENDBRANCH   4  22
TORSDOF 9
ENDMDL
MODEL 3
REMARK VINA RESULT:    -6.952      3.868     10.232
REMARK INTER + INTRA:         -11.333
REMARK INTER:                 -10.069
REMARK INTRA:                  -1.264
REMARK UNBOUND:                -0.927
REMARK  Name = 
REMARK  9 active torsions:
REMARK  status: ('A' for Active; 'I' for Inactive)
REMARK    1  A    between atoms: N_1  and  C_2
REMARK    2  A    between atoms: C_2  and  C_3
REMARK    3  A    between atoms: C_3  and  N_4
REMARK    4  A    between atoms: C_7  and  C_8
REMARK    5  A    between atoms: N_10  and  C_11
REMARK    6  A    between atoms: C_11  and  C_12
REMARK    7  A    between atoms: C_15  and  C_16
REMARK    8  A    between atoms: C_16  and  N_17
REMARK    9  A    between atoms: C_18  and  C_20
REMARK                            x       y       z     vdW  Elec       q    Type
REMARK                         _______ _______ _______ _____ _____    ______ ____
ROOT
ATOM      1  C   UNL     1      51.633   2.852  17.701  0.00  0.00    +0.000 A 
ATOM      2  C   UNL     1      51.035   4.051  18.114  0.00  0.00    +0.000 A 
ATOM      3  C   UNL     1      49.663   4.265  17.930  0.00  0.00    +0.000 A 
ATOM      4  C   UNL     1      48.858   3.274  17.350  0.00  0.00    +0.000 A 
ATOM      5  C   UNL     1      49.455   2.068  16.959  0.00  0.00    +0.000 A 
ATOM      6  C   UNL     1      50.823   1.854  17.144  0.00  0.00    +0.000 A 
ENDROOT
BRANCH   1   7
ATOM      7  C   UNL     1      53.112   2.628  17.859  0.00  0.00    +0.000 C 
BRANCH   7  10
ATOM      8  C   UNL     1      54.436   0.602  18.229  0.00  0.00    +0.000 C 
ATOM      9  O   UNL     1      55.169   0.846  17.277  0.00  0.00    +0.000 OA
ATOM     10  N   UNL     1      53.391   1.422  18.598  0.00  0.00    +0.000 N 
ATOM     11  H   UNL     1      52.702   1.098  19.264  0.00  0.00    +0.000 HD
BRANCH   8  15
ATOM     12  N   UNL     1      55.210  -2.910  18.539  0.00  0.00    +0.000 NA
ATOM     13  C   UNL     1      53.990  -2.900  19.370  0.00  0.00    +0.000 C 
ATOM     14  C   UNL     1      53.362  -1.543  19.110  0.00  0.00    +0.000 C 
ATOM     15  C   UNL     1      54.578  -0.629  19.103  0.00  0.00    +0.000 C 
ATOM     16  C   UNL     1      55.721  -1.526  18.619  0.00  0.00    +0.000 C 
BRANCH  12  17
ATOM     17  C   UNL     1      54.891  -3.305  17.147  0.00  0.00    +0.000 C 
BRANCH  17  18
ATOM     18  C   UNL     1      55.422  -2.318  16.081  0.00  0.00    +0.000 C 
BRANCH  18  19
ATOM     19  N   UNL     1      54.336  -1.577  15.434  0.00  0.00    +0.000 NA
ATOM     20  H   UNL     1      53.874  -0.995  16.131  0.00  0.00    +0.000 HD
ATOM     21  H   UNL     1      53.628  -2.235  15.106  0.00  0.00    +0.000 HD
ENDBRANCH  18  19
ENDBRANCH  17  18
ENDBRANCH  12  17
ENDBRANCH   8  15
ENDBRANCH   7  10
ENDBRANCH   1   7
BRANCH   4  22
ATOM     22  C   UNL     1      47.387   3.499  17.102  0.00  0.00    +0.000 C 
BRANCH  22  23
ATOM     23  N   UNL     1      47.167   4.516  16.102  0.00  0.00    +0.000 N 
ATOM     24  C   UNL     1      47.175   4.209  14.764  0.00  0.00    +0.000 C 
ATOM     25  O   UNL     1      47.320   3.058  14.360  0.00  0.00    +0.000 OA
ATOM     26  H   UNL     1      47.305   5.480  16.388  0.00  0.00    +0.000 HD
BRANCH  24  27
ATOM     27  C   UNL     1      46.945   5.322  13.832  0.00  0.00    +0.000 A 
ATOM     28  C   UNL     1      47.937   6.273  13.633  0.00  0.00    +0.000 A 
ATOM     29  S   UNL     1      47.514   7.478  12.502  0.00  0.00    +0.000 S 
ATOM     30  C   UNL     1      45.969   6.800  12.272  0.00  0.00    +0.000 A 
ATOM     31  N   UNL     1      45.066   7.378  11.438  0.00  0.00    +0.000 NA
ATOM     32  C   UNL     1      43.929   6.774  11.379  0.00  0.00    +0.000 A 
ATOM     33  N   UNL     1      43.615   5.629  12.074  0.00  0.00    +0.000 N 
ATOM     34  C   UNL     1      44.505   4.995  12.907  0.00  0.00    +0.000 A 
ATOM     35  O   UNL     1      44.211   3.950  13.474  0.00  0.00    +0.000 OA
ATOM     36  C   UNL     1      45.792   5.651  13.026  0.00  0.00    +0.000 A 
ATOM     37  H   UNL     1      42.710   5.198  11.971  0.00  0.00    +0.000 HD
ENDBRANCH  24  27
ENDBRANCH  22  23
ENDBRANCH   4  22
TORSDOF 9
ENDMDL
MODEL 4
REMARK VINA RESULT:    -6.849      5.728      7.936
REMARK INTER + INTRA:         -11.179
REMARK INTER:                  -9.542
REMARK INTRA:                  -1.638
REMARK UNBOUND:                -0.927
REMARK  Name = 
REMARK  9 active torsions:
REMARK  status: ('A' for Active; 'I' for Inactive)
REMARK    1  A    between atoms: N_1  and  C_2
REMARK    2  A    between atoms: C_2  and  C_3
REMARK    3  A    between atoms: C_3  and  N_4
REMARK    4  A    between atoms: C_7  and  C_8
REMARK    5  A    between atoms: N_10  and  C_11
REMARK    6  A    between atoms: C_11  and  C_12
REMARK    7  A    between atoms: C_15  and  C_16
REMARK    8  A    between atoms: C_16  and  N_17
REMARK    9  A    between atoms: C_18  and  C_20
REMARK                            x       y       z     vdW  Elec       q    Type
REMARK                         _______ _______ _______ _____ _____    ______ ____
ROOT
ATOM      1  C   UNL     1      48.591   6.767  13.563  0.00  0.00    +0.000 A 
ATOM      2  C   UNL     1      49.614   7.375  14.305  0.00  0.00    +0.000 A 
ATOM      3  C   UNL     1      50.599   8.141  13.669  0.00  0.00    +0.000 A 
ATOM      4  C   UNL     1      50.568   8.332  12.280  0.00  0.00    +0.000 A 
ATOM      5  C   UNL     1      49.532   7.741  11.545  0.00  0.00    +0.000 A 
ATOM      6  C   UNL     1      48.548   6.979  12.179  0.00  0.00    +0.000 A 
ENDROOT
BRANCH   1   7
ATOM      7  C   UNL     1      47.551   5.911  14.232  0.00  0.00    +0.000 C 
BRANCH   7  10
ATOM      8  C   UNL     1      46.303   4.045  13.254  0.00  0.00    +0.000 C 
ATOM      9  O   UNL     1      46.817   3.235  14.018  0.00  0.00    +0.000 OA
ATOM     10  N   UNL     1      46.600   5.391  13.282  0.00  0.00    +0.000 N 
ATOM     11  H   UNL     1      46.301   5.992  12.525  0.00  0.00    +0.000 HD
BRANCH   8  15
ATOM     12  N   UNL     1      43.826   5.056  10.831  0.00  0.00    +0.000 NA
ATOM     13  C   UNL     1      43.075   3.934  11.427  0.00  0.00    +0.000 C 
ATOM     14  C   UNL     1      43.860   3.571  12.675  0.00  0.00    +0.000 C 
ATOM     15  C   UNL     1      45.296   3.668  12.185  0.00  0.00    +0.000 C 
ATOM     16  C   UNL     1      45.244   4.721  11.074  0.00  0.00    +0.000 C 
BRANCH  12  17
ATOM     17  C   UNL     1      43.442   6.339  11.467  0.00  0.00    +0.000 C 
BRANCH  17  18
ATOM     18  C   UNL     1      44.539   7.426  11.392  0.00  0.00    +0.000 C 
BRANCH  18  19
ATOM     19  N   UNL     1      44.913   7.917  12.721  0.00  0.00    +0.000 NA
ATOM     20  H   UNL     1      45.317   8.848  12.625  0.00  0.00    +0.000 HD
ATOM     21  H   UNL     1      45.653   7.328  13.102  0.00  0.00    +0.000 HD
ENDBRANCH  18  19
ENDBRANCH  17  18
ENDBRANCH  12  17
ENDBRANCH   8  15
ENDBRANCH   7  10
ENDBRANCH   1   7
BRANCH   4  22
ATOM     22  C   UNL     1      51.643   9.117  11.569  0.00  0.00    +0.000 C 
BRANCH  22  23
ATOM     23  N   UNL     1      51.942   8.552  10.275  0.00  0.00    +0.000 N 
ATOM     24  C   UNL     1      53.043   8.956   9.562  0.00  0.00    +0.000 C 
ATOM     25  O   UNL     1      53.844   9.774  10.007  0.00  0.00    +0.000 OA
ATOM     26  H   UNL     1      51.182   8.087   9.788  0.00  0.00    +0.000 HD
BRANCH  24  27
ATOM     27  C   UNL     1      53.250   8.318   8.254  0.00  0.00    +0.000 A 
ATOM     28  C   UNL     1      53.226   9.087   7.098  0.00  0.00    +0.000 A 
ATOM     29  S   UNL     1      53.510   8.192   5.673  0.00  0.00    +0.000 S 
ATOM     30  C   UNL     1      53.628   6.734   6.545  0.00  0.00    +0.000 A 
ATOM     31  N   UNL     1      53.832   5.551   5.909  0.00  0.00    +0.000 NA
ATOM     32  C   UNL     1      53.876   4.525   6.689  0.00  0.00    +0.000 A 
ATOM     33  N   UNL     1      53.745   4.577   8.057  0.00  0.00    +0.000 N 
ATOM     34  C   UNL     1      53.565   5.753   8.744  0.00  0.00    +0.000 A 
ATOM     35  O   UNL     1      53.500   5.771   9.968  0.00  0.00    +0.000 OA
ATOM     36  C   UNL     1      53.484   6.935   7.909  0.00  0.00    +0.000 A 
ATOM     37  H   UNL     1      53.803   3.737   8.610  0.00  0.00    +0.000 HD
ENDBRANCH  24  27
ENDBRANCH  22  23
ENDBRANCH   4  22
TORSDOF 9
ENDMDL
MODEL 5
REMARK VINA RESULT:    -6.733      3.194      9.688
REMARK INTER + INTRA:         -11.005
REMARK INTER:                  -9.757
REMARK INTRA:                  -1.248
REMARK UNBOUND:                -0.927
REMARK  Name = 
REMARK  9 active torsions:
REMARK  status: ('A' for Active; 'I' for Inactive)
REMARK    1  A    between atoms: N_1  and  C_2
REMARK    2  A    between atoms: C_2  and  C_3
REMARK    3  A    between atoms: C_3  and  N_4
REMARK    4  A    between atoms: C_7  and  C_8
REMARK    5  A    between atoms: N_10  and  C_11
REMARK    6  A    between atoms: C_11  and  C_12
REMARK    7  A    between atoms: C_15  and  C_16
REMARK    8  A    between atoms: C_16  and  N_17
REMARK    9  A    between atoms: C_18  and  C_20
REMARK                            x       y       z     vdW  Elec       q    Type
REMARK                         _______ _______ _______ _____ _____    ______ ____
ROOT
ATOM      1  C   UNL     1      48.842   7.957  16.129  0.00  0.00    +0.000 A 
ATOM      2  C   UNL     1      48.366   9.119  15.505  0.00  0.00    +0.000 A 
ATOM      3  C   UNL     1      47.874   9.075  14.194  0.00  0.00    +0.000 A 
ATOM      4  C   UNL     1      47.828   7.863  13.490  0.00  0.00    +0.000 A 
ATOM      5  C   UNL     1      48.285   6.701  14.125  0.00  0.00    +0.000 A 
ATOM      6  C   UNL     1      48.773   6.744  15.432  0.00  0.00    +0.000 A 
ENDROOT
BRANCH   1   7
ATOM      7  C   UNL     1      49.408   8.001  17.522  0.00  0.00    +0.000 C 
BRANCH   7  10
ATOM      8  C   UNL     1      51.551   7.221  18.415  0.00  0.00    +0.000 C 
ATOM      9  O   UNL     1      51.821   8.326  18.871  0.00  0.00    +0.000 OA
ATOM     10  N   UNL     1      50.382   6.959  17.732  0.00  0.00    +0.000 N 
ATOM     11  H   UNL     1      50.279   6.095  17.216  0.00  0.00    +0.000 HD
BRANCH   8  15
ATOM     12  N   UNL     1      52.157   3.713  17.818  0.00  0.00    +0.000 NA
ATOM     13  C   UNL     1      52.637   3.764  19.213  0.00  0.00    +0.000 C 
ATOM     14  C   UNL     1      52.181   5.119  19.724  0.00  0.00    +0.000 C 
ATOM     15  C   UNL     1      52.467   6.019  18.532  0.00  0.00    +0.000 C 
ATOM     16  C   UNL     1      52.328   5.093  17.319  0.00  0.00    +0.000 C 
BRANCH  12  17
ATOM     17  C   UNL     1      50.742   3.275  17.767  0.00  0.00    +0.000 C 
BRANCH  17  18
ATOM     18  C   UNL     1      50.556   1.824  17.264  0.00  0.00    +0.000 C 
BRANCH  18  19
ATOM     19  N   UNL     1      49.769   1.772  16.029  0.00  0.00    +0.000 NA
ATOM     20  H   UNL     1      49.790   0.819  15.667  0.00  0.00    +0.000 HD
ATOM     21  H   UNL     1      50.218   2.351  15.319  0.00  0.00    +0.000 HD
ENDBRANCH  18  19
ENDBRANCH  17  18
ENDBRANCH  12  17
ENDBRANCH   8  15
ENDBRANCH   7  10
ENDBRANCH   1   7
BRANCH   4  22
ATOM     22  C   UNL     1      47.343   7.800  12.063  0.00  0.00    +0.000 C 
BRANCH  22  23
ATOM     23  N   UNL     1      46.697   6.542  11.779  0.00  0.00    +0.000 N 
ATOM     24  C   UNL     1      45.329   6.440  11.735  0.00  0.00    +0.000 C 
ATOM     25  O   UNL     1      44.597   7.416  11.887  0.00  0.00    +0.000 OA
ATOM     26  H   UNL     1      47.250   5.700  11.907  0.00  0.00    +0.000 HD
BRANCH  24  27
ATOM     27  C   UNL     1      44.776   5.110  11.441  0.00  0.00    +0.000 A 
ATOM     28  C   UNL     1      44.024   4.446  12.401  0.00  0.00    +0.000 A 
ATOM     29  S   UNL     1      43.439   2.929  11.886  0.00  0.00    +0.000 S 
ATOM     30  C   UNL     1      44.211   3.081  10.376  0.00  0.00    +0.000 A 
ATOM     31  N   UNL     1      44.142   2.090   9.450  0.00  0.00    +0.000 NA
ATOM     32  C   UNL     1      44.793   2.328   8.362  0.00  0.00    +0.000 A 
ATOM     33  N   UNL     1      45.501   3.480   8.111  0.00  0.00    +0.000 N 
ATOM     34  C   UNL     1      45.575   4.519   9.007  0.00  0.00    +0.000 A 
ATOM     35  O   UNL     1      46.174   5.553   8.733  0.00  0.00    +0.000 OA
ATOM     36  C   UNL     1      44.879   4.290  10.257  0.00  0.00    +0.000 A 
ATOM     37  H   UNL     1      45.977   3.609   7.232  0.00  0.00    +0.000 HD
ENDBRANCH  24  27
ENDBRANCH  22  23
ENDBRANCH   4  22
TORSDOF 9
ENDMDL
MODEL 6
REMARK VINA RESULT:    -6.644      4.033      9.268
REMARK INTER + INTRA:         -10.872
REMARK INTER:                  -9.561
REMARK INTRA:                  -1.311
REMARK UNBOUND:                -0.927
REMARK  Name = 
REMARK  9 active torsions:
REMARK  status: ('A' for Active; 'I' for Inactive)
REMARK    1  A    between atoms: N_1  and  C_2
REMARK    2  A    between atoms: C_2  and  C_3
REMARK    3  A    between atoms: C_3  and  N_4
REMARK    4  A    between atoms: C_7  and  C_8
REMARK    5  A    between atoms: N_10  and  C_11
REMARK    6  A    between atoms: C_11  and  C_12
REMARK    7  A    between atoms: C_15  and  C_16
REMARK    8  A    between atoms: C_16  and  N_17
REMARK    9  A    between atoms: C_18  and  C_20
REMARK                            x       y       z     vdW  Elec       q    Type
REMARK                         _______ _______ _______ _____ _____    ______ ____
ROOT
ATOM      1  C   UNL     1      51.446   4.032  17.698  0.00  0.00    +0.000 A 
ATOM      2  C   UNL     1      50.561   5.118  17.658  0.00  0.00    +0.000 A 
ATOM      3  C   UNL     1      49.206   4.925  17.363  0.00  0.00    +0.000 A 
ATOM      4  C   UNL     1      48.705   3.637  17.124  0.00  0.00    +0.000 A 
ATOM      5  C   UNL     1      49.588   2.552  17.185  0.00  0.00    +0.000 A 
ATOM      6  C   UNL     1      50.939   2.744  17.482  0.00  0.00    +0.000 A 
ENDROOT
BRANCH   1   7
ATOM      7  C   UNL     1      52.911   4.233  17.975  0.00  0.00    +0.000 C 
BRANCH   7  10
ATOM      8  C   UNL     1      54.075   6.332  17.487  0.00  0.00    +0.000 C 
ATOM      9  O   UNL     1      54.108   6.647  18.671  0.00  0.00    +0.000 OA
ATOM     10  N   UNL     1      53.505   5.158  17.042  0.00  0.00    +0.000 N 
ATOM     11  H   UNL     1      53.333   5.020  16.055  0.00  0.00    +0.000 HD
BRANCH   8  15
ATOM     12  N   UNL     1      53.521   8.624  14.754  0.00  0.00    +0.000 NA
ATOM     13  C   UNL     1      54.496   7.743  14.081  0.00  0.00    +0.000 C 
ATOM     14  C   UNL     1      54.621   6.540  15.000  0.00  0.00    +0.000 C 
ATOM     15  C   UNL     1      54.639   7.192  16.374  0.00  0.00    +0.000 C 
ATOM     16  C   UNL     1      53.821   8.475  16.193  0.00  0.00    +0.000 C 
BRANCH  12  17
ATOM     17  C   UNL     1      52.134   8.211  14.430  0.00  0.00    +0.000 C 
BRANCH  17  18
ATOM     18  C   UNL     1      51.590   8.827  13.120  0.00  0.00    +0.000 C 
BRANCH  18  19
ATOM     19  N   UNL     1      51.096   7.801  12.198  0.00  0.00    +0.000 NA
ATOM     20  H   UNL     1      50.139   8.030  11.935  0.00  0.00    +0.000 HD
ATOM     21  H   UNL     1      51.047   6.906  12.685  0.00  0.00    +0.000 HD
ENDBRANCH  18  19
ENDBRANCH  17  18
ENDBRANCH  12  17
ENDBRANCH   8  15
ENDBRANCH   7  10
ENDBRANCH   1   7
BRANCH   4  22
ATOM     22  C   UNL     1      47.257   3.410  16.761  0.00  0.00    +0.000 C 
BRANCH  22  23
ATOM     23  N   UNL     1      46.789   4.391  15.813  0.00  0.00    +0.000 N 
ATOM     24  C   UNL     1      46.862   4.163  14.462  0.00  0.00    +0.000 C 
ATOM     25  O   UNL     1      47.281   3.105  14.000  0.00  0.00    +0.000 OA
ATOM     26  H   UNL     1      46.687   5.344  16.148  0.00  0.00    +0.000 HD
BRANCH  24  27
ATOM     27  C   UNL     1      46.359   5.232  13.586  0.00  0.00    +0.000 A 
ATOM     28  C   UNL     1      47.129   6.368  13.369  0.00  0.00    +0.000 A 
ATOM     29  S   UNL     1      46.408   7.492  12.309  0.00  0.00    +0.000 S 
ATOM     30  C   UNL     1      45.018   6.525  12.137  0.00  0.00    +0.000 A 
ATOM     31  N   UNL     1      43.969   6.932  11.375  0.00  0.00    +0.000 NA
ATOM     32  C   UNL     1      42.973   6.113  11.354  0.00  0.00    +0.000 A 
ATOM     33  N   UNL     1      42.936   4.911  12.021  0.00  0.00    +0.000 N 
ATOM     34  C   UNL     1      43.982   4.446  12.780  0.00  0.00    +0.000 A 
ATOM     35  O   UNL     1      43.937   3.348  13.322  0.00  0.00    +0.000 OA
ATOM     36  C   UNL     1      45.118   5.343  12.856  0.00  0.00    +0.000 A 
ATOM     37  H   UNL     1      42.130   4.309  11.950  0.00  0.00    +0.000 HD
ENDBRANCH  24  27
ENDBRANCH  22  23
ENDBRANCH   4  22
TORSDOF 9
ENDMDL
MODEL 7
REMARK VINA RESULT:    -6.524      5.868      7.690
REMARK INTER + INTRA:         -10.692
REMARK INTER:                  -9.595
REMARK INTRA:                  -1.098
REMARK UNBOUND:                -0.927
REMARK  Name = 
REMARK  9 active torsions:
REMARK  status: ('A' for Active; 'I' for Inactive)
REMARK    1  A    between atoms: N_1  and  C_2
REMARK    2  A    between atoms: C_2  and  C_3
REMARK    3  A    between atoms: C_3  and  N_4
REMARK    4  A    between atoms: C_7  and  C_8
REMARK    5  A    between atoms: N_10  and  C_11
REMARK    6  A    between atoms: C_11  and  C_12
REMARK    7  A    between atoms: C_15  and  C_16
REMARK    8  A    between atoms: C_16  and  N_17
REMARK    9  A    between atoms: C_18  and  C_20
REMARK                            x       y       z     vdW  Elec       q    Type
REMARK                         _______ _______ _______ _____ _____    ______ ____
ROOT
ATOM      1  C   UNL     1      47.820   8.602  12.867  0.00  0.00    +0.000 A 
ATOM      2  C   UNL     1      48.729   9.378  13.600  0.00  0.00    +0.000 A 
ATOM      3  C   UNL     1      50.091   9.382  13.275  0.00  0.00    +0.000 A 
ATOM      4  C   UNL     1      50.567   8.625  12.194  0.00  0.00    +0.000 A 
ATOM      5  C   UNL     1      49.653   7.868  11.450  0.00  0.00    +0.000 A 
ATOM      6  C   UNL     1      48.295   7.867  11.773  0.00  0.00    +0.000 A 
ENDROOT
BRANCH   1   7
ATOM      7  C   UNL     1      46.362   8.562  13.233  0.00  0.00    +0.000 C 
BRANCH   7  10
ATOM      8  C   UNL     1      44.941   6.685  12.556  0.00  0.00    +0.000 C 
ATOM      9  O   UNL     1      44.450   7.325  11.633  0.00  0.00    +0.000 OA
ATOM     10  N   UNL     1      45.895   7.209  13.403  0.00  0.00    +0.000 N 
ATOM     11  H   UNL     1      46.137   6.721  14.256  0.00  0.00    +0.000 HD
BRANCH   8  15
ATOM     12  N   UNL     1      44.815   3.206  11.604  0.00  0.00    +0.000 NA
ATOM     13  C   UNL     1      43.439   3.320  12.125  0.00  0.00    +0.000 C 
ATOM     14  C   UNL     1      43.222   4.812  12.305  0.00  0.00    +0.000 C 
ATOM     15  C   UNL     1      44.555   5.257  12.886  0.00  0.00    +0.000 C 
ATOM     16  C   UNL     1      45.568   4.260  12.315  0.00  0.00    +0.000 C 
BRANCH  12  17
ATOM     17  C   UNL     1      44.836   3.403  10.135  0.00  0.00    +0.000 C 
BRANCH  17  18
ATOM     18  C   UNL     1      44.449   2.140   9.331  0.00  0.00    +0.000 C 
BRANCH  18  19
ATOM     19  N   UNL     1      45.628   1.434   8.821  0.00  0.00    +0.000 NA
ATOM     20  H   UNL     1      46.164   2.072   8.234  0.00  0.00    +0.000 HD
ATOM     21  H   UNL     1      45.328   0.675   8.209  0.00  0.00    +0.000 HD
ENDBRANCH  18  19
ENDBRANCH  17  18
ENDBRANCH  12  17
ENDBRANCH   8  15
ENDBRANCH   7  10
ENDBRANCH   1   7
BRANCH   4  22
ATOM     22  C   UNL     1      52.037   8.579  11.852  0.00  0.00    +0.000 C 
BRANCH  22  23
ATOM     23  N   UNL     1      52.251   8.132  10.497  0.00  0.00    +0.000 N 
ATOM     24  C   UNL     1      53.302   8.604   9.752  0.00  0.00    +0.000 C 
ATOM     25  O   UNL     1      54.129   9.387  10.213  0.00  0.00    +0.000 OA
ATOM     26  H   UNL     1      51.461   7.705  10.023  0.00  0.00    +0.000 HD
BRANCH  24  27
ATOM     27  C   UNL     1      53.424   8.084   8.382  0.00  0.00    +0.000 A 
ATOM     28  C   UNL     1      53.341   8.953   7.302  0.00  0.00    +0.000 A 
ATOM     29  S   UNL     1      53.528   8.187   5.790  0.00  0.00    +0.000 S 
ATOM     30  C   UNL     1      53.680   6.657   6.520  0.00  0.00    +0.000 A 
ATOM     31  N   UNL     1      53.831   5.534   5.770  0.00  0.00    +0.000 NA
ATOM     32  C   UNL     1      53.908   4.442   6.452  0.00  0.00    +0.000 A 
ATOM     33  N   UNL     1      53.859   4.373   7.825  0.00  0.00    +0.000 N 
ATOM     34  C   UNL     1      53.735   5.484   8.623  0.00  0.00    +0.000 A 
ATOM     35  O   UNL     1      53.743   5.392   9.846  0.00  0.00    +0.000 OA
ATOM     36  C   UNL     1      53.619   6.736   7.903  0.00  0.00    +0.000 A 
ATOM     37  H   UNL     1      53.940   3.486   8.297  0.00  0.00    +0.000 HD
ENDBRANCH  24  27
ENDBRANCH  22  23
ENDBRANCH   4  22
TORSDOF 9
ENDMDL
MODEL 8
REMARK VINA RESULT:    -6.502      3.171      5.500
REMARK INTER + INTRA:         -10.659
REMARK INTER:                  -9.429
REMARK INTRA:                  -1.230
REMARK UNBOUND:                -0.927
REMARK  Name = 
REMARK  9 active torsions:
REMARK  status: ('A' for Active; 'I' for Inactive)
REMARK    1  A    between atoms: N_1  and  C_2
REMARK    2  A    between atoms: C_2  and  C_3
REMARK    3  A    between atoms: C_3  and  N_4
REMARK    4  A    between atoms: C_7  and  C_8
REMARK    5  A    between atoms: N_10  and  C_11
REMARK    6  A    between atoms: C_11  and  C_12
REMARK    7  A    between atoms: C_15  and  C_16
REMARK    8  A    between atoms: C_16  and  N_17
REMARK    9  A    between atoms: C_18  and  C_20
REMARK                            x       y       z     vdW  Elec       q    Type
REMARK                         _______ _______ _______ _____ _____    ______ ____
ROOT
ATOM      1  C   UNL     1      48.735   3.275  17.241  0.00  0.00    +0.000 A 
ATOM      2  C   UNL     1      49.475   2.136  16.891  0.00  0.00    +0.000 A 
ATOM      3  C   UNL     1      50.841   2.053  17.187  0.00  0.00    +0.000 A 
ATOM      4  C   UNL     1      51.490   3.100  17.859  0.00  0.00    +0.000 A 
ATOM      5  C   UNL     1      50.743   4.227  18.226  0.00  0.00    +0.000 A 
ATOM      6  C   UNL     1      49.380   4.309  17.933  0.00  0.00    +0.000 A 
ENDROOT
BRANCH   1   7
ATOM      7  C   UNL     1      47.276   3.390  16.892  0.00  0.00    +0.000 C 
BRANCH   7  10
ATOM      8  C   UNL     1      47.008   4.372  14.665  0.00  0.00    +0.000 C 
ATOM      9  O   UNL     1      47.205   3.295  14.112  0.00  0.00    +0.000 OA
ATOM     10  N   UNL     1      47.023   4.522  16.035  0.00  0.00    +0.000 N 
ATOM     11  H   UNL     1      47.042   5.447  16.444  0.00  0.00    +0.000 HD
BRANCH   8  15
ATOM     12  N   UNL     1      45.539   6.076  11.842  0.00  0.00    +0.000 NA
ATOM     13  C   UNL     1      46.849   6.756  11.826  0.00  0.00    +0.000 C 
ATOM     14  C   UNL     1      47.711   5.946  12.779  0.00  0.00    +0.000 C 
ATOM     15  C   UNL     1      46.742   5.663  13.917  0.00  0.00    +0.000 C 
ATOM     16  C   UNL     1      45.366   5.643  13.244  0.00  0.00    +0.000 C 
BRANCH  12  17
ATOM     17  C   UNL     1      45.533   4.930  10.902  0.00  0.00    +0.000 C 
BRANCH  17  18
ATOM     18  C   UNL     1      44.811   3.677  11.451  0.00  0.00    +0.000 C 
BRANCH  18  19
ATOM     19  N   UNL     1      44.799   2.582  10.477  0.00  0.00    +0.000 NA
ATOM     20  H   UNL     1      45.656   2.039  10.583  0.00  0.00    +0.000 HD
ATOM     21  H   UNL     1      44.829   2.970   9.534  0.00  0.00    +0.000 HD
ENDBRANCH  18  19
ENDBRANCH  17  18
ENDBRANCH  12  17
ENDBRANCH   8  15
ENDBRANCH   7  10
ENDBRANCH   1   7
BRANCH   4  22
ATOM     22  C   UNL     1      52.970   3.051  18.149  0.00  0.00    +0.000 C 
BRANCH  22  23
ATOM     23  N   UNL     1      53.403   1.712  18.468  0.00  0.00    +0.000 N 
ATOM     24  C   UNL     1      54.673   1.467  18.927  0.00  0.00    +0.000 C 
ATOM     25  O   UNL     1      55.479   2.372  19.131  0.00  0.00    +0.000 OA
ATOM     26  H   UNL     1      52.865   0.947  18.072  0.00  0.00    +0.000 HD
BRANCH  24  27
ATOM     27  C   UNL     1      55.009   0.066  19.217  0.00  0.00    +0.000 A 
ATOM     28  C   UNL     1      55.455  -0.290  20.483  0.00  0.00    +0.000 A 
ATOM     29  S   UNL     1      55.774  -1.957  20.654  0.00  0.00    +0.000 S 
ATOM     30  C   UNL     1      55.374  -2.258  19.027  0.00  0.00    +0.000 A 
ATOM     31  N   UNL     1      55.470  -3.507  18.501  0.00  0.00    +0.000 NA
ATOM     32  C   UNL     1      55.160  -3.586  17.252  0.00  0.00    +0.000 A 
ATOM     33  N   UNL     1      54.749  -2.525  16.480  0.00  0.00    +0.000 N 
ATOM     34  C   UNL     1      54.611  -1.251  16.976  0.00  0.00    +0.000 A 
ATOM     35  O   UNL     1      54.196  -0.337  16.274  0.00  0.00    +0.000 OA
ATOM     36  C   UNL     1      54.972  -1.105  18.372  0.00  0.00    +0.000 A 
ATOM     37  H   UNL     1      54.507  -2.658  15.510  0.00  0.00    +0.000 HD
ENDBRANCH  24  27
ENDBRANCH  22  23
ENDBRANCH   4  22
TORSDOF 9
ENDMDL
MODEL 9
REMARK VINA RESULT:    -6.431      3.949      9.963
REMARK INTER + INTRA:         -10.553
REMARK INTER:                  -9.221
REMARK INTRA:                  -1.332
REMARK UNBOUND:                -0.927
REMARK  Name = 
REMARK  9 active torsions:
REMARK  status: ('A' for Active; 'I' for Inactive)
REMARK    1  A    between atoms: N_1  and  C_2
REMARK    2  A    between atoms: C_2  and  C_3
REMARK    3  A    between atoms: C_3  and  N_4
REMARK    4  A    between atoms: C_7  and  C_8
REMARK    5  A    between atoms: N_10  and  C_11
REMARK    6  A    between atoms: C_11  and  C_12
REMARK    7  A    between atoms: C_15  and  C_16
REMARK    8  A    between atoms: C_16  and  N_17
REMARK    9  A    between atoms: C_18  and  C_20
REMARK                            x       y       z     vdW  Elec       q    Type
REMARK                         _______ _______ _______ _____ _____    ______ ____
ROOT
ATOM      1  C   UNL     1      49.642   4.877  17.755  0.00  0.00    +0.000 A 
ATOM      2  C   UNL     1      50.287   6.078  17.427  0.00  0.00    +0.000 A 
ATOM      3  C   UNL     1      49.841   6.858  16.353  0.00  0.00    +0.000 A 
ATOM      4  C   UNL     1      48.727   6.462  15.599  0.00  0.00    +0.000 A 
ATOM      5  C   UNL     1      48.072   5.273  15.943  0.00  0.00    +0.000 A 
ATOM      6  C   UNL     1      48.515   4.496  17.015  0.00  0.00    +0.000 A 
ENDROOT
BRANCH   1   7
ATOM      7  C   UNL     1      50.138   4.013  18.882  0.00  0.00    +0.000 C 
BRANCH   7  10
ATOM      8  C   UNL     1      52.263   2.996  18.214  0.00  0.00    +0.000 C 
ATOM      9  O   UNL     1      51.699   2.146  17.533  0.00  0.00    +0.000 OA
ATOM     10  N   UNL     1      51.578   3.963  18.919  0.00  0.00    +0.000 N 
ATOM     11  H   UNL     1      52.060   4.524  19.609  0.00  0.00    +0.000 HD
BRANCH   8  15
ATOM     12  N   UNL     1      55.443   1.324  18.562  0.00  0.00    +0.000 NA
ATOM     13  C   UNL     1      55.633   2.336  19.620  0.00  0.00    +0.000 C 
ATOM     14  C   UNL     1      54.258   2.952  19.810  0.00  0.00    +0.000 C 
ATOM     15  C   UNL     1      53.768   3.079  18.376  0.00  0.00    +0.000 C 
ATOM     16  C   UNL     1      54.472   1.938  17.634  0.00  0.00    +0.000 C 
BRANCH  12  17
ATOM     17  C   UNL     1      54.936   0.055  19.138  0.00  0.00    +0.000 C 
BRANCH  17  18
ATOM     18  C   UNL     1      53.903  -0.667  18.242  0.00  0.00    +0.000 C 
BRANCH  18  19
ATOM     19  N   UNL     1      53.074  -1.601  19.008  0.00  0.00    +0.000 NA
ATOM     20  H   UNL     1      52.823  -1.166  19.895  0.00  0.00    +0.000 HD
ATOM     21  H   UNL     1      53.627  -2.425  19.246  0.00  0.00    +0.000 HD
ENDBRANCH  18  19
ENDBRANCH  17  18
ENDBRANCH  12  17
ENDBRANCH   8  15
ENDBRANCH   7  10
ENDBRANCH   1   7
BRANCH   4  22
ATOM     22  C   UNL     1      48.255   7.264  14.410  0.00  0.00    +0.000 C 
BRANCH  22  23
ATOM     23  N   UNL     1      47.024   6.739  13.873  0.00  0.00    +0.000 N 
ATOM     24  C   UNL     1      46.745   6.817  12.531  0.00  0.00    +0.000 C 
ATOM     25  O   UNL     1      47.543   7.289  11.725  0.00  0.00    +0.000 OA
ATOM     26  H   UNL     1      46.262   6.589  14.527  0.00  0.00    +0.000 HD
BRANCH  24  27
ATOM     27  C   UNL     1      45.460   6.254  12.092  0.00  0.00    +0.000 A 
ATOM     28  C   UNL     1      44.493   7.084  11.541  0.00  0.00    +0.000 A 
ATOM     29  S   UNL     1      43.076   6.264  11.063  0.00  0.00    +0.000 S 
ATOM     30  C   UNL     1      43.683   4.774  11.620  0.00  0.00    +0.000 A 
ATOM     31  N   UNL     1      42.938   3.640  11.543  0.00  0.00    +0.000 NA
ATOM     32  C   UNL     1      43.511   2.590  12.024  0.00  0.00    +0.000 A 
ATOM     33  N   UNL     1      44.774   2.569  12.567  0.00  0.00    +0.000 N 
ATOM     34  C   UNL     1      45.573   3.684  12.641  0.00  0.00    +0.000 A 
ATOM     35  O   UNL     1      46.713   3.622  13.086  0.00  0.00    +0.000 OA
ATOM     36  C   UNL     1      44.964   4.898  12.134  0.00  0.00    +0.000 A 
ATOM     37  H   UNL     1      45.170   1.709  12.913  0.00  0.00    +0.000 HD
ENDBRANCH  24  27
ENDBRANCH  22  23
ENDBRANCH   4  22
TORSDOF 9
ENDMDL
