MODEL 1
REMARK VINA RESULT:    -8.110      0.000      0.000
REMARK INTER + INTRA:         -12.805
REMARK INTER:                 -11.666
REMARK INTRA:                  -1.139
REMARK UNBOUND:                -1.139
REMARK  Name = 
REMARK  8 active torsions:
REMARK  status: ('A' for Active; 'I' for Inactive)
REMARK    1  A    between atoms: N_1  and  C_2
REMARK    2  A    between atoms: C_2  and  C_3
REMARK    3  A    between atoms: C_3  and  N_4
REMARK    4  A    between atoms: C_3  and  C_17
REMARK    5  A    between atoms: C_5  and  C_7
REMARK    6  A    between atoms: C_20  and  O_21
REMARK    7  A    between atoms: O_21  and  C_22
REMARK    8  A    between atoms: C_22  and  C_23
REMARK                            x       y       z     vdW  Elec       q    Type
REMARK                         _______ _______ _______ _____ _____    ______ ____
ROOT
ATOM      1  C   UNL     1      47.806   6.778  13.534  0.00  0.00    +0.000 C 
ENDROOT
BRANCH   1   2
ATOM      2  C   UNL     1      46.841   5.909  12.729  0.00  0.00    +0.000 A 
ATOM      3  C   UNL     1      46.327   6.345  11.500  0.00  0.00    +0.000 A 
ATOM      4  C   UNL     1      45.466   5.522  10.762  0.00  0.00    +0.000 A 
ATOM      5  C   UNL     1      45.120   4.257  11.235  0.00  0.00    +0.000 A 
ATOM      6  C   UNL     1      45.597   3.833  12.474  0.00  0.00    +0.000 A 
ATOM      7  C   UNL     1      46.463   4.644  13.204  0.00  0.00    +0.000 A 
BRANCH   5   8
ATOM      8  O   UNL     1      44.326   3.506  10.411  0.00  0.00    +0.000 OA
BRANCH   8   9
ATOM      9  C   UNL     1      44.397   3.862   9.025  0.00  0.00    +0.000 C 
BRANCH   9  10
ATOM     10  C   UNL     1      45.445   3.055   8.298  0.00  0.00    +0.000 A 
ATOM     11  C   UNL     1      46.235   3.623   7.303  0.00  0.00    +0.000 A 
ATOM     12  C   UNL     1      47.175   2.826   6.657  0.00  0.00    +0.000 A 
ATOM     13  C   UNL     1      47.291   1.487   7.009  0.00  0.00    +0.000 A 
ATOM     14  C   UNL     1      46.454   0.992   7.992  0.00  0.00    +0.000 A 
ATOM     15  N   UNL     1      45.535   1.740   8.638  0.00  0.00    +0.000 NA
ENDBRANCH   9  10
ENDBRANCH   8   9
ENDBRANCH   5   8
ENDBRANCH   1   2
BRANCH   1  16
ATOM     16  N   UNL     1      47.793   6.301  14.913  0.00  0.00    +0.000 N 
ATOM     17  C   UNL     1      48.920   6.218  15.689  0.00  0.00    +0.000 C 
ATOM     18  O   UNL     1      50.006   6.665  15.334  0.00  0.00    +0.000 OA
ATOM     19  H   UNL     1      47.010   5.701  15.157  0.00  0.00    +0.000 HD
BRANCH  17  20
ATOM     20  C   UNL     1      48.751   5.605  17.009  0.00  0.00    +0.000 A 
ATOM     21  C   UNL     1      48.930   4.238  17.168  0.00  0.00    +0.000 A 
ATOM     22  S   UNL     1      48.647   3.695  18.760  0.00  0.00    +0.000 S 
ATOM     23  C   UNL     1      48.238   5.264  19.281  0.00  0.00    +0.000 A 
ATOM     24  N   UNL     1      47.829   5.496  20.556  0.00  0.00    +0.000 NA
ATOM     25  C   UNL     1      47.514   6.725  20.799  0.00  0.00    +0.000 A 
ATOM     26  N   UNL     1      47.595   7.748  19.889  0.00  0.00    +0.000 N 
ATOM     27  C   UNL     1      48.061   7.571  18.610  0.00  0.00    +0.000 A 
ATOM     28  O   UNL     1      48.226   8.518  17.852  0.00  0.00    +0.000 OA
ATOM     29  C   UNL     1      48.369   6.196  18.267  0.00  0.00    +0.000 A 
ATOM     30  H   UNL     1      47.371   8.696  20.154  0.00  0.00    +0.000 HD
ENDBRANCH  17  20
ENDBRANCH   1  16
BRANCH   1  31
ATOM     31  C   UNL     1      47.429   8.287  13.414  0.00  0.00    +0.000 C 
BRANCH  31  32
ATOM     32  N   UNL     1      47.140   8.946  14.698  0.00  0.00    +0.000 NA
ATOM     33  H   UNL     1      46.691   8.271  15.316  0.00  0.00    +0.000 HD
ATOM     34  H   UNL     1      46.462   9.695  14.552  0.00  0.00    +0.000 HD
ENDBRANCH  31  32
ENDBRANCH   1  31
TORSDOF 8
ENDMDL
MODEL 2
REMARK VINA RESULT:    -7.900      1.735      2.375
REMARK INTER + INTRA:         -12.504
REMARK INTER:                 -11.619
REMARK INTRA:                  -0.884
REMARK UNBOUND:                -1.139
REMARK  Name = 
REMARK  8 active torsions:
REMARK  status: ('A' for Active; 'I' for Inactive)
REMARK    1  A    between atoms: N_1  and  C_2
REMARK    2  A    between atoms: C_2  and  C_3
REMARK    3  A    between atoms: C_3  and  N_4
REMARK    4  A    between atoms: C_3  and  C_17
REMARK    5  A    between atoms: C_5  and  C_7
REMARK    6  A    between atoms: C_20  and  O_21
REMARK    7  A    between atoms: O_21  and  C_22
REMARK    8  A    between atoms: C_22  and  C_23
REMARK                            x       y       z     vdW  Elec       q    Type
REMARK                         _______ _______ _______ _____ _____    ______ ____
ROOT
ATOM      1  C   UNL     1      47.375   7.407  12.862  0.00  0.00    +0.000 C 
ENDROOT
BRANCH   1   2
ATOM      2  C   UNL     1      46.476   6.421  12.118  0.00  0.00    +0.000 A 
ATOM      3  C   UNL     1      46.216   6.567  10.749  0.00  0.00    +0.000 A 
ATOM      4  C   UNL     1      45.413   5.636  10.077  0.00  0.00    +0.000 A 
ATOM      5  C   UNL     1      44.871   4.548  10.760  0.00  0.00    +0.000 A 
ATOM      6  C   UNL     1      45.094   4.417  12.130  0.00  0.00    +0.000 A 
ATOM      7  C   UNL     1      45.902   5.334  12.798  0.00  0.00    +0.000 A 
BRANCH   5   8
ATOM      8  O   UNL     1      44.154   3.661  10.003  0.00  0.00    +0.000 OA
BRANCH   8   9
ATOM      9  C   UNL     1      44.770   2.376   9.845  0.00  0.00    +0.000 C 
BRANCH   9  10
ATOM     10  C   UNL     1      45.594   2.308   8.582  0.00  0.00    +0.000 A 
ATOM     11  C   UNL     1      45.576   3.342   7.650  0.00  0.00    +0.000 A 
ATOM     12  C   UNL     1      46.345   3.218   6.497  0.00  0.00    +0.000 A 
ATOM     13  C   UNL     1      47.096   2.065   6.299  0.00  0.00    +0.000 A 
ATOM     14  C   UNL     1      47.042   1.074   7.262  0.00  0.00    +0.000 A 
ATOM     15  N   UNL     1      46.309   1.167   8.391  0.00  0.00    +0.000 NA
ENDBRANCH   9  10
ENDBRANCH   8   9
ENDBRANCH   5   8
ENDBRANCH   1   2
BRANCH   1  16
ATOM     16  N   UNL     1      47.483   6.958  14.246  0.00  0.00    +0.000 N 
ATOM     17  C   UNL     1      48.683   6.751  14.877  0.00  0.00    +0.000 C 
ATOM     18  O   UNL     1      49.759   7.057  14.374  0.00  0.00    +0.000 OA
ATOM     19  H   UNL     1      46.672   6.462  14.605  0.00  0.00    +0.000 HD
BRANCH  17  20
ATOM     20  C   UNL     1      48.613   6.186  16.227  0.00  0.00    +0.000 A 
ATOM     21  C   UNL     1      48.968   6.961  17.322  0.00  0.00    +0.000 A 
ATOM     22  S   UNL     1      48.869   6.125  18.806  0.00  0.00    +0.000 S 
ATOM     23  C   UNL     1      48.387   4.689  18.029  0.00  0.00    +0.000 A 
ATOM     24  N   UNL     1      48.187   3.543  18.732  0.00  0.00    +0.000 NA
ATOM     25  C   UNL     1      47.863   2.524  18.007  0.00  0.00    +0.000 A 
ATOM     26  N   UNL     1      47.694   2.552  16.646  0.00  0.00    +0.000 N 
ATOM     27  C   UNL     1      47.824   3.701  15.905  0.00  0.00    +0.000 A 
ATOM     28  O   UNL     1      47.563   3.724  14.709  0.00  0.00    +0.000 OA
ATOM     29  C   UNL     1      48.250   4.861  16.663  0.00  0.00    +0.000 A 
ATOM     30  H   UNL     1      47.400   1.729  16.143  0.00  0.00    +0.000 HD
ENDBRANCH  17  20
ENDBRANCH   1  16
BRANCH   1  31
ATOM     31  C   UNL     1      46.825   8.862  12.741  0.00  0.00    +0.000 C 
BRANCH  31  32
ATOM     32  N   UNL     1      45.433   9.025  13.189  0.00  0.00    +0.000 NA
ATOM     33  H   UNL     1      45.429   9.588  14.038  0.00  0.00    +0.000 HD
ATOM     34  H   UNL     1      45.048   8.116  13.447  0.00  0.00    +0.000 HD
ENDBRANCH  31  32
ENDBRANCH   1  31
TORSDOF 8
ENDMDL
MODEL 3
REMARK VINA RESULT:    -7.682      2.831      4.875
REMARK INTER + INTRA:         -12.190
REMARK INTER:                 -10.777
REMARK INTRA:                  -1.414
REMARK UNBOUND:                -1.139
REMARK  Name = 
REMARK  8 active torsions:
REMARK  status: ('A' for Active; 'I' for Inactive)
REMARK    1  A    between atoms: N_1  and  C_2
REMARK    2  A    between atoms: C_2  and  C_3
REMARK    3  A    between atoms: C_3  and  N_4
REMARK    4  A    between atoms: C_3  and  C_17
REMARK    5  A    between atoms: C_5  and  C_7
REMARK    6  A    between atoms: C_20  and  O_21
REMARK    7  A    between atoms: O_21  and  C_22
REMARK    8  A    between atoms: C_22  and  C_23
REMARK                            x       y       z     vdW  Elec       q    Type
REMARK                         _______ _______ _______ _____ _____    ______ ____
ROOT
ATOM      1  C   UNL     1      46.942   5.595  14.195  0.00  0.00    +0.000 C 
ENDROOT
BRANCH   1   2
ATOM      2  C   UNL     1      46.224   5.081  12.949  0.00  0.00    +0.000 A 
ATOM      3  C   UNL     1      45.680   3.790  12.905  0.00  0.00    +0.000 A 
ATOM      4  C   UNL     1      44.999   3.347  11.764  0.00  0.00    +0.000 A 
ATOM      5  C   UNL     1      44.845   4.188  10.662  0.00  0.00    +0.000 A 
ATOM      6  C   UNL     1      45.416   5.460  10.683  0.00  0.00    +0.000 A 
ATOM      7  C   UNL     1      46.083   5.907  11.822  0.00  0.00    +0.000 A 
BRANCH   5   8
ATOM      8  O   UNL     1      44.110   3.686   9.622  0.00  0.00    +0.000 OA
BRANCH   8   9
ATOM      9  C   UNL     1      44.430   2.336   9.262  0.00  0.00    +0.000 C 
BRANCH   9  10
ATOM     10  C   UNL     1      45.559   2.281   8.262  0.00  0.00    +0.000 A 
ATOM     11  C   UNL     1      45.819   3.346   7.405  0.00  0.00    +0.000 A 
ATOM     12  C   UNL     1      46.864   3.234   6.494  0.00  0.00    +0.000 A 
ATOM     13  C   UNL     1      47.609   2.061   6.451  0.00  0.00    +0.000 A 
ATOM     14  C   UNL     1      47.273   1.040   7.321  0.00  0.00    +0.000 A 
ATOM     15  N   UNL     1      46.267   1.120   8.218  0.00  0.00    +0.000 NA
ENDBRANCH   9  10
ENDBRANCH   8   9
ENDBRANCH   5   8
ENDBRANCH   1   2
BRANCH   1  16
ATOM     16  N   UNL     1      48.130   6.322  13.760  0.00  0.00    +0.000 N 
ATOM     17  C   UNL     1      48.750   7.275  14.526  0.00  0.00    +0.000 C 
ATOM     18  O   UNL     1      48.438   7.497  15.691  0.00  0.00    +0.000 OA
ATOM     19  H   UNL     1      48.266   6.366  12.754  0.00  0.00    +0.000 HD
BRANCH  17  20
ATOM     20  C   UNL     1      49.858   7.993  13.891  0.00  0.00    +0.000 A 
ATOM     21  C   UNL     1      51.145   7.868  14.395  0.00  0.00    +0.000 A 
ATOM     22  S   UNL     1      52.297   8.809  13.560  0.00  0.00    +0.000 S 
ATOM     23  C   UNL     1      51.106   9.444  12.522  0.00  0.00    +0.000 A 
ATOM     24  N   UNL     1      51.417  10.378  11.585  0.00  0.00    +0.000 NA
ATOM     25  C   UNL     1      50.408  10.798  10.896  0.00  0.00    +0.000 A 
ATOM     26  N   UNL     1      49.120  10.350  11.042  0.00  0.00    +0.000 N 
ATOM     27  C   UNL     1      48.771   9.364  11.932  0.00  0.00    +0.000 A 
ATOM     28  O   UNL     1      47.637   8.906  11.967  0.00  0.00    +0.000 OA
ATOM     29  C   UNL     1      49.858   8.904  12.774  0.00  0.00    +0.000 A 
ATOM     30  H   UNL     1      48.382  10.690  10.444  0.00  0.00    +0.000 HD
ENDBRANCH  17  20
ENDBRANCH   1  16
BRANCH   1  31
ATOM     31  C   UNL     1      47.275   4.421  15.169  0.00  0.00    +0.000 C 
BRANCH  31  32
ATOM     32  N   UNL     1      47.241   4.786  16.593  0.00  0.00    +0.000 NA
ATOM     33  H   UNL     1      47.748   5.661  16.717  0.00  0.00    +0.000 HD
ATOM     34  H   UNL     1      47.745   4.085  17.138  0.00  0.00    +0.000 HD
ENDBRANCH  31  32
ENDBRANCH   1  31
TORSDOF 8
ENDMDL
MODEL 4
REMARK VINA RESULT:    -7.634      3.145      4.732
REMARK INTER + INTRA:         -12.120
REMARK INTER:                 -10.782
REMARK INTRA:                  -1.339
REMARK UNBOUND:                -1.139
REMARK  Name = 
REMARK  8 active torsions:
REMARK  status: ('A' for Active; 'I' for Inactive)
REMARK    1  A    between atoms: N_1  and  C_2
REMARK    2  A    between atoms: C_2  and  C_3
REMARK    3  A    between atoms: C_3  and  N_4
REMARK    4  A    between atoms: C_3  and  C_17
REMARK    5  A    between atoms: C_5  and  C_7
REMARK    6  A    between atoms: C_20  and  O_21
REMARK    7  A    between atoms: O_21  and  C_22
REMARK    8  A    between atoms: C_22  and  C_23
REMARK                            x       y       z     vdW  Elec       q    Type
REMARK                         _______ _______ _______ _____ _____    ______ ____
ROOT
ATOM      1  C   UNL     1      46.746   5.718  14.033  0.00  0.00    +0.000 C 
ENDROOT
BRANCH   1   2
ATOM      2  C   UNL     1      46.076   5.111  12.802  0.00  0.00    +0.000 A 
ATOM      3  C   UNL     1      45.598   3.793  12.813  0.00  0.00    +0.000 A 
ATOM      4  C   UNL     1      44.960   3.262  11.684  0.00  0.00    +0.000 A 
ATOM      5  C   UNL     1      44.783   4.042  10.541  0.00  0.00    +0.000 A 
ATOM      6  C   UNL     1      45.289   5.340  10.510  0.00  0.00    +0.000 A 
ATOM      7  C   UNL     1      45.913   5.874  11.636  0.00  0.00    +0.000 A 
BRANCH   5   8
ATOM      8  O   UNL     1      44.093   3.454   9.515  0.00  0.00    +0.000 OA
BRANCH   8   9
ATOM      9  C   UNL     1      44.538   2.136   9.173  0.00  0.00    +0.000 C 
BRANCH   9  10
ATOM     10  C   UNL     1      45.659   2.174   8.163  0.00  0.00    +0.000 A 
ATOM     11  C   UNL     1      45.834   3.267   7.318  0.00  0.00    +0.000 A 
ATOM     12  C   UNL     1      46.875   3.240   6.396  0.00  0.00    +0.000 A 
ATOM     13  C   UNL     1      47.700   2.124   6.330  0.00  0.00    +0.000 A 
ATOM     14  C   UNL     1      47.446   1.070   7.188  0.00  0.00    +0.000 A 
ATOM     15  N   UNL     1      46.446   1.067   8.095  0.00  0.00    +0.000 NA
ENDBRANCH   9  10
ENDBRANCH   8   9
ENDBRANCH   5   8
ENDBRANCH   1   2
BRANCH   1  16
ATOM     16  N   UNL     1      47.868   6.531  13.577  0.00  0.00    +0.000 N 
ATOM     17  C   UNL     1      47.822   7.899  13.503  0.00  0.00    +0.000 C 
ATOM     18  O   UNL     1      46.885   8.558  13.941  0.00  0.00    +0.000 OA
ATOM     19  H   UNL     1      48.538   6.050  12.983  0.00  0.00    +0.000 HD
BRANCH  17  20
ATOM     20  C   UNL     1      48.992   8.552  12.910  0.00  0.00    +0.000 A 
ATOM     21  C   UNL     1      48.844   9.358  11.790  0.00  0.00    +0.000 A 
ATOM     22  S   UNL     1      50.317   9.997  11.212  0.00  0.00    +0.000 S 
ATOM     23  C   UNL     1      51.205   9.185  12.417  0.00  0.00    +0.000 A 
ATOM     24  N   UNL     1      52.562   9.258  12.458  0.00  0.00    +0.000 NA
ATOM     25  C   UNL     1      53.104   8.562  13.402  0.00  0.00    +0.000 A 
ATOM     26  N   UNL     1      52.411   7.820  14.324  0.00  0.00    +0.000 N 
ATOM     27  C   UNL     1      51.039   7.768  14.358  0.00  0.00    +0.000 A 
ATOM     28  O   UNL     1      50.443   7.188  15.256  0.00  0.00    +0.000 OA
ATOM     29  C   UNL     1      50.384   8.483  13.280  0.00  0.00    +0.000 A 
ATOM     30  H   UNL     1      52.893   7.330  15.062  0.00  0.00    +0.000 HD
ENDBRANCH  17  20
ENDBRANCH   1  16
BRANCH   1  31
ATOM     31  C   UNL     1      47.176   4.605  15.039  0.00  0.00    +0.000 C 
BRANCH  31  32
ATOM     32  N   UNL     1      48.290   4.982  15.923  0.00  0.00    +0.000 NA
ATOM     33  H   UNL     1      48.207   4.458  16.793  0.00  0.00    +0.000 HD
ATOM     34  H   UNL     1      48.208   5.968  16.174  0.00  0.00    +0.000 HD
ENDBRANCH  31  32
ENDBRANCH   1  31
TORSDOF 8
ENDMDL
MODEL 5
REMARK VINA RESULT:    -7.546      1.632      2.127
REMARK INTER + INTRA:         -11.994
REMARK INTER:                 -10.995
REMARK INTRA:                  -1.000
REMARK UNBOUND:                -1.139
REMARK  Name = 
REMARK  8 active torsions:
REMARK  status: ('A' for Active; 'I' for Inactive)
REMARK    1  A    between atoms: N_1  and  C_2
REMARK    2  A    between atoms: C_2  and  C_3
REMARK    3  A    between atoms: C_3  and  N_4
REMARK    4  A    between atoms: C_3  and  C_17
REMARK    5  A    between atoms: C_5  and  C_7
REMARK    6  A    between atoms: C_20  and  O_21
REMARK    7  A    between atoms: O_21  and  C_22
REMARK    8  A    between atoms: C_22  and  C_23
REMARK                            x       y       z     vdW  Elec       q    Type
REMARK                         _______ _______ _______ _____ _____    ______ ____
ROOT
ATOM      1  C   UNL     1      48.649   6.455  13.663  0.00  0.00    +0.000 C 
ENDROOT
BRANCH   1   2
ATOM      2  C   UNL     1      47.388   5.952  12.963  0.00  0.00    +0.000 A 
ATOM      3  C   UNL     1      46.850   6.633  11.862  0.00  0.00    +0.000 A 
ATOM      4  C   UNL     1      45.709   6.140  11.214  0.00  0.00    +0.000 A 
ATOM      5  C   UNL     1      45.102   4.963  11.650  0.00  0.00    +0.000 A 
ATOM      6  C   UNL     1      45.610   4.302  12.768  0.00  0.00    +0.000 A 
ATOM      7  C   UNL     1      46.751   4.783  13.406  0.00  0.00    +0.000 A 
BRANCH   5   8
ATOM      8  O   UNL     1      44.033   4.531  10.913  0.00  0.00    +0.000 OA
BRANCH   8   9
ATOM      9  C   UNL     1      44.095   3.154  10.520  0.00  0.00    +0.000 C 
BRANCH   9  10
ATOM     10  C   UNL     1      44.979   2.962   9.312  0.00  0.00    +0.000 A 
ATOM     11  C   UNL     1      45.181   3.988   8.393  0.00  0.00    +0.000 A 
ATOM     12  C   UNL     1      45.995   3.749   7.290  0.00  0.00    +0.000 A 
ATOM     13  C   UNL     1      46.571   2.494   7.127  0.00  0.00    +0.000 A 
ATOM     14  C   UNL     1      46.303   1.522   8.072  0.00  0.00    +0.000 A 
ATOM     15  N   UNL     1      45.521   1.724   9.153  0.00  0.00    +0.000 NA
ENDBRANCH   9  10
ENDBRANCH   8   9
ENDBRANCH   5   8
ENDBRANCH   1   2
BRANCH   1  16
ATOM     16  N   UNL     1      48.306   6.743  15.051  0.00  0.00    +0.000 N 
ATOM     17  C   UNL     1      49.176   6.556  16.094  0.00  0.00    +0.000 C 
ATOM     18  O   UNL     1      50.356   6.262  15.931  0.00  0.00    +0.000 OA
ATOM     19  H   UNL     1      47.312   6.737  15.262  0.00  0.00    +0.000 HD
BRANCH  17  20
ATOM     20  C   UNL     1      48.632   6.781  17.436  0.00  0.00    +0.000 A 
ATOM     21  C   UNL     1      48.176   8.041  17.798  0.00  0.00    +0.000 A 
ATOM     22  S   UNL     1      47.621   8.126  19.409  0.00  0.00    +0.000 S 
ATOM     23  C   UNL     1      48.010   6.492  19.687  0.00  0.00    +0.000 A 
ATOM     24  N   UNL     1      47.838   5.928  20.912  0.00  0.00    +0.000 NA
ATOM     25  C   UNL     1      48.211   4.693  20.987  0.00  0.00    +0.000 A 
ATOM     26  N   UNL     1      48.718   3.964  19.942  0.00  0.00    +0.000 N 
ATOM     27  C   UNL     1      48.851   4.474  18.674  0.00  0.00    +0.000 A 
ATOM     28  O   UNL     1      49.202   3.771  17.735  0.00  0.00    +0.000 OA
ATOM     29  C   UNL     1      48.504   5.877  18.551  0.00  0.00    +0.000 A 
ATOM     30  H   UNL     1      48.954   2.990  20.056  0.00  0.00    +0.000 HD
ENDBRANCH  17  20
ENDBRANCH   1  16
BRANCH   1  31
ATOM     31  C   UNL     1      49.244   7.691  12.919  0.00  0.00    +0.000 C 
BRANCH  31  32
ATOM     32  N   UNL     1      50.428   7.395  12.098  0.00  0.00    +0.000 NA
ATOM     33  H   UNL     1      51.258   7.478  12.683  0.00  0.00    +0.000 HD
ATOM     34  H   UNL     1      50.522   8.100  11.367  0.00  0.00    +0.000 HD
ENDBRANCH  31  32
ENDBRANCH   1  31
TORSDOF 8
ENDMDL
MODEL 6
REMARK VINA RESULT:    -6.886      3.794      5.928
REMARK INTER + INTRA:         -11.044
REMARK INTER:                  -9.567
REMARK INTRA:                  -1.477
REMARK UNBOUND:                -1.139
REMARK  Name = 
REMARK  8 active torsions:
REMARK  status: ('A' for Active; 'I' for Inactive)
REMARK    1  A    between atoms: N_1  and  C_2
REMARK    2  A    between atoms: C_2  and  C_3
REMARK    3  A    between atoms: C_3  and  N_4
REMARK    4  A    between atoms: C_3  and  C_17
REMARK    5  A    between atoms: C_5  and  C_7
REMARK    6  A    between atoms: C_20  and  O_21
REMARK    7  A    between atoms: O_21  and  C_22
REMARK    8  A    between atoms: C_22  and  C_23
REMARK                            x       y       z     vdW  Elec       q    Type
REMARK                         _______ _______ _______ _____ _____    ______ ____
ROOT
ATOM      1  C   UNL     1      47.738   7.177  13.815  0.00  0.00    +0.000 C 
ENDROOT
BRANCH   1   2
ATOM      2  C   UNL     1      46.792   6.311  12.986  0.00  0.00    +0.000 A 
ATOM      3  C   UNL     1      46.272   6.767  11.767  0.00  0.00    +0.000 A 
ATOM      4  C   UNL     1      45.428   5.946  11.006  0.00  0.00    +0.000 A 
ATOM      5  C   UNL     1      45.104   4.663  11.447  0.00  0.00    +0.000 A 
ATOM      6  C   UNL     1      45.587   4.218  12.677  0.00  0.00    +0.000 A 
ATOM      7  C   UNL     1      46.436   5.027  13.429  0.00  0.00    +0.000 A 
BRANCH   5   8
ATOM      8  O   UNL     1      44.326   3.918  10.604  0.00  0.00    +0.000 OA
BRANCH   8   9
ATOM      9  C   UNL     1      44.397   4.307   9.226  0.00  0.00    +0.000 C 
BRANCH   9  10
ATOM     10  C   UNL     1      45.361   3.440   8.454  0.00  0.00    +0.000 A 
ATOM     11  C   UNL     1      45.528   2.093   8.760  0.00  0.00    +0.000 A 
ATOM     12  C   UNL     1      46.442   1.346   8.024  0.00  0.00    +0.000 A 
ATOM     13  C   UNL     1      47.173   1.964   7.016  0.00  0.00    +0.000 A 
ATOM     14  C   UNL     1      46.966   3.312   6.788  0.00  0.00    +0.000 A 
ATOM     15  N   UNL     1      46.085   4.062   7.484  0.00  0.00    +0.000 NA
ENDBRANCH   9  10
ENDBRANCH   8   9
ENDBRANCH   5   8
ENDBRANCH   1   2
BRANCH   1  16
ATOM     16  N   UNL     1      48.555   7.957  12.891  0.00  0.00    +0.000 N 
ATOM     17  C   UNL     1      48.720   9.314  12.997  0.00  0.00    +0.000 C 
ATOM     18  O   UNL     1      48.305   9.962  13.953  0.00  0.00    +0.000 OA
ATOM     19  H   UNL     1      48.697   7.536  11.978  0.00  0.00    +0.000 HD
BRANCH  17  20
ATOM     20  C   UNL     1      49.474   9.958  11.919  0.00  0.00    +0.000 A 
ATOM     21  C   UNL     1      48.860  10.908  11.114  0.00  0.00    +0.000 A 
ATOM     22  S   UNL     1      49.876  11.516   9.885  0.00  0.00    +0.000 S 
ATOM     23  C   UNL     1      51.155  10.500  10.364  0.00  0.00    +0.000 A 
ATOM     24  N   UNL     1      52.328  10.477   9.676  0.00  0.00    +0.000 NA
ATOM     25  C   UNL     1      53.194   9.631  10.129  0.00  0.00    +0.000 A 
ATOM     26  N   UNL     1      53.003   8.825  11.222  0.00  0.00    +0.000 N 
ATOM     27  C   UNL     1      51.860   8.861  11.983  0.00  0.00    +0.000 A 
ATOM     28  O   UNL     1      51.758   8.212  13.016  0.00  0.00    +0.000 OA
ATOM     29  C   UNL     1      50.831   9.750  11.479  0.00  0.00    +0.000 A 
ATOM     30  H   UNL     1      53.736   8.214  11.549  0.00  0.00    +0.000 HD
ENDBRANCH  17  20
ENDBRANCH   1  16
BRANCH   1  31
ATOM     31  C   UNL     1      48.591   6.300  14.784  0.00  0.00    +0.000 C 
BRANCH  31  32
ATOM     32  N   UNL     1      50.008   6.686  14.864  0.00  0.00    +0.000 NA
ATOM     33  H   UNL     1      50.206   7.355  14.120  0.00  0.00    +0.000 HD
ATOM     34  H   UNL     1      50.595   5.872  14.679  0.00  0.00    +0.000 HD
ENDBRANCH  31  32
ENDBRANCH   1  31
TORSDOF 8
ENDMDL
MODEL 7
REMARK VINA RESULT:    -6.860      1.638      2.128
REMARK INTER + INTRA:         -11.007
REMARK INTER:                  -9.974
REMARK INTRA:                  -1.033
REMARK UNBOUND:                -1.139
REMARK  Name = 
REMARK  8 active torsions:
REMARK  status: ('A' for Active; 'I' for Inactive)
REMARK    1  A    between atoms: N_1  and  C_2
REMARK    2  A    between atoms: C_2  and  C_3
REMARK    3  A    between atoms: C_3  and  N_4
REMARK    4  A    between atoms: C_3  and  C_17
REMARK    5  A    between atoms: C_5  and  C_7
REMARK    6  A    between atoms: C_20  and  O_21
REMARK    7  A    between atoms: O_21  and  C_22
REMARK    8  A    between atoms: C_22  and  C_23
REMARK                            x       y       z     vdW  Elec       q    Type
REMARK                         _______ _______ _______ _____ _____    ______ ____
ROOT
ATOM      1  C   UNL     1      48.580   6.612  14.254  0.00  0.00    +0.000 C 
ENDROOT
BRANCH   1   2
ATOM      2  C   UNL     1      47.265   6.265  13.559  0.00  0.00    +0.000 A 
ATOM      3  C   UNL     1      46.633   7.179  12.706  0.00  0.00    +0.000 A 
ATOM      4  C   UNL     1      45.441   6.832  12.055  0.00  0.00    +0.000 A 
ATOM      5  C   UNL     1      44.877   5.570  12.239  0.00  0.00    +0.000 A 
ATOM      6  C   UNL     1      45.481   4.670  13.116  0.00  0.00    +0.000 A 
ATOM      7  C   UNL     1      46.671   5.008  13.755  0.00  0.00    +0.000 A 
BRANCH   5   8
ATOM      8  O   UNL     1      43.750   5.305  11.510  0.00  0.00    +0.000 OA
BRANCH   8   9
ATOM      9  C   UNL     1      43.563   3.923  11.180  0.00  0.00    +0.000 C 
BRANCH   9  10
ATOM     10  C   UNL     1      44.413   3.514  10.002  0.00  0.00    +0.000 A 
ATOM     11  C   UNL     1      44.945   4.460   9.131  0.00  0.00    +0.000 A 
ATOM     12  C   UNL     1      45.709   4.025   8.053  0.00  0.00    +0.000 A 
ATOM     13  C   UNL     1      45.908   2.662   7.865  0.00  0.00    +0.000 A 
ATOM     14  C   UNL     1      45.327   1.785   8.761  0.00  0.00    +0.000 A 
ATOM     15  N   UNL     1      44.583   2.177   9.818  0.00  0.00    +0.000 NA
ENDBRANCH   9  10
ENDBRANCH   8   9
ENDBRANCH   5   8
ENDBRANCH   1   2
BRANCH   1  16
ATOM     16  N   UNL     1      48.282   6.918  15.649  0.00  0.00    +0.000 N 
ATOM     17  C   UNL     1      48.902   6.297  16.703  0.00  0.00    +0.000 C 
ATOM     18  O   UNL     1      49.852   5.534  16.560  0.00  0.00    +0.000 OA
ATOM     19  H   UNL     1      47.368   7.327  15.817  0.00  0.00    +0.000 HD
BRANCH  17  20
ATOM     20  C   UNL     1      48.400   6.636  18.037  0.00  0.00    +0.000 A 
ATOM     21  C   UNL     1      48.142   5.630  18.957  0.00  0.00    +0.000 A 
ATOM     22  S   UNL     1      47.521   6.206  20.438  0.00  0.00    +0.000 S 
ATOM     23  C   UNL     1      47.541   7.815  19.883  0.00  0.00    +0.000 A 
ATOM     24  N   UNL     1      47.070   8.830  20.656  0.00  0.00    +0.000 NA
ATOM     25  C   UNL     1      47.111   9.992  20.092  0.00  0.00    +0.000 A 
ATOM     26  N   UNL     1      47.603  10.235  18.835  0.00  0.00    +0.000 N 
ATOM     27  C   UNL     1      48.144   9.251  18.045  0.00  0.00    +0.000 A 
ATOM     28  O   UNL     1      48.675   9.511  16.973  0.00  0.00    +0.000 OA
ATOM     29  C   UNL     1      48.065   7.917  18.608  0.00  0.00    +0.000 A 
ATOM     30  H   UNL     1      47.644  11.173  18.467  0.00  0.00    +0.000 HD
ENDBRANCH  17  20
ENDBRANCH   1  16
BRANCH   1  31
ATOM     31  C   UNL     1      49.305   7.783  13.520  0.00  0.00    +0.000 C 
BRANCH  31  32
ATOM     32  N   UNL     1      50.774   7.708  13.560  0.00  0.00    +0.000 NA
ATOM     33  H   UNL     1      51.132   8.563  13.983  0.00  0.00    +0.000 HD
ATOM     34  H   UNL     1      51.140   7.685  12.607  0.00  0.00    +0.000 HD
ENDBRANCH  31  32
ENDBRANCH   1  31
TORSDOF 8
ENDMDL
MODEL 8
REMARK VINA RESULT:    -6.844      3.403      4.905
REMARK INTER + INTRA:         -10.984
REMARK INTER:                  -9.739
REMARK INTRA:                  -1.245
REMARK UNBOUND:                -1.139
REMARK  Name = 
REMARK  8 active torsions:
REMARK  status: ('A' for Active; 'I' for Inactive)
REMARK    1  A    between atoms: N_1  and  C_2
REMARK    2  A    between atoms: C_2  and  C_3
REMARK    3  A    between atoms: C_3  and  N_4
REMARK    4  A    between atoms: C_3  and  C_17
REMARK    5  A    between atoms: C_5  and  C_7
REMARK    6  A    between atoms: C_20  and  O_21
REMARK    7  A    between atoms: O_21  and  C_22
REMARK    8  A    between atoms: C_22  and  C_23
REMARK                            x       y       z     vdW  Elec       q    Type
REMARK                         _______ _______ _______ _____ _____    ______ ____
ROOT
ATOM      1  C   UNL     1      49.550   6.703  17.438  0.00  0.00    +0.000 C 
ENDROOT
BRANCH   1   2
ATOM      2  C   UNL     1      48.617   5.974  16.474  0.00  0.00    +0.000 A 
ATOM      3  C   UNL     1      48.490   6.383  15.139  0.00  0.00    +0.000 A 
ATOM      4  C   UNL     1      47.651   5.684  14.262  0.00  0.00    +0.000 A 
ATOM      5  C   UNL     1      46.941   4.566  14.702  0.00  0.00    +0.000 A 
ATOM      6  C   UNL     1      47.034   4.177  16.038  0.00  0.00    +0.000 A 
ATOM      7  C   UNL     1      47.877   4.863  16.909  0.00  0.00    +0.000 A 
BRANCH   5   8
ATOM      8  O   UNL     1      46.200   3.915  13.754  0.00  0.00    +0.000 OA
BRANCH   8   9
ATOM      9  C   UNL     1      45.223   4.730  13.096  0.00  0.00    +0.000 C 
BRANCH   9  10
ATOM     10  C   UNL     1      45.155   4.430  11.618  0.00  0.00    +0.000 A 
ATOM     11  C   UNL     1      45.568   5.362  10.670  0.00  0.00    +0.000 A 
ATOM     12  C   UNL     1      45.469   5.035   9.321  0.00  0.00    +0.000 A 
ATOM     13  C   UNL     1      44.949   3.800   8.955  0.00  0.00    +0.000 A 
ATOM     14  C   UNL     1      44.540   2.938   9.956  0.00  0.00    +0.000 A 
ATOM     15  N   UNL     1      44.626   3.225  11.273  0.00  0.00    +0.000 NA
ENDBRANCH   9  10
ENDBRANCH   8   9
ENDBRANCH   5   8
ENDBRANCH   1   2
BRANCH   1  16
ATOM     16  N   UNL     1      50.506   5.731  17.959  0.00  0.00    +0.000 N 
ATOM     17  C   UNL     1      51.722   5.487  17.376  0.00  0.00    +0.000 C 
ATOM     18  O   UNL     1      52.163   6.161  16.450  0.00  0.00    +0.000 OA
ATOM     19  H   UNL     1      50.105   4.997  18.535  0.00  0.00    +0.000 HD
BRANCH  17  20
ATOM     20  C   UNL     1      52.508   4.396  17.956  0.00  0.00    +0.000 A 
ATOM     21  C   UNL     1      53.674   4.676  18.656  0.00  0.00    +0.000 A 
ATOM     22  S   UNL     1      54.480   3.282  19.219  0.00  0.00    +0.000 S 
ATOM     23  C   UNL     1      53.319   2.257  18.512  0.00  0.00    +0.000 A 
ATOM     24  N   UNL     1      53.447   0.905  18.570  0.00  0.00    +0.000 NA
ATOM     25  C   UNL     1      52.514   0.255  17.958  0.00  0.00    +0.000 A 
ATOM     26  N   UNL     1      51.450   0.833  17.313  0.00  0.00    +0.000 N 
ATOM     27  C   UNL     1      51.248   2.191  17.283  0.00  0.00    +0.000 A 
ATOM     28  O   UNL     1      50.235   2.677  16.796  0.00  0.00    +0.000 OA
ATOM     29  C   UNL     1      52.302   2.970  17.903  0.00  0.00    +0.000 A 
ATOM     30  H   UNL     1      50.732   0.267  16.888  0.00  0.00    +0.000 HD
ENDBRANCH  17  20
ENDBRANCH   1  16
BRANCH   1  31
ATOM     31  C   UNL     1      48.740   7.417  18.565  0.00  0.00    +0.000 C 
BRANCH  31  32
ATOM     32  N   UNL     1      47.596   8.207  18.083  0.00  0.00    +0.000 NA
ATOM     33  H   UNL     1      47.035   8.490  18.886  0.00  0.00    +0.000 HD
ATOM     34  H   UNL     1      46.994   7.620  17.506  0.00  0.00    +0.000 HD
ENDBRANCH  31  32
ENDBRANCH   1  31
TORSDOF 8
ENDMDL
MODEL 9
REMARK VINA RESULT:    -6.814      3.404      8.297
REMARK INTER + INTRA:         -10.941
REMARK INTER:                  -9.784
REMARK INTRA:                  -1.156
REMARK UNBOUND:                -1.139
REMARK  Name = 
REMARK  8 active torsions:
REMARK  status: ('A' for Active; 'I' for Inactive)
REMARK    1  A    between atoms: N_1  and  C_2
REMARK    2  A    between atoms: C_2  and  C_3
REMARK    3  A    between atoms: C_3  and  N_4
REMARK    4  A    between atoms: C_3  and  C_17
REMARK    5  A    between atoms: C_5  and  C_7
REMARK    6  A    between atoms: C_20  and  O_21
REMARK    7  A    between atoms: O_21  and  C_22
REMARK    8  A    between atoms: C_22  and  C_23
REMARK                            x       y       z     vdW  Elec       q    Type
REMARK                         _______ _______ _______ _____ _____    ______ ____
ROOT
ATOM      1  C   UNL     1      48.253   7.875  12.601  0.00  0.00    +0.000 C 
ENDROOT
BRANCH   1   2
ATOM      2  C   UNL     1      48.570   7.317  13.987  0.00  0.00    +0.000 A 
ATOM      3  C   UNL     1      47.974   6.135  14.446  0.00  0.00    +0.000 A 
ATOM      4  C   UNL     1      48.299   5.623  15.709  0.00  0.00    +0.000 A 
ATOM      5  C   UNL     1      49.226   6.277  16.519  0.00  0.00    +0.000 A 
ATOM      6  C   UNL     1      49.794   7.474  16.085  0.00  0.00    +0.000 A 
ATOM      7  C   UNL     1      49.482   7.978  14.825  0.00  0.00    +0.000 A 
BRANCH   5   8
ATOM      8  O   UNL     1      49.523   5.663  17.706  0.00  0.00    +0.000 OA
BRANCH   8   9
ATOM      9  C   UNL     1      49.174   4.275  17.765  0.00  0.00    +0.000 C 
BRANCH   9  10
ATOM     10  C   UNL     1      50.401   3.395  17.783  0.00  0.00    +0.000 A 
ATOM     11  C   UNL     1      50.359   2.085  17.315  0.00  0.00    +0.000 A 
ATOM     12  C   UNL     1      51.517   1.316  17.370  0.00  0.00    +0.000 A 
ATOM     13  C   UNL     1      52.677   1.867  17.902  0.00  0.00    +0.000 A 
ATOM     14  C   UNL     1      52.631   3.169  18.366  0.00  0.00    +0.000 A 
ATOM     15  N   UNL     1      51.524   3.940  18.324  0.00  0.00    +0.000 NA
ENDBRANCH   9  10
ENDBRANCH   8   9
ENDBRANCH   5   8
ENDBRANCH   1   2
BRANCH   1  16
ATOM     16  N   UNL     1      47.569   6.832  11.844  0.00  0.00    +0.000 N 
ATOM     17  C   UNL     1      46.246   6.908  11.489  0.00  0.00    +0.000 C 
ATOM     18  O   UNL     1      45.568   7.916  11.660  0.00  0.00    +0.000 OA
ATOM     19  H   UNL     1      47.987   5.909  11.903  0.00  0.00    +0.000 HD
BRANCH  17  20
ATOM     20  C   UNL     1      45.686   5.722  10.836  0.00  0.00    +0.000 A 
ATOM     21  C   UNL     1      45.850   5.540   9.469  0.00  0.00    +0.000 A 
ATOM     22  S   UNL     1      45.093   4.131   8.875  0.00  0.00    +0.000 S 
ATOM     23  C   UNL     1      44.488   3.740  10.418  0.00  0.00    +0.000 A 
ATOM     24  N   UNL     1      43.687   2.658  10.604  0.00  0.00    +0.000 NA
ATOM     25  C   UNL     1      43.270   2.506  11.818  0.00  0.00    +0.000 A 
ATOM     26  N   UNL     1      43.603   3.323  12.868  0.00  0.00    +0.000 N 
ATOM     27  C   UNL     1      44.458   4.390  12.738  0.00  0.00    +0.000 A 
ATOM     28  O   UNL     1      44.825   5.038  13.710  0.00  0.00    +0.000 OA
ATOM     29  C   UNL     1      44.904   4.641  11.381  0.00  0.00    +0.000 A 
ATOM     30  H   UNL     1      43.276   3.126  13.802  0.00  0.00    +0.000 HD
ENDBRANCH  17  20
ENDBRANCH   1  16
BRANCH   1  31
ATOM     31  C   UNL     1      49.549   8.382  11.895  0.00  0.00    +0.000 C 
BRANCH  31  32
ATOM     32  N   UNL     1      50.521   7.324  11.576  0.00  0.00    +0.000 NA
ATOM     33  H   UNL     1      51.008   7.061  12.431  0.00  0.00    +0.000 HD
ATOM     34  H   UNL     1      51.232   7.693  10.944  0.00  0.00    +0.000 HD
ENDBRANCH  31  32
ENDBRANCH   1  31
TORSDOF 8
ENDMDL
