MODEL 1
REMARK VINA RESULT:    -8.928      0.000      0.000
REMARK INTER + INTRA:         -13.561
REMARK INTER:                 -12.581
REMARK INTRA:                  -0.980
REMARK UNBOUND:                -0.980
REMARK  Name = 
REMARK  7 active torsions:
REMARK  status: ('A' for Active; 'I' for Inactive)
REMARK    1  A    between atoms: C_2  and  C_20
REMARK    2  A    between atoms: N_3  and  C_4
REMARK    3  A    between atoms: C_4  and  C_5
REMARK    4  A    between atoms: C_5  and  N_6
REMARK    5  A    between atoms: C_9  and  C_10
REMARK    6  A    between atoms: C_10  and  N_11
REMARK    7  A    between atoms: N_11  and  C_12
REMARK                            x       y       z     vdW  Elec       q    Type
REMARK                         _______ _______ _______ _____ _____    ______ ____
ROOT
ATOM      1  C   UNL     1      46.750   4.466  14.907  0.00  0.00    +0.000 C 
ENDROOT
BRANCH   1   4
ATOM      2  O   UNL     1      46.921   4.575  17.711  0.00  0.00    +0.000 OA
ATOM      3  C   UNL     1      47.952   4.456  17.056  0.00  0.00    +0.000 C 
ATOM      4  N   UNL     1      47.963   4.476  15.684  0.00  0.00    +0.000 N 
ATOM      5  H   UNL     1      48.811   4.242  15.183  0.00  0.00    +0.000 HD
BRANCH   3   6
ATOM      6  C   UNL     1      49.262   4.322  17.693  0.00  0.00    +0.000 A 
ATOM      7  C   UNL     1      49.705   5.289  18.584  0.00  0.00    +0.000 A 
ATOM      8  S   UNL     1      51.264   4.979  19.200  0.00  0.00    +0.000 S 
ATOM      9  C   UNL     1      51.378   3.515  18.340  0.00  0.00    +0.000 A 
ATOM     10  N   UNL     1      52.476   2.721  18.444  0.00  0.00    +0.000 NA
ATOM     11  C   UNL     1      52.410   1.623  17.766  0.00  0.00    +0.000 A 
ATOM     12  N   UNL     1      51.347   1.246  16.989  0.00  0.00    +0.000 N 
ATOM     13  C   UNL     1      50.241   2.037  16.812  0.00  0.00    +0.000 A 
ATOM     14  O   UNL     1      49.349   1.707  16.036  0.00  0.00    +0.000 OA
ATOM     15  C   UNL     1      50.250   3.275  17.574  0.00  0.00    +0.000 A 
ATOM     16  H   UNL     1      51.365   0.383  16.466  0.00  0.00    +0.000 HD
ENDBRANCH   3   6
ENDBRANCH   1   4
BRANCH   1  17
ATOM     17  C   UNL     1      46.813   5.425  13.711  0.00  0.00    +0.000 C 
BRANCH  17  18
ATOM     18  N   UNL     1      45.501   5.596  13.055  0.00  0.00    +0.000 NA
ATOM     19  C   UNL     1      45.667   6.034  11.660  0.00  0.00    +0.000 C 
ATOM     20  C   UNL     1      44.325   6.190  10.947  0.00  0.00    +0.000 C 
ATOM     21  C   UNL     1      43.493   4.904  10.996  0.00  0.00    +0.000 C 
ATOM     22  C   UNL     1      43.365   4.474  12.466  0.00  0.00    +0.000 C 
ATOM     23  C   UNL     1      44.728   4.345  13.150  0.00  0.00    +0.000 C 
BRANCH  21  24
ATOM     24  C   UNL     1      44.142   3.826  10.105  0.00  0.00    +0.000 C 
BRANCH  24  25
ATOM     25  N   UNL     1      44.474   4.330   8.774  0.00  0.00    +0.000 NA
ATOM     26  H   UNL     1      45.105   5.126   8.866  0.00  0.00    +0.000 HD
BRANCH  25  27
ATOM     27  C   UNL     1      45.095   3.307   7.916  0.00  0.00    +0.000 C 
ATOM     28  C   UNL     1      45.521   2.124   8.803  0.00  0.00    +0.000 C 
ATOM     29  C   UNL     1      46.238   1.041   7.998  0.00  0.00    +0.000 C 
ATOM     30  C   UNL     1      47.437   1.606   7.244  0.00  0.00    +0.000 C 
ATOM     31  C   UNL     1      47.022   2.760   6.345  0.00  0.00    +0.000 C 
ATOM     32  C   UNL     1      46.304   3.850   7.131  0.00  0.00    +0.000 C 
ENDBRANCH  25  27
ENDBRANCH  24  25
ENDBRANCH  21  24
ENDBRANCH  17  18
ENDBRANCH   1  17
TORSDOF 7
ENDMDL
MODEL 2
REMARK VINA RESULT:    -8.783      1.214      1.563
REMARK INTER + INTRA:         -13.357
REMARK INTER:                 -12.525
REMARK INTRA:                  -0.831
REMARK UNBOUND:                -0.980
REMARK  Name = 
REMARK  7 active torsions:
REMARK  status: ('A' for Active; 'I' for Inactive)
REMARK    1  A    between atoms: C_2  and  C_20
REMARK    2  A    between atoms: N_3  and  C_4
REMARK    3  A    between atoms: C_4  and  C_5
REMARK    4  A    between atoms: C_5  and  N_6
REMARK    5  A    between atoms: C_9  and  C_10
REMARK    6  A    between atoms: C_10  and  N_11
REMARK    7  A    between atoms: N_11  and  C_12
REMARK                            x       y       z     vdW  Elec       q    Type
REMARK                         _______ _______ _______ _____ _____    ______ ____
ROOT
ATOM      1  C   UNL     1      46.871   4.261  14.746  0.00  0.00    +0.000 C 
ENDROOT
BRANCH   1   4
ATOM      2  O   UNL     1      46.550   3.191  17.326  0.00  0.00    +0.000 OA
ATOM      3  C   UNL     1      47.317   4.135  17.164  0.00  0.00    +0.000 C 
ATOM      4  N   UNL     1      47.469   4.766  15.955  0.00  0.00    +0.000 N 
ATOM      5  H   UNL     1      48.207   5.449  15.832  0.00  0.00    +0.000 HD
BRANCH   3   6
ATOM      6  C   UNL     1      48.105   4.689  18.266  0.00  0.00    +0.000 A 
ATOM      7  C   UNL     1      47.511   5.539  19.188  0.00  0.00    +0.000 A 
ATOM      8  S   UNL     1      48.591   6.107  20.378  0.00  0.00    +0.000 S 
ATOM      9  C   UNL     1      49.875   5.196  19.734  0.00  0.00    +0.000 A 
ATOM     10  N   UNL     1      51.106   5.210  20.310  0.00  0.00    +0.000 NA
ATOM     11  C   UNL     1      51.974   4.443  19.739  0.00  0.00    +0.000 A 
ATOM     12  N   UNL     1      51.726   3.663  18.640  0.00  0.00    +0.000 N 
ATOM     13  C   UNL     1      50.516   3.656  17.994  0.00  0.00    +0.000 A 
ATOM     14  O   UNL     1      50.359   3.015  16.959  0.00  0.00    +0.000 OA
ATOM     15  C   UNL     1      49.492   4.482  18.612  0.00  0.00    +0.000 A 
ATOM     16  H   UNL     1      52.454   3.099  18.226  0.00  0.00    +0.000 HD
ENDBRANCH   3   6
ENDBRANCH   1   4
BRANCH   1  17
ATOM     17  C   UNL     1      47.027   5.231  13.567  0.00  0.00    +0.000 C 
BRANCH  17  18
ATOM     18  N   UNL     1      45.738   5.535  12.914  0.00  0.00    +0.000 NA
ATOM     19  C   UNL     1      45.945   5.950  11.517  0.00  0.00    +0.000 C 
ATOM     20  C   UNL     1      44.624   6.242  10.806  0.00  0.00    +0.000 C 
ATOM     21  C   UNL     1      43.664   5.049  10.861  0.00  0.00    +0.000 C 
ATOM     22  C   UNL     1      43.496   4.639  12.333  0.00  0.00    +0.000 C 
ATOM     23  C   UNL     1      44.840   4.371  13.014  0.00  0.00    +0.000 C 
BRANCH  21  24
ATOM     24  C   UNL     1      44.195   3.907   9.972  0.00  0.00    +0.000 C 
BRANCH  24  25
ATOM     25  N   UNL     1      44.593   4.374   8.645  0.00  0.00    +0.000 NA
ATOM     26  H   UNL     1      45.263   5.136   8.745  0.00  0.00    +0.000 HD
BRANCH  25  27
ATOM     27  C   UNL     1      45.181   3.307   7.818  0.00  0.00    +0.000 C 
ATOM     28  C   UNL     1      45.605   2.153   8.745  0.00  0.00    +0.000 C 
ATOM     29  C   UNL     1      46.289   1.027   7.972  0.00  0.00    +0.000 C 
ATOM     30  C   UNL     1      47.483   1.541   7.174  0.00  0.00    +0.000 C 
ATOM     31  C   UNL     1      47.069   2.664   6.236  0.00  0.00    +0.000 C 
ATOM     32  C   UNL     1      46.384   3.797   6.990  0.00  0.00    +0.000 C 
ENDBRANCH  25  27
ENDBRANCH  24  25
ENDBRANCH  21  24
ENDBRANCH  17  18
ENDBRANCH   1  17
TORSDOF 7
ENDMDL
MODEL 3
REMARK VINA RESULT:    -8.683      2.205      2.917
REMARK INTER + INTRA:         -13.216
REMARK INTER:                 -12.478
REMARK INTRA:                  -0.738
REMARK UNBOUND:                -0.980
REMARK  Name = 
REMARK  7 active torsions:
REMARK  status: ('A' for Active; 'I' for Inactive)
REMARK    1  A    between atoms: C_2  and  C_20
REMARK    2  A    between atoms: N_3  and  C_4
REMARK    3  A    between atoms: C_4  and  C_5
REMARK    4  A    between atoms: C_5  and  N_6
REMARK    5  A    between atoms: C_9  and  C_10
REMARK    6  A    between atoms: C_10  and  N_11
REMARK    7  A    between atoms: N_11  and  C_12
REMARK                            x       y       z     vdW  Elec       q    Type
REMARK                         _______ _______ _______ _____ _____    ______ ____
ROOT
ATOM      1  C   UNL     1      46.760   7.310  12.660  0.00  0.00    +0.000 C 
ENDROOT
BRANCH   1   4
ATOM      2  O   UNL     1      49.345   6.667  13.560  0.00  0.00    +0.000 OA
ATOM      3  C   UNL     1      48.413   6.643  14.359  0.00  0.00    +0.000 C 
ATOM      4  N   UNL     1      47.112   6.864  13.984  0.00  0.00    +0.000 N 
ATOM      5  H   UNL     1      46.394   6.967  14.691  0.00  0.00    +0.000 HD
BRANCH   3   6
ATOM      6  C   UNL     1      48.616   6.335  15.775  0.00  0.00    +0.000 A 
ATOM      7  C   UNL     1      49.181   7.281  16.619  0.00  0.00    +0.000 A 
ATOM      8  S   UNL     1      49.366   6.732  18.222  0.00  0.00    +0.000 S 
ATOM      9  C   UNL     1      48.650   5.233  17.856  0.00  0.00    +0.000 A 
ATOM     10  N   UNL     1      48.476   4.283  18.812  0.00  0.00    +0.000 NA
ATOM     11  C   UNL     1      47.886   3.210  18.402  0.00  0.00    +0.000 A 
ATOM     12  N   UNL     1      47.456   2.996  17.119  0.00  0.00    +0.000 N 
ATOM     13  C   UNL     1      47.656   3.902  16.109  0.00  0.00    +0.000 A 
ATOM     14  O   UNL     1      47.338   3.636  14.954  0.00  0.00    +0.000 OA
ATOM     15  C   UNL     1      48.292   5.142  16.521  0.00  0.00    +0.000 A 
ATOM     16  H   UNL     1      47.018   2.125  16.855  0.00  0.00    +0.000 HD
ENDBRANCH   3   6
ENDBRANCH   1   4
BRANCH   1  17
ATOM     17  C   UNL     1      45.243   7.311  12.428  0.00  0.00    +0.000 C 
BRANCH  17  18
ATOM     18  N   UNL     1      44.649   5.968  12.579  0.00  0.00    +0.000 NA
ATOM     19  C   UNL     1      43.424   5.845  11.771  0.00  0.00    +0.000 C 
ATOM     20  C   UNL     1      42.804   4.453  11.885  0.00  0.00    +0.000 C 
ATOM     21  C   UNL     1      43.794   3.347  11.506  0.00  0.00    +0.000 C 
ATOM     22  C   UNL     1      45.061   3.529  12.357  0.00  0.00    +0.000 C 
ATOM     23  C   UNL     1      45.643   4.939  12.229  0.00  0.00    +0.000 C 
BRANCH  21  24
ATOM     24  C   UNL     1      44.072   3.389   9.991  0.00  0.00    +0.000 C 
BRANCH  24  25
ATOM     25  N   UNL     1      44.633   2.134   9.492  0.00  0.00    +0.000 NA
ATOM     26  H   UNL     1      43.928   1.650   8.937  0.00  0.00    +0.000 HD
BRANCH  25  27
ATOM     27  C   UNL     1      45.845   2.335   8.680  0.00  0.00    +0.000 C 
ATOM     28  C   UNL     1      45.552   3.422   7.631  0.00  0.00    +0.000 C 
ATOM     29  C   UNL     1      46.742   3.647   6.699  0.00  0.00    +0.000 C 
ATOM     30  C   UNL     1      47.175   2.351   6.022  0.00  0.00    +0.000 C 
ATOM     31  C   UNL     1      47.492   1.277   7.053  0.00  0.00    +0.000 C 
ATOM     32  C   UNL     1      46.316   1.040   7.992  0.00  0.00    +0.000 C 
ENDBRANCH  25  27
ENDBRANCH  24  25
ENDBRANCH  21  24
ENDBRANCH  17  18
ENDBRANCH   1  17
TORSDOF 7
ENDMDL
MODEL 4
REMARK VINA RESULT:    -7.735      2.692      3.776
REMARK INTER + INTRA:         -11.880
REMARK INTER:                 -11.153
REMARK INTRA:                  -0.727
REMARK UNBOUND:                -0.980
REMARK  Name = 
REMARK  7 active torsions:
REMARK  status: ('A' for Active; 'I' for Inactive)
REMARK    1  A    between atoms: C_2  and  C_20
REMARK    2  A    between atoms: N_3  and  C_4
REMARK    3  A    between atoms: C_4  and  C_5
REMARK    4  A    between atoms: C_5  and  N_6
REMARK    5  A    between atoms: C_9  and  C_10
REMARK    6  A    between atoms: C_10  and  N_11
REMARK    7  A    between atoms: N_11  and  C_12
REMARK                            x       y       z     vdW  Elec       q    Type
REMARK                         _______ _______ _______ _____ _____    ______ ____
ROOT
ATOM      1  C   UNL     1      47.136   6.032  13.153  0.00  0.00    +0.000 C 
ENDROOT
BRANCH   1   4
ATOM      2  O   UNL     1      49.488   6.785  14.498  0.00  0.00    +0.000 OA
ATOM      3  C   UNL     1      48.568   6.288  15.140  0.00  0.00    +0.000 C 
ATOM      4  N   UNL     1      47.422   5.820  14.549  0.00  0.00    +0.000 N 
ATOM      5  H   UNL     1      46.635   5.541  15.124  0.00  0.00    +0.000 HD
BRANCH   3   6
ATOM      6  C   UNL     1      48.641   6.119  16.592  0.00  0.00    +0.000 A 
ATOM      7  C   UNL     1      48.796   4.853  17.138  0.00  0.00    +0.000 A 
ATOM      8  S   UNL     1      48.830   4.851  18.843  0.00  0.00    +0.000 S 
ATOM      9  C   UNL     1      48.692   6.546  18.908  0.00  0.00    +0.000 A 
ATOM     10  N   UNL     1      48.686   7.206  20.095  0.00  0.00    +0.000 NA
ATOM     11  C   UNL     1      48.614   8.492  19.993  0.00  0.00    +0.000 A 
ATOM     12  N   UNL     1      48.544   9.180  18.810  0.00  0.00    +0.000 N 
ATOM     13  C   UNL     1      48.495   8.555  17.590  0.00  0.00    +0.000 A 
ATOM     14  O   UNL     1      48.341   9.201  16.559  0.00  0.00    +0.000 OA
ATOM     15  C   UNL     1      48.600   7.106  17.645  0.00  0.00    +0.000 A 
ATOM     16  H   UNL     1      48.469  10.187  18.797  0.00  0.00    +0.000 HD
ENDBRANCH   3   6
ENDBRANCH   1   4
BRANCH   1  17
ATOM     17  C   UNL     1      45.870   6.872  12.936  0.00  0.00    +0.000 C 
BRANCH  17  18
ATOM     18  N   UNL     1      44.723   6.057  12.490  0.00  0.00    +0.000 NA
ATOM     19  C   UNL     1      44.794   5.803  11.042  0.00  0.00    +0.000 C 
ATOM     20  C   UNL     1      43.634   4.935  10.557  0.00  0.00    +0.000 C 
ATOM     21  C   UNL     1      43.550   3.607  11.317  0.00  0.00    +0.000 C 
ATOM     22  C   UNL     1      43.499   3.921  12.821  0.00  0.00    +0.000 C 
ATOM     23  C   UNL     1      44.667   4.805  13.265  0.00  0.00    +0.000 C 
BRANCH  21  24
ATOM     24  C   UNL     1      44.736   2.704  10.927  0.00  0.00    +0.000 C 
BRANCH  24  25
ATOM     25  N   UNL     1      44.584   2.132   9.590  0.00  0.00    +0.000 NA
ATOM     26  H   UNL     1      43.766   2.542   9.142  0.00  0.00    +0.000 HD
BRANCH  25  27
ATOM     27  C   UNL     1      45.769   2.344   8.742  0.00  0.00    +0.000 C 
ATOM     28  C   UNL     1      45.427   3.417   7.692  0.00  0.00    +0.000 C 
ATOM     29  C   UNL     1      46.585   3.652   6.723  0.00  0.00    +0.000 C 
ATOM     30  C   UNL     1      47.019   2.358   6.045  0.00  0.00    +0.000 C 
ATOM     31  C   UNL     1      47.384   1.299   7.075  0.00  0.00    +0.000 C 
ATOM     32  C   UNL     1      46.240   1.051   8.050  0.00  0.00    +0.000 C 
ENDBRANCH  25  27
ENDBRANCH  24  25
ENDBRANCH  21  24
ENDBRANCH  17  18
ENDBRANCH   1  17
TORSDOF 7
ENDMDL
MODEL 5
REMARK VINA RESULT:    -7.514      2.866      4.145
REMARK INTER + INTRA:         -11.569
REMARK INTER:                 -11.015
REMARK INTRA:                  -0.553
REMARK UNBOUND:                -0.980
REMARK  Name = 
REMARK  7 active torsions:
REMARK  status: ('A' for Active; 'I' for Inactive)
REMARK    1  A    between atoms: C_2  and  C_20
REMARK    2  A    between atoms: N_3  and  C_4
REMARK    3  A    between atoms: C_4  and  C_5
REMARK    4  A    between atoms: C_5  and  N_6
REMARK    5  A    between atoms: C_9  and  C_10
REMARK    6  A    between atoms: C_10  and  N_11
REMARK    7  A    between atoms: N_11  and  C_12
REMARK                            x       y       z     vdW  Elec       q    Type
REMARK                         _______ _______ _______ _____ _____    ______ ____
ROOT
ATOM      1  C   UNL     1      47.183   4.126  15.653  0.00  0.00    +0.000 C 
ENDROOT
BRANCH   1   4
ATOM      2  O   UNL     1      49.488   5.723  15.850  0.00  0.00    +0.000 OA
ATOM      3  C   UNL     1      48.594   5.863  16.679  0.00  0.00    +0.000 C 
ATOM      4  N   UNL     1      47.476   5.069  16.702  0.00  0.00    +0.000 N 
ATOM      5  H   UNL     1      46.704   5.302  17.315  0.00  0.00    +0.000 HD
BRANCH   3   6
ATOM      6  C   UNL     1      48.673   6.869  17.739  0.00  0.00    +0.000 A 
ATOM      7  C   UNL     1      48.989   6.490  19.035  0.00  0.00    +0.000 A 
ATOM      8  S   UNL     1      49.003   7.793  20.136  0.00  0.00    +0.000 S 
ATOM      9  C   UNL     1      48.640   8.913  18.908  0.00  0.00    +0.000 A 
ATOM     10  N   UNL     1      48.532  10.241  19.176  0.00  0.00    +0.000 NA
ATOM     11  C   UNL     1      48.291  10.979  18.144  0.00  0.00    +0.000 A 
ATOM     12  N   UNL     1      48.143  10.510  16.865  0.00  0.00    +0.000 N 
ATOM     13  C   UNL     1      48.192   9.175  16.554  0.00  0.00    +0.000 A 
ATOM     14  O   UNL     1      47.965   8.787  15.412  0.00  0.00    +0.000 OA
ATOM     15  C   UNL     1      48.489   8.300  17.676  0.00  0.00    +0.000 A 
ATOM     16  H   UNL     1      47.935  11.137  16.101  0.00  0.00    +0.000 HD
ENDBRANCH   3   6
ENDBRANCH   1   4
BRANCH   1  17
ATOM     17  C   UNL     1      47.113   4.790  14.271  0.00  0.00    +0.000 C 
BRANCH  17  18
ATOM     18  N   UNL     1      45.797   4.612  13.626  0.00  0.00    +0.000 NA
ATOM     19  C   UNL     1      45.451   5.788  12.811  0.00  0.00    +0.000 C 
ATOM     20  C   UNL     1      44.105   5.618  12.107  0.00  0.00    +0.000 C 
ATOM     21  C   UNL     1      44.061   4.352  11.244  0.00  0.00    +0.000 C 
ATOM     22  C   UNL     1      44.449   3.158  12.130  0.00  0.00    +0.000 C 
ATOM     23  C   UNL     1      45.793   3.372  12.831  0.00  0.00    +0.000 C 
BRANCH  21  24
ATOM     24  C   UNL     1      44.982   4.521  10.019  0.00  0.00    +0.000 C 
BRANCH  24  25
ATOM     25  N   UNL     1      44.283   4.272   8.759  0.00  0.00    +0.000 NA
ATOM     26  H   UNL     1      44.171   5.154   8.259  0.00  0.00    +0.000 HD
BRANCH  25  27
ATOM     27  C   UNL     1      44.986   3.305   7.900  0.00  0.00    +0.000 C 
ATOM     28  C   UNL     1      45.363   2.082   8.754  0.00  0.00    +0.000 C 
ATOM     29  C   UNL     1      46.158   1.053   7.952  0.00  0.00    +0.000 C 
ATOM     30  C   UNL     1      47.402   1.673   7.324  0.00  0.00    +0.000 C 
ATOM     31  C   UNL     1      47.036   2.868   6.456  0.00  0.00    +0.000 C 
ATOM     32  C   UNL     1      46.242   3.905   7.240  0.00  0.00    +0.000 C 
ENDBRANCH  25  27
ENDBRANCH  24  25
ENDBRANCH  21  24
ENDBRANCH  17  18
ENDBRANCH   1  17
TORSDOF 7
ENDMDL
MODEL 6
REMARK VINA RESULT:    -7.061      1.929      3.376
REMARK INTER + INTRA:         -10.930
REMARK INTER:                  -9.679
REMARK INTRA:                  -1.250
REMARK UNBOUND:                -0.980
REMARK  Name = 
REMARK  7 active torsions:
REMARK  status: ('A' for Active; 'I' for Inactive)
REMARK    1  A    between atoms: C_2  and  C_20
REMARK    2  A    between atoms: N_3  and  C_4
REMARK    3  A    between atoms: C_4  and  C_5
REMARK    4  A    between atoms: C_5  and  N_6
REMARK    5  A    between atoms: C_9  and  C_10
REMARK    6  A    between atoms: C_10  and  N_11
REMARK    7  A    between atoms: N_11  and  C_12
REMARK                            x       y       z     vdW  Elec       q    Type
REMARK                         _______ _______ _______ _____ _____    ______ ____
ROOT
ATOM      1  C   UNL     1      49.758   6.674  16.875  0.00  0.00    +0.000 C 
ENDROOT
BRANCH   1   4
ATOM      2  O   UNL     1      50.413   5.930  19.506  0.00  0.00    +0.000 OA
ATOM      3  C   UNL     1      51.018   5.411  18.572  0.00  0.00    +0.000 C 
ATOM      4  N   UNL     1      50.816   5.777  17.266  0.00  0.00    +0.000 N 
ATOM      5  H   UNL     1      51.234   5.235  16.519  0.00  0.00    +0.000 HD
BRANCH   3   6
ATOM      6  C   UNL     1      52.036   4.382  18.787  0.00  0.00    +0.000 A 
ATOM      7  C   UNL     1      53.126   4.642  19.606  0.00  0.00    +0.000 A 
ATOM      8  S   UNL     1      54.219   3.338  19.710  0.00  0.00    +0.000 S 
ATOM      9  C   UNL     1      53.248   2.364  18.708  0.00  0.00    +0.000 A 
ATOM     10  N   UNL     1      53.604   1.088  18.409  0.00  0.00    +0.000 NA
ATOM     11  C   UNL     1      52.755   0.454  17.670  0.00  0.00    +0.000 A 
ATOM     12  N   UNL     1      51.582   0.981  17.198  0.00  0.00    +0.000 N 
ATOM     13  C   UNL     1      51.206   2.279  17.431  0.00  0.00    +0.000 A 
ATOM     14  O   UNL     1      50.193   2.742  16.915  0.00  0.00    +0.000 OA
ATOM     15  C   UNL     1      52.113   3.032  18.281  0.00  0.00    +0.000 A 
ATOM     16  H   UNL     1      50.969   0.439  16.606  0.00  0.00    +0.000 HD
ENDBRANCH   3   6
ENDBRANCH   1   4
BRANCH   1  17
ATOM     17  C   UNL     1      48.415   5.953  16.699  0.00  0.00    +0.000 C 
BRANCH  17  18
ATOM     18  N   UNL     1      48.256   5.379  15.348  0.00  0.00    +0.000 NA
ATOM     19  C   UNL     1      47.225   4.328  15.345  0.00  0.00    +0.000 C 
ATOM     20  C   UNL     1      47.019   3.736  13.952  0.00  0.00    +0.000 C 
ATOM     21  C   UNL     1      46.675   4.810  12.913  0.00  0.00    +0.000 C 
ATOM     22  C   UNL     1      47.765   5.892  12.969  0.00  0.00    +0.000 C 
ATOM     23  C   UNL     1      47.954   6.448  14.382  0.00  0.00    +0.000 C 
BRANCH  21  24
ATOM     24  C   UNL     1      45.261   5.361  13.179  0.00  0.00    +0.000 C 
BRANCH  24  25
ATOM     25  N   UNL     1      44.362   5.159  12.043  0.00  0.00    +0.000 NA
ATOM     26  H   UNL     1      44.091   6.067  11.665  0.00  0.00    +0.000 HD
BRANCH  25  27
ATOM     27  C   UNL     1      44.966   4.343  10.977  0.00  0.00    +0.000 C 
ATOM     28  C   UNL     1      45.204   5.245   9.752  0.00  0.00    +0.000 C 
ATOM     29  C   UNL     1      45.770   4.459   8.571  0.00  0.00    +0.000 C 
ATOM     30  C   UNL     1      44.876   3.280   8.203  0.00  0.00    +0.000 C 
ATOM     31  C   UNL     1      44.656   2.368   9.401  0.00  0.00    +0.000 C 
ATOM     32  C   UNL     1      44.092   3.135  10.590  0.00  0.00    +0.000 C 
ENDBRANCH  25  27
ENDBRANCH  24  25
ENDBRANCH  21  24
ENDBRANCH  17  18
ENDBRANCH   1  17
TORSDOF 7
ENDMDL
MODEL 7
REMARK VINA RESULT:    -6.999      3.908      8.433
REMARK INTER + INTRA:         -10.843
REMARK INTER:                  -9.434
REMARK INTRA:                  -1.409
REMARK UNBOUND:                -0.980
REMARK  Name = 
REMARK  7 active torsions:
REMARK  status: ('A' for Active; 'I' for Inactive)
REMARK    1  A    between atoms: C_2  and  C_20
REMARK    2  A    between atoms: N_3  and  C_4
REMARK    3  A    between atoms: C_4  and  C_5
REMARK    4  A    between atoms: C_5  and  N_6
REMARK    5  A    between atoms: C_9  and  C_10
REMARK    6  A    between atoms: C_10  and  N_11
REMARK    7  A    between atoms: N_11  and  C_12
REMARK                            x       y       z     vdW  Elec       q    Type
REMARK                         _______ _______ _______ _____ _____    ______ ____
ROOT
ATOM      1  C   UNL     1      49.637   7.371  12.827  0.00  0.00    +0.000 C 
ENDROOT
BRANCH   1   4
ATOM      2  O   UNL     1      47.789   5.772  14.218  0.00  0.00    +0.000 OA
ATOM      3  C   UNL     1      47.471   6.239  13.129  0.00  0.00    +0.000 C 
ATOM      4  N   UNL     1      48.341   6.960  12.350  0.00  0.00    +0.000 N 
ATOM      5  H   UNL     1      48.001   7.438  11.524  0.00  0.00    +0.000 HD
BRANCH   3   6
ATOM      6  C   UNL     1      46.141   6.027  12.554  0.00  0.00    +0.000 A 
ATOM      7  C   UNL     1      45.448   7.089  11.992  0.00  0.00    +0.000 A 
ATOM      8  S   UNL     1      43.908   6.656  11.404  0.00  0.00    +0.000 S 
ATOM      9  C   UNL     1      44.136   5.025  11.832  0.00  0.00    +0.000 A 
ATOM     10  N   UNL     1      43.184   4.090  11.575  0.00  0.00    +0.000 NA
ATOM     11  C   UNL     1      43.507   2.888  11.918  0.00  0.00    +0.000 A 
ATOM     12  N   UNL     1      44.696   2.533  12.500  0.00  0.00    +0.000 N 
ATOM     13  C   UNL     1      45.664   3.447  12.825  0.00  0.00    +0.000 A 
ATOM     14  O   UNL     1      46.677   3.104  13.427  0.00  0.00    +0.000 OA
ATOM     15  C   UNL     1      45.364   4.815  12.435  0.00  0.00    +0.000 A 
ATOM     16  H   UNL     1      44.881   1.576  12.764  0.00  0.00    +0.000 HD
ENDBRANCH   3   6
ENDBRANCH   1   4
BRANCH   1  17
ATOM     17  C   UNL     1      49.677   8.857  13.205  0.00  0.00    +0.000 C 
BRANCH  17  18
ATOM     18  N   UNL     1      49.866   9.065  14.654  0.00  0.00    +0.000 NA
ATOM     19  C   UNL     1      48.570   9.231  15.333  0.00  0.00    +0.000 C 
ATOM     20  C   UNL     1      48.735   9.418  16.840  0.00  0.00    +0.000 C 
ATOM     21  C   UNL     1      49.518   8.267  17.482  0.00  0.00    +0.000 C 
ATOM     22  C   UNL     1      50.850   8.119  16.729  0.00  0.00    +0.000 C 
ATOM     23  C   UNL     1      50.644   7.950  15.222  0.00  0.00    +0.000 C 
BRANCH  21  24
ATOM     24  C   UNL     1      48.668   6.982  17.466  0.00  0.00    +0.000 C 
BRANCH  24  25
ATOM     25  N   UNL     1      48.789   6.218  18.707  0.00  0.00    +0.000 NA
ATOM     26  H   UNL     1      48.059   6.516  19.355  0.00  0.00    +0.000 HD
BRANCH  25  27
ATOM     27  C   UNL     1      48.694   4.765  18.494  0.00  0.00    +0.000 C 
ATOM     28  C   UNL     1      49.947   4.304  17.729  0.00  0.00    +0.000 C 
ATOM     29  C   UNL     1      49.898   2.811  17.406  0.00  0.00    +0.000 C 
ATOM     30  C   UNL     1      48.634   2.448  16.634  0.00  0.00    +0.000 C 
ATOM     31  C   UNL     1      47.388   2.876  17.394  0.00  0.00    +0.000 C 
ATOM     32  C   UNL     1      47.420   4.363  17.725  0.00  0.00    +0.000 C 
ENDBRANCH  25  27
ENDBRANCH  24  25
ENDBRANCH  21  24
ENDBRANCH  17  18
ENDBRANCH   1  17
TORSDOF 7
ENDMDL
MODEL 8
REMARK VINA RESULT:    -6.866      4.722      5.072
REMARK INTER + INTRA:         -10.655
REMARK INTER:                  -9.447
REMARK INTRA:                  -1.208
REMARK UNBOUND:                -0.980
REMARK  Name = 
REMARK  7 active torsions:
REMARK  status: ('A' for Active; 'I' for Inactive)
REMARK    1  A    between atoms: C_2  and  C_20
REMARK    2  A    between atoms: N_3  and  C_4
REMARK    3  A    between atoms: C_4  and  C_5
REMARK    4  A    between atoms: C_5  and  N_6
REMARK    5  A    between atoms: C_9  and  C_10
REMARK    6  A    between atoms: C_10  and  N_11
REMARK    7  A    between atoms: N_11  and  C_12
REMARK                            x       y       z     vdW  Elec       q    Type
REMARK                         _______ _______ _______ _____ _____    ______ ____
ROOT
ATOM      1  C   UNL     1      45.994   8.917  13.141  0.00  0.00    +0.000 C 
ENDROOT
BRANCH   1   4
ATOM      2  O   UNL     1      47.917   8.490  15.147  0.00  0.00    +0.000 OA
ATOM      3  C   UNL     1      48.280   8.915  14.054  0.00  0.00    +0.000 C 
ATOM      4  N   UNL     1      47.398   9.227  13.051  0.00  0.00    +0.000 N 
ATOM      5  H   UNL     1      47.744   9.447  12.125  0.00  0.00    +0.000 HD
BRANCH   3   6
ATOM      6  C   UNL     1      49.691   9.162  13.751  0.00  0.00    +0.000 A 
ATOM      7  C   UNL     1      50.441  10.002  14.561  0.00  0.00    +0.000 A 
ATOM      8  S   UNL     1      52.051  10.191  14.033  0.00  0.00    +0.000 S 
ATOM      9  C   UNL     1      51.815   9.116  12.735  0.00  0.00    +0.000 A 
ATOM     10  N   UNL     1      52.828   8.808  11.884  0.00  0.00    +0.000 NA
ATOM     11  C   UNL     1      52.518   7.951  10.969  0.00  0.00    +0.000 A 
ATOM     12  N   UNL     1      51.284   7.374  10.824  0.00  0.00    +0.000 N 
ATOM     13  C   UNL     1      50.218   7.692  11.626  0.00  0.00    +0.000 A 
ATOM     14  O   UNL     1      49.105   7.223  11.407  0.00  0.00    +0.000 OA
ATOM     15  C   UNL     1      50.518   8.634  12.691  0.00  0.00    +0.000 A 
ATOM     16  H   UNL     1      51.098   6.724  10.074  0.00  0.00    +0.000 HD
ENDBRANCH   3   6
ENDBRANCH   1   4
BRANCH   1  17
ATOM     17  C   UNL     1      45.515   8.033  11.982  0.00  0.00    +0.000 C 
BRANCH  17  18
ATOM     18  N   UNL     1      44.809   6.824  12.450  0.00  0.00    +0.000 NA
ATOM     19  C   UNL     1      43.882   6.328  11.419  0.00  0.00    +0.000 C 
ATOM     20  C   UNL     1      43.158   5.058  11.866  0.00  0.00    +0.000 C 
ATOM     21  C   UNL     1      44.136   3.949  12.270  0.00  0.00    +0.000 C 
ATOM     22  C   UNL     1      45.093   4.519  13.328  0.00  0.00    +0.000 C 
ATOM     23  C   UNL     1      45.786   5.797  12.851  0.00  0.00    +0.000 C 
BRANCH  21  24
ATOM     24  C   UNL     1      44.864   3.413  11.021  0.00  0.00    +0.000 C 
BRANCH  24  25
ATOM     25  N   UNL     1      43.964   3.244   9.881  0.00  0.00    +0.000 NA
ATOM     26  H   UNL     1      43.445   4.110   9.734  0.00  0.00    +0.000 HD
BRANCH  25  27
ATOM     27  C   UNL     1      44.675   2.880   8.644  0.00  0.00    +0.000 C 
ATOM     28  C   UNL     1      45.566   1.660   8.937  0.00  0.00    +0.000 C 
ATOM     29  C   UNL     1      46.393   1.255   7.718  0.00  0.00    +0.000 C 
ATOM     30  C   UNL     1      47.230   2.419   7.199  0.00  0.00    +0.000 C 
ATOM     31  C   UNL     1      46.355   3.622   6.882  0.00  0.00    +0.000 C 
ATOM     32  C   UNL     1      45.522   4.040   8.087  0.00  0.00    +0.000 C 
ENDBRANCH  25  27
ENDBRANCH  24  25
ENDBRANCH  21  24
ENDBRANCH  17  18
ENDBRANCH   1  17
TORSDOF 7
ENDMDL
MODEL 9
REMARK VINA RESULT:    -6.818      2.475      3.757
REMARK INTER + INTRA:         -10.588
REMARK INTER:                  -9.643
REMARK INTRA:                  -0.945
REMARK UNBOUND:                -0.980
REMARK  Name = 
REMARK  7 active torsions:
REMARK  status: ('A' for Active; 'I' for Inactive)
REMARK    1  A    between atoms: C_2  and  C_20
REMARK    2  A    between atoms: N_3  and  C_4
REMARK    3  A    between atoms: C_4  and  C_5
REMARK    4  A    between atoms: C_5  and  N_6
REMARK    5  A    between atoms: C_9  and  C_10
REMARK    6  A    between atoms: C_10  and  N_11
REMARK    7  A    between atoms: N_11  and  C_12
REMARK                            x       y       z     vdW  Elec       q    Type
REMARK                         _______ _______ _______ _____ _____    ______ ____
ROOT
ATOM      1  C   UNL     1      48.653   6.703  16.541  0.00  0.00    +0.000 C 
ENDROOT
BRANCH   1   4
ATOM      2  O   UNL     1      48.575   4.102  17.606  0.00  0.00    +0.000 OA
ATOM      3  C   UNL     1      49.633   4.723  17.629  0.00  0.00    +0.000 C 
ATOM      4  N   UNL     1      49.737   6.024  17.205  0.00  0.00    +0.000 N 
ATOM      5  H   UNL     1      50.649   6.454  17.116  0.00  0.00    +0.000 HD
BRANCH   3   6
ATOM      6  C   UNL     1      50.866   4.132  18.152  0.00  0.00    +0.000 A 
ATOM      7  C   UNL     1      51.630   4.824  19.080  0.00  0.00    +0.000 A 
ATOM      8  S   UNL     1      53.043   3.992  19.548  0.00  0.00    +0.000 S 
ATOM      9  C   UNL     1      52.654   2.656  18.568  0.00  0.00    +0.000 A 
ATOM     10  N   UNL     1      53.453   1.559  18.525  0.00  0.00    +0.000 NA
ATOM     11  C   UNL     1      53.016   0.607  17.769  0.00  0.00    +0.000 A 
ATOM     12  N   UNL     1      51.852   0.652  17.047  0.00  0.00    +0.000 N 
ATOM     13  C   UNL     1      51.041   1.757  17.019  0.00  0.00    +0.000 A 
ATOM     14  O   UNL     1      50.054   1.794  16.290  0.00  0.00    +0.000 OA
ATOM     15  C   UNL     1      51.471   2.850  17.875  0.00  0.00    +0.000 A 
ATOM     16  H   UNL     1      51.575  -0.118  16.457  0.00  0.00    +0.000 HD
ENDBRANCH   3   6
ENDBRANCH   1   4
BRANCH   1  17
ATOM     17  C   UNL     1      49.147   7.674  15.460  0.00  0.00    +0.000 C 
BRANCH  17  18
ATOM     18  N   UNL     1      48.876   7.182  14.095  0.00  0.00    +0.000 NA
ATOM     19  C   UNL     1      47.792   6.186  14.104  0.00  0.00    +0.000 C 
ATOM     20  C   UNL     1      47.469   5.680  12.699  0.00  0.00    +0.000 C 
ATOM     21  C   UNL     1      47.122   6.824  11.740  0.00  0.00    +0.000 C 
ATOM     22  C   UNL     1      48.269   7.846  11.780  0.00  0.00    +0.000 C 
ATOM     23  C   UNL     1      48.573   8.315  13.205  0.00  0.00    +0.000 C 
BRANCH  21  24
ATOM     24  C   UNL     1      45.757   7.431  12.122  0.00  0.00    +0.000 C 
BRANCH  24  25
ATOM     25  N   UNL     1      44.741   7.208  11.095  0.00  0.00    +0.000 NA
ATOM     26  H   UNL     1      45.196   7.132  10.185  0.00  0.00    +0.000 HD
BRANCH  25  27
ATOM     27  C   UNL     1      43.936   6.000  11.343  0.00  0.00    +0.000 C 
ATOM     28  C   UNL     1      43.912   5.737  12.860  0.00  0.00    +0.000 C 
ATOM     29  C   UNL     1      43.148   4.458  13.201  0.00  0.00    +0.000 C 
ATOM     30  C   UNL     1      43.714   3.254  12.456  0.00  0.00    +0.000 C 
ATOM     31  C   UNL     1      43.718   3.494  10.954  0.00  0.00    +0.000 C 
ATOM     32  C   UNL     1      44.475   4.767  10.594  0.00  0.00    +0.000 C 
ENDBRANCH  25  27
ENDBRANCH  24  25
ENDBRANCH  21  24
ENDBRANCH  17  18
ENDBRANCH   1  17
TORSDOF 7
ENDMDL
