MODEL 1
REMARK VINA RESULT:    -7.403      0.000      0.000
REMARK INTER + INTRA:          -9.801
REMARK INTER:                  -9.350
REMARK INTRA:                  -0.450
REMARK UNBOUND:                -0.450
REMARK  Name = 
REMARK  5 active torsions:
REMARK  status: ('A' for Active; 'I' for Inactive)
REMARK    1  A    between atoms: N_1  and  C_2
REMARK    2  A    between atoms: C_2  and  C_3
REMARK    3  A    between atoms: C_3  and  C_4
REMARK    4  A    between atoms: C_8  and  C_9
REMARK    5  A    between atoms: C_9  and  N_10
REMARK                            x       y       z     vdW  Elec       q    Type
REMARK                         _______ _______ _______ _____ _____    ______ ____
ROOT
ATOM      1  C   UNL     1      45.420   5.278  12.562  0.00  0.00    +0.000 A 
ATOM      2  C   UNL     1      44.186   5.164  13.211  0.00  0.00    +0.000 A 
ATOM      3  C   UNL     1      43.033   4.880  12.483  0.00  0.00    +0.000 A 
ATOM      4  C   UNL     1      43.103   4.696  11.102  0.00  0.00    +0.000 A 
ATOM      5  C   UNL     1      44.333   4.799  10.435  0.00  0.00    +0.000 A 
ATOM      6  C   UNL     1      45.488   5.086  11.177  0.00  0.00    +0.000 A 
ENDROOT
BRANCH   1   7
ATOM      7  C   UNL     1      46.666   5.622  13.347  0.00  0.00    +0.000 C 
BRANCH   7   8
ATOM      8  C   UNL     1      46.938   4.656  14.502  0.00  0.00    +0.000 C 
BRANCH   8   9
ATOM      9  N   UNL     1      47.237   3.318  13.994  0.00  0.00    +0.000 NA
ATOM     10  H   UNL     1      48.038   2.933  14.490  0.00  0.00    +0.000 HD
ATOM     11  H   UNL     1      47.513   3.378  13.012  0.00  0.00    +0.000 HD
ENDBRANCH   8   9
ENDBRANCH   7   8
ENDBRANCH   1   7
BRANCH   5  12
ATOM     12  C   UNL     1      44.417   4.575   8.948  0.00  0.00    +0.000 C 
BRANCH  12  13
ATOM     13  N   UNL     1      44.773   3.220   8.549  0.00  0.00    +0.000 N 
ATOM     14  C   UNL     1      44.486   2.077   9.248  0.00  0.00    +0.000 A 
ATOM     15  N   UNL     1      45.324   1.107   8.960  0.00  0.00    +0.000 NA
ATOM     16  C   UNL     1      46.162   1.626   8.007  0.00  0.00    +0.000 A 
ATOM     17  C   UNL     1      47.302   1.063   7.413  0.00  0.00    +0.000 A 
ATOM     18  C   UNL     1      47.998   1.804   6.450  0.00  0.00    +0.000 A 
ATOM     19  C   UNL     1      47.544   3.063   6.053  0.00  0.00    +0.000 A 
ATOM     20  C   UNL     1      46.419   3.648   6.644  0.00  0.00    +0.000 A 
ATOM     21  C   UNL     1      45.775   2.916   7.651  0.00  0.00    +0.000 A 
ENDBRANCH  12  13
ENDBRANCH   5  12
TORSDOF 5
ENDMDL
MODEL 2
REMARK VINA RESULT:    -7.288      1.835      3.110
REMARK INTER + INTRA:          -9.655
REMARK INTER:                  -9.214
REMARK INTRA:                  -0.441
REMARK UNBOUND:                -0.450
REMARK  Name = 
REMARK  5 active torsions:
REMARK  status: ('A' for Active; 'I' for Inactive)
REMARK    1  A    between atoms: N_1  and  C_2
REMARK    2  A    between atoms: C_2  and  C_3
REMARK    3  A    between atoms: C_3  and  C_4
REMARK    4  A    between atoms: C_8  and  C_9
REMARK    5  A    between atoms: C_9  and  N_10
REMARK                            x       y       z     vdW  Elec       q    Type
REMARK                         _______ _______ _______ _____ _____    ______ ____
ROOT
ATOM      1  C   UNL     1      46.948   5.014  13.987  0.00  0.00    +0.000 A 
ATOM      2  C   UNL     1      47.926   6.002  13.831  0.00  0.00    +0.000 A 
ATOM      3  C   UNL     1      47.756   7.016  12.892  0.00  0.00    +0.000 A 
ATOM      4  C   UNL     1      46.604   7.060  12.107  0.00  0.00    +0.000 A 
ATOM      5  C   UNL     1      45.609   6.082  12.255  0.00  0.00    +0.000 A 
ATOM      6  C   UNL     1      45.789   5.065  13.204  0.00  0.00    +0.000 A 
ENDROOT
BRANCH   1   7
ATOM      7  C   UNL     1      47.149   3.893  14.983  0.00  0.00    +0.000 C 
BRANCH   7   8
ATOM      8  C   UNL     1      47.187   4.374  16.434  0.00  0.00    +0.000 C 
BRANCH   8   9
ATOM      9  N   UNL     1      46.716   3.324  17.336  0.00  0.00    +0.000 NA
ATOM     10  H   UNL     1      47.428   2.602  17.427  0.00  0.00    +0.000 HD
ATOM     11  H   UNL     1      45.897   2.866  16.932  0.00  0.00    +0.000 HD
ENDBRANCH   8   9
ENDBRANCH   7   8
ENDBRANCH   1   7
BRANCH   5  12
ATOM     12  C   UNL     1      44.350   6.140  11.430  0.00  0.00    +0.000 C 
BRANCH  12  13
ATOM     13  N   UNL     1      43.928   4.868  10.860  0.00  0.00    +0.000 N 
ATOM     14  C   UNL     1      43.153   3.927  11.486  0.00  0.00    +0.000 A 
ATOM     15  N   UNL     1      43.349   2.726  10.990  0.00  0.00    +0.000 NA
ATOM     16  C   UNL     1      44.254   2.900   9.974  0.00  0.00    +0.000 A 
ATOM     17  C   UNL     1      44.891   1.944   9.169  0.00  0.00    +0.000 A 
ATOM     18  C   UNL     1      45.788   2.379   8.185  0.00  0.00    +0.000 A 
ATOM     19  C   UNL     1      46.012   3.741   7.977  0.00  0.00    +0.000 A 
ATOM     20  C   UNL     1      45.399   4.709   8.780  0.00  0.00    +0.000 A 
ATOM     21  C   UNL     1      44.555   4.248   9.799  0.00  0.00    +0.000 A 
ENDBRANCH  12  13
ENDBRANCH   5  12
TORSDOF 5
ENDMDL
MODEL 3
REMARK VINA RESULT:    -7.082      2.049      6.011
REMARK INTER + INTRA:          -9.395
REMARK INTER:                  -8.811
REMARK INTRA:                  -0.584
REMARK UNBOUND:                -0.450
REMARK  Name = 
REMARK  5 active torsions:
REMARK  status: ('A' for Active; 'I' for Inactive)
REMARK    1  A    between atoms: N_1  and  C_2
REMARK    2  A    between atoms: C_2  and  C_3
REMARK    3  A    between atoms: C_3  and  C_4
REMARK    4  A    between atoms: C_8  and  C_9
REMARK    5  A    between atoms: C_9  and  N_10
REMARK                            x       y       z     vdW  Elec       q    Type
REMARK                         _______ _______ _______ _____ _____    ______ ____
ROOT
ATOM      1  C   UNL     1      45.799   3.521   8.116  0.00  0.00    +0.000 A 
ATOM      2  C   UNL     1      45.621   2.160   8.392  0.00  0.00    +0.000 A 
ATOM      3  C   UNL     1      44.769   1.757   9.417  0.00  0.00    +0.000 A 
ATOM      4  C   UNL     1      44.077   2.707  10.169  0.00  0.00    +0.000 A 
ATOM      5  C   UNL     1      44.237   4.075   9.901  0.00  0.00    +0.000 A 
ATOM      6  C   UNL     1      45.097   4.471   8.867  0.00  0.00    +0.000 A 
ENDROOT
BRANCH   1   7
ATOM      7  C   UNL     1      46.752   3.959   7.026  0.00  0.00    +0.000 C 
BRANCH   7   8
ATOM      8  C   UNL     1      47.123   2.834   6.059  0.00  0.00    +0.000 C 
BRANCH   8   9
ATOM      9  N   UNL     1      48.536   2.483   6.197  0.00  0.00    +0.000 NA
ATOM     10  H   UNL     1      48.978   3.097   6.878  0.00  0.00    +0.000 HD
ATOM     11  H   UNL     1      49.018   2.647   5.312  0.00  0.00    +0.000 HD
ENDBRANCH   8   9
ENDBRANCH   7   8
ENDBRANCH   1   7
BRANCH   5  12
ATOM     12  C   UNL     1      43.471   5.104  10.692  0.00  0.00    +0.000 C 
BRANCH  12  13
ATOM     13  N   UNL     1      44.290   5.980  11.518  0.00  0.00    +0.000 N 
ATOM     14  C   UNL     1      44.567   7.297  11.259  0.00  0.00    +0.000 A 
ATOM     15  N   UNL     1      45.683   7.683  11.835  0.00  0.00    +0.000 NA
ATOM     16  C   UNL     1      46.127   6.586  12.529  0.00  0.00    +0.000 A 
ATOM     17  C   UNL     1      47.320   6.402  13.245  0.00  0.00    +0.000 A 
ATOM     18  C   UNL     1      47.545   5.172  13.876  0.00  0.00    +0.000 A 
ATOM     19  C   UNL     1      46.583   4.162  13.834  0.00  0.00    +0.000 A 
ATOM     20  C   UNL     1      45.395   4.320  13.112  0.00  0.00    +0.000 A 
ATOM     21  C   UNL     1      45.219   5.535  12.436  0.00  0.00    +0.000 A 
ENDBRANCH  12  13
ENDBRANCH   5  12
TORSDOF 5
ENDMDL
MODEL 4
REMARK VINA RESULT:    -6.873      2.002      6.079
REMARK INTER + INTRA:          -9.132
REMARK INTER:                  -8.656
REMARK INTRA:                  -0.476
REMARK UNBOUND:                -0.450
REMARK  Name = 
REMARK  5 active torsions:
REMARK  status: ('A' for Active; 'I' for Inactive)
REMARK    1  A    between atoms: N_1  and  C_2
REMARK    2  A    between atoms: C_2  and  C_3
REMARK    3  A    between atoms: C_3  and  C_4
REMARK    4  A    between atoms: C_8  and  C_9
REMARK    5  A    between atoms: C_9  and  N_10
REMARK                            x       y       z     vdW  Elec       q    Type
REMARK                         _______ _______ _______ _____ _____    ______ ____
ROOT
ATOM      1  C   UNL     1      46.146   2.383   8.021  0.00  0.00    +0.000 A 
ATOM      2  C   UNL     1      46.328   3.705   7.598  0.00  0.00    +0.000 A 
ATOM      3  C   UNL     1      45.637   4.742   8.219  0.00  0.00    +0.000 A 
ATOM      4  C   UNL     1      44.768   4.473   9.276  0.00  0.00    +0.000 A 
ATOM      5  C   UNL     1      44.579   3.155   9.718  0.00  0.00    +0.000 A 
ATOM      6  C   UNL     1      45.278   2.117   9.087  0.00  0.00    +0.000 A 
ENDROOT
BRANCH   1   7
ATOM      7  C   UNL     1      46.869   1.253   7.324  0.00  0.00    +0.000 C 
BRANCH   7   8
ATOM      8  C   UNL     1      48.268   1.638   6.838  0.00  0.00    +0.000 C 
BRANCH   8   9
ATOM      9  N   UNL     1      48.281   1.799   5.385  0.00  0.00    +0.000 NA
ATOM     10  H   UNL     1      47.329   1.911   5.042  0.00  0.00    +0.000 HD
ATOM     11  H   UNL     1      48.642   0.949   4.949  0.00  0.00    +0.000 HD
ENDBRANCH   8   9
ENDBRANCH   7   8
ENDBRANCH   1   7
BRANCH   5  12
ATOM     12  C   UNL     1      43.661   2.862  10.877  0.00  0.00    +0.000 C 
BRANCH  12  13
ATOM     13  N   UNL     1      43.788   3.769  12.008  0.00  0.00    +0.000 N 
ATOM     14  C   UNL     1      42.983   4.848  12.265  0.00  0.00    +0.000 A 
ATOM     15  N   UNL     1      43.594   5.749  13.000  0.00  0.00    +0.000 NA
ATOM     16  C   UNL     1      44.831   5.217  13.266  0.00  0.00    +0.000 A 
ATOM     17  C   UNL     1      45.928   5.790  13.926  0.00  0.00    +0.000 A 
ATOM     18  C   UNL     1      47.097   5.032  14.075  0.00  0.00    +0.000 A 
ATOM     19  C   UNL     1      47.157   3.716  13.615  0.00  0.00    +0.000 A 
ATOM     20  C   UNL     1      46.079   3.133  12.940  0.00  0.00    +0.000 A 
ATOM     21  C   UNL     1      44.943   3.930  12.747  0.00  0.00    +0.000 A 
ENDBRANCH  12  13
ENDBRANCH   5  12
TORSDOF 5
ENDMDL
MODEL 5
REMARK VINA RESULT:    -6.724      2.040      6.197
REMARK INTER + INTRA:          -8.944
REMARK INTER:                  -8.523
REMARK INTRA:                  -0.421
REMARK UNBOUND:                -0.450
REMARK  Name = 
REMARK  5 active torsions:
REMARK  status: ('A' for Active; 'I' for Inactive)
REMARK    1  A    between atoms: N_1  and  C_2
REMARK    2  A    between atoms: C_2  and  C_3
REMARK    3  A    between atoms: C_3  and  C_4
REMARK    4  A    between atoms: C_8  and  C_9
REMARK    5  A    between atoms: C_9  and  N_10
REMARK                            x       y       z     vdW  Elec       q    Type
REMARK                         _______ _______ _______ _____ _____    ______ ____
ROOT
ATOM      1  C   UNL     1      45.780   3.274   7.920  0.00  0.00    +0.000 A 
ATOM      2  C   UNL     1      44.979   2.167   8.222  0.00  0.00    +0.000 A 
ATOM      3  C   UNL     1      44.257   2.127   9.412  0.00  0.00    +0.000 A 
ATOM      4  C   UNL     1      44.317   3.195  10.306  0.00  0.00    +0.000 A 
ATOM      5  C   UNL     1      45.109   4.317  10.016  0.00  0.00    +0.000 A 
ATOM      6  C   UNL     1      45.833   4.348   8.816  0.00  0.00    +0.000 A 
ENDROOT
BRANCH   1   7
ATOM      7  C   UNL     1      46.592   3.302   6.644  0.00  0.00    +0.000 C 
BRANCH   7   8
ATOM      8  C   UNL     1      47.995   2.715   6.808  0.00  0.00    +0.000 C 
BRANCH   8   9
ATOM      9  N   UNL     1      48.340   1.880   5.658  0.00  0.00    +0.000 NA
ATOM     10  H   UNL     1      47.784   2.158   4.852  0.00  0.00    +0.000 HD
ATOM     11  H   UNL     1      48.092   0.908   5.853  0.00  0.00    +0.000 HD
ENDBRANCH   8   9
ENDBRANCH   7   8
ENDBRANCH   1   7
BRANCH   5  12
ATOM     12  C   UNL     1      45.157   5.485  10.966  0.00  0.00    +0.000 C 
BRANCH  12  13
ATOM     13  N   UNL     1      46.088   5.340  12.076  0.00  0.00    +0.000 N 
ATOM     14  C   UNL     1      45.854   4.642  13.232  0.00  0.00    +0.000 A 
ATOM     15  N   UNL     1      46.595   5.082  14.224  0.00  0.00    +0.000 NA
ATOM     16  C   UNL     1      47.370   6.075  13.682  0.00  0.00    +0.000 A 
ATOM     17  C   UNL     1      48.271   6.950  14.307  0.00  0.00    +0.000 A 
ATOM     18  C   UNL     1      48.952   7.892  13.525  0.00  0.00    +0.000 A 
ATOM     19  C   UNL     1      48.773   7.931  12.141  0.00  0.00    +0.000 A 
ATOM     20  C   UNL     1      47.868   7.078  11.501  0.00  0.00    +0.000 A 
ATOM     21  C   UNL     1      47.151   6.188  12.312  0.00  0.00    +0.000 A 
ENDBRANCH  12  13
ENDBRANCH   5  12
TORSDOF 5
ENDMDL
MODEL 6
REMARK VINA RESULT:    -6.460      1.338      2.013
REMARK INTER + INTRA:          -8.610
REMARK INTER:                  -8.172
REMARK INTRA:                  -0.438
REMARK UNBOUND:                -0.450
REMARK  Name = 
REMARK  5 active torsions:
REMARK  status: ('A' for Active; 'I' for Inactive)
REMARK    1  A    between atoms: N_1  and  C_2
REMARK    2  A    between atoms: C_2  and  C_3
REMARK    3  A    between atoms: C_3  and  C_4
REMARK    4  A    between atoms: C_8  and  C_9
REMARK    5  A    between atoms: C_9  and  N_10
REMARK                            x       y       z     vdW  Elec       q    Type
REMARK                         _______ _______ _______ _____ _____    ______ ____
ROOT
ATOM      1  C   UNL     1      45.188   4.601  13.008  0.00  0.00    +0.000 A 
ATOM      2  C   UNL     1      43.984   5.128  13.490  0.00  0.00    +0.000 A 
ATOM      3  C   UNL     1      42.846   5.128  12.687  0.00  0.00    +0.000 A 
ATOM      4  C   UNL     1      42.896   4.594  11.400  0.00  0.00    +0.000 A 
ATOM      5  C   UNL     1      44.092   4.054  10.903  0.00  0.00    +0.000 A 
ATOM      6  C   UNL     1      45.232   4.058  11.719  0.00  0.00    +0.000 A 
ENDROOT
BRANCH   1   7
ATOM      7  C   UNL     1      46.432   4.632  13.868  0.00  0.00    +0.000 C 
BRANCH   7   8
ATOM      8  C   UNL     1      47.459   5.667  13.406  0.00  0.00    +0.000 C 
BRANCH   8   9
ATOM      9  N   UNL     1      47.012   7.019  13.739  0.00  0.00    +0.000 NA
ATOM     10  H   UNL     1      46.573   7.446  12.926  0.00  0.00    +0.000 HD
ATOM     11  H   UNL     1      47.820   7.601  13.965  0.00  0.00    +0.000 HD
ENDBRANCH   8   9
ENDBRANCH   7   8
ENDBRANCH   1   7
BRANCH   5  12
ATOM     12  C   UNL     1      44.144   3.451   9.523  0.00  0.00    +0.000 C 
BRANCH  12  13
ATOM     13  N   UNL     1      45.409   3.622   8.823  0.00  0.00    +0.000 N 
ATOM     14  C   UNL     1      45.893   4.801   8.320  0.00  0.00    +0.000 A 
ATOM     15  N   UNL     1      46.742   4.600   7.337  0.00  0.00    +0.000 NA
ATOM     16  C   UNL     1      46.844   3.237   7.224  0.00  0.00    +0.000 A 
ATOM     17  C   UNL     1      47.536   2.466   6.278  0.00  0.00    +0.000 A 
ATOM     18  C   UNL     1      47.486   1.070   6.377  0.00  0.00    +0.000 A 
ATOM     19  C   UNL     1      46.799   0.453   7.425  0.00  0.00    +0.000 A 
ATOM     20  C   UNL     1      46.091   1.204   8.369  0.00  0.00    +0.000 A 
ATOM     21  C   UNL     1      46.102   2.597   8.213  0.00  0.00    +0.000 A 
ENDBRANCH  12  13
ENDBRANCH   5  12
TORSDOF 5
ENDMDL
MODEL 7
REMARK VINA RESULT:    -5.752      1.831      6.787
REMARK INTER + INTRA:          -7.716
REMARK INTER:                  -7.412
REMARK INTRA:                  -0.304
REMARK UNBOUND:                -0.450
REMARK  Name = 
REMARK  5 active torsions:
REMARK  status: ('A' for Active; 'I' for Inactive)
REMARK    1  A    between atoms: N_1  and  C_2
REMARK    2  A    between atoms: C_2  and  C_3
REMARK    3  A    between atoms: C_3  and  C_4
REMARK    4  A    between atoms: C_8  and  C_9
REMARK    5  A    between atoms: C_9  and  N_10
REMARK                            x       y       z     vdW  Elec       q    Type
REMARK                         _______ _______ _______ _____ _____    ______ ____
ROOT
ATOM      1  C   UNL     1      44.301   4.675  10.275  0.00  0.00    +0.000 A 
ATOM      2  C   UNL     1      43.080   4.646  10.958  0.00  0.00    +0.000 A 
ATOM      3  C   UNL     1      42.996   5.112  12.268  0.00  0.00    +0.000 A 
ATOM      4  C   UNL     1      44.127   5.623  12.904  0.00  0.00    +0.000 A 
ATOM      5  C   UNL     1      45.358   5.667  12.233  0.00  0.00    +0.000 A 
ATOM      6  C   UNL     1      45.433   5.195  10.915  0.00  0.00    +0.000 A 
ENDROOT
BRANCH   1   7
ATOM      7  C   UNL     1      44.399   4.135   8.866  0.00  0.00    +0.000 C 
BRANCH   7   8
ATOM      8  C   UNL     1      45.241   2.862   8.764  0.00  0.00    +0.000 C 
BRANCH   8   9
ATOM      9  N   UNL     1      44.585   1.755   9.457  0.00  0.00    +0.000 NA
ATOM     10  H   UNL     1      43.577   1.899   9.458  0.00  0.00    +0.000 HD
ATOM     11  H   UNL     1      44.872   1.745  10.437  0.00  0.00    +0.000 HD
ENDBRANCH   8   9
ENDBRANCH   7   8
ENDBRANCH   1   7
BRANCH   5  12
ATOM     12  C   UNL     1      46.576   6.242  12.906  0.00  0.00    +0.000 C 
BRANCH  12  13
ATOM     13  N   UNL     1      47.240   5.350  13.846  0.00  0.00    +0.000 N 
ATOM     14  C   UNL     1      46.939   4.028  14.045  0.00  0.00    +0.000 A 
ATOM     15  N   UNL     1      47.300   3.620  15.241  0.00  0.00    +0.000 NA
ATOM     16  C   UNL     1      47.896   4.708  15.827  0.00  0.00    +0.000 A 
ATOM     17  C   UNL     1      48.378   4.869  17.135  0.00  0.00    +0.000 A 
ATOM     18  C   UNL     1      48.952   6.093  17.497  0.00  0.00    +0.000 A 
ATOM     19  C   UNL     1      49.085   7.123  16.563  0.00  0.00    +0.000 A 
ATOM     20  C   UNL     1      48.596   6.988  15.259  0.00  0.00    +0.000 A 
ATOM     21  C   UNL     1      47.969   5.777  14.937  0.00  0.00    +0.000 A 
ENDBRANCH  12  13
ENDBRANCH   5  12
TORSDOF 5
ENDMDL
MODEL 8
REMARK VINA RESULT:    -5.746      2.388      6.477
REMARK INTER + INTRA:          -7.708
REMARK INTER:                  -7.336
REMARK INTRA:                  -0.372
REMARK UNBOUND:                -0.450
REMARK  Name = 
REMARK  5 active torsions:
REMARK  status: ('A' for Active; 'I' for Inactive)
REMARK    1  A    between atoms: N_1  and  C_2
REMARK    2  A    between atoms: C_2  and  C_3
REMARK    3  A    between atoms: C_3  and  C_4
REMARK    4  A    between atoms: C_8  and  C_9
REMARK    5  A    between atoms: C_9  and  N_10
REMARK                            x       y       z     vdW  Elec       q    Type
REMARK                         _______ _______ _______ _____ _____    ______ ____
ROOT
ATOM      1  C   UNL     1      44.732   3.788   9.460  0.00  0.00    +0.000 A 
ATOM      2  C   UNL     1      44.063   2.728  10.083  0.00  0.00    +0.000 A 
ATOM      3  C   UNL     1      43.797   2.772  11.449  0.00  0.00    +0.000 A 
ATOM      4  C   UNL     1      44.185   3.878  12.205  0.00  0.00    +0.000 A 
ATOM      5  C   UNL     1      44.850   4.954  11.596  0.00  0.00    +0.000 A 
ATOM      6  C   UNL     1      45.113   4.901  10.220  0.00  0.00    +0.000 A 
ENDROOT
BRANCH   1   7
ATOM      7  C   UNL     1      45.052   3.725   7.984  0.00  0.00    +0.000 C 
BRANCH   7   8
ATOM      8  C   UNL     1      46.554   3.686   7.692  0.00  0.00    +0.000 C 
BRANCH   8   9
ATOM      9  N   UNL     1      46.820   4.086   6.311  0.00  0.00    +0.000 NA
ATOM     10  H   UNL     1      46.259   3.522   5.676  0.00  0.00    +0.000 HD
ATOM     11  H   UNL     1      47.795   3.891   6.079  0.00  0.00    +0.000 HD
ENDBRANCH   8   9
ENDBRANCH   7   8
ENDBRANCH   1   7
BRANCH   5  12
ATOM     12  C   UNL     1      45.247   6.162  12.402  0.00  0.00    +0.000 C 
BRANCH  12  13
ATOM     13  N   UNL     1      46.610   6.141  12.914  0.00  0.00    +0.000 N 
ATOM     14  C   UNL     1      47.137   5.193  13.751  0.00  0.00    +0.000 A 
ATOM     15  N   UNL     1      48.153   5.661  14.440  0.00  0.00    +0.000 NA
ATOM     16  C   UNL     1      48.318   6.952  14.005  0.00  0.00    +0.000 A 
ATOM     17  C   UNL     1      49.192   7.948  14.467  0.00  0.00    +0.000 A 
ATOM     18  C   UNL     1      49.171   9.204  13.848  0.00  0.00    +0.000 A 
ATOM     19  C   UNL     1      48.330   9.450  12.762  0.00  0.00    +0.000 A 
ATOM     20  C   UNL     1      47.441   8.475  12.296  0.00  0.00    +0.000 A 
ATOM     21  C   UNL     1      47.433   7.247  12.971  0.00  0.00    +0.000 A 
ENDBRANCH  12  13
ENDBRANCH   5  12
TORSDOF 5
ENDMDL
MODEL 9
REMARK VINA RESULT:    -5.573      3.870      7.441
REMARK INTER + INTRA:          -7.489
REMARK INTER:                  -6.920
REMARK INTRA:                  -0.569
REMARK UNBOUND:                -0.450
REMARK  Name = 
REMARK  5 active torsions:
REMARK  status: ('A' for Active; 'I' for Inactive)
REMARK    1  A    between atoms: N_1  and  C_2
REMARK    2  A    between atoms: C_2  and  C_3
REMARK    3  A    between atoms: C_3  and  C_4
REMARK    4  A    between atoms: C_8  and  C_9
REMARK    5  A    between atoms: C_9  and  N_10
REMARK                            x       y       z     vdW  Elec       q    Type
REMARK                         _______ _______ _______ _____ _____    ______ ____
ROOT
ATOM      1  C   UNL     1      44.322   5.557  12.330  0.00  0.00    +0.000 A 
ATOM      2  C   UNL     1      44.131   6.804  11.726  0.00  0.00    +0.000 A 
ATOM      3  C   UNL     1      45.170   7.731  11.685  0.00  0.00    +0.000 A 
ATOM      4  C   UNL     1      46.412   7.418  12.236  0.00  0.00    +0.000 A 
ATOM      5  C   UNL     1      46.624   6.169  12.839  0.00  0.00    +0.000 A 
ATOM      6  C   UNL     1      45.573   5.242  12.875  0.00  0.00    +0.000 A 
ENDROOT
BRANCH   1   7
ATOM      7  C   UNL     1      43.184   4.564  12.406  0.00  0.00    +0.000 C 
BRANCH   7   8
ATOM      8  C   UNL     1      43.408   3.321  11.543  0.00  0.00    +0.000 C 
BRANCH   8   9
ATOM      9  N   UNL     1      43.458   2.119  12.375  0.00  0.00    +0.000 NA
ATOM     10  H   UNL     1      43.794   2.359  13.305  0.00  0.00    +0.000 HD
ATOM     11  H   UNL     1      44.137   1.462  11.988  0.00  0.00    +0.000 HD
ENDBRANCH   8   9
ENDBRANCH   7   8
ENDBRANCH   1   7
BRANCH   5  12
ATOM     12  C   UNL     1      47.972   5.815  13.411  0.00  0.00    +0.000 C 
BRANCH  12  13
ATOM     13  N   UNL     1      48.144   6.129  14.823  0.00  0.00    +0.000 N 
ATOM     14  C   UNL     1      48.855   7.186  15.327  0.00  0.00    +0.000 A 
ATOM     15  N   UNL     1      49.270   6.953  16.553  0.00  0.00    +0.000 NA
ATOM     16  C   UNL     1      48.773   5.715  16.871  0.00  0.00    +0.000 A 
ATOM     17  C   UNL     1      48.987   4.932  18.016  0.00  0.00    +0.000 A 
ATOM     18  C   UNL     1      48.358   3.684  18.107  0.00  0.00    +0.000 A 
ATOM     19  C   UNL     1      47.497   3.243  17.100  0.00  0.00    +0.000 A 
ATOM     20  C   UNL     1      47.284   4.002  15.944  0.00  0.00    +0.000 A 
ATOM     21  C   UNL     1      47.973   5.219  15.845  0.00  0.00    +0.000 A 
ENDBRANCH  12  13
ENDBRANCH   5  12
TORSDOF 5
ENDMDL
