MODEL 1
REMARK VINA RESULT:    -8.016      0.000      0.000
REMARK INTER + INTRA:         -12.885
REMARK INTER:                 -11.765
REMARK INTRA:                  -1.121
REMARK UNBOUND:                -1.121
REMARK  Name = 
REMARK  9 active torsions:
REMARK  status: ('A' for Active; 'I' for Inactive)
REMARK    1  A    between atoms: C_1  and  C_2
REMARK    2  A    between atoms: C_2  and  C_3
REMARK    3  A    between atoms: C_7  and  C_8
REMARK    4  A    between atoms: C_8  and  C_9
REMARK    5  A    between atoms: C_9  and  N_10
REMARK    6  A    between atoms: N_10  and  C_11
REMARK    7  A    between atoms: C_14  and  C_15
REMARK    8  A    between atoms: N_24  and  C_25
REMARK    9  A    between atoms: C_25  and  C_26
REMARK                            x       y       z     vdW  Elec       q    Type
REMARK                         _______ _______ _______ _____ _____    ______ ____
ROOT
ATOM      1  C   UNL     1      46.768   6.779  13.016  0.00  0.00    +0.000 A 
ATOM      2  C   UNL     1      47.432   5.662  13.546  0.00  0.00    +0.000 A 
ATOM      3  C   UNL     1      46.789   4.425  13.656  0.00  0.00    +0.000 A 
ATOM      4  C   UNL     1      45.460   4.278  13.256  0.00  0.00    +0.000 A 
ATOM      5  C   UNL     1      44.762   5.364  12.723  0.00  0.00    +0.000 A 
ATOM      6  C   UNL     1      45.446   6.588  12.590  0.00  0.00    +0.000 A 
ENDROOT
BRANCH   1   8
ATOM      7  C   UNL     1      46.369   9.174  12.485  0.00  0.00    +0.000 C 
ATOM      8  C   UNL     1      47.436   8.175  12.996  0.00  0.00    +0.000 C 
ATOM      9  C   UNL     1      47.925   8.555  14.416  0.00  0.00    +0.000 C 
ATOM     10  C   UNL     1      48.684   9.884  14.434  0.00  0.00    +0.000 C 
ATOM     11  C   UNL     1      49.830   9.905  13.423  0.00  0.00    +0.000 C 
ATOM     12  N   UNL     1      49.370   9.561  12.073  0.00  0.00    +0.000 NA
ATOM     13  C   UNL     1      48.684   8.258  12.050  0.00  0.00    +0.000 C 
BRANCH  12  14
ATOM     14  C   UNL     1      50.489   9.600  11.088  0.00  0.00    +0.000 C 
BRANCH  14  15
ATOM     15  C   UNL     1      51.547   8.470  11.012  0.00  0.00    +0.000 C 
ATOM     16  F   UNL     1      52.004   8.081  12.223  0.00  0.00    +0.000 F 
ATOM     17  F   UNL     1      51.031   7.369  10.415  0.00  0.00    +0.000 F 
ATOM     18  F   UNL     1      52.620   8.862  10.287  0.00  0.00    +0.000 F 
ENDBRANCH  14  15
ENDBRANCH  12  14
ENDBRANCH   1   8
BRANCH   5  19
ATOM     19  C   UNL     1      43.293   5.212  12.354  0.00  0.00    +0.000 C 
BRANCH  19  20
ATOM     20  C   UNL     1      43.071   4.393  11.075  0.00  0.00    +0.000 C 
BRANCH  20  21
ATOM     21  N   UNL     1      43.764   4.920   9.900  0.00  0.00    +0.000 N 
ATOM     22  H   UNL     1      44.296   5.762  10.112  0.00  0.00    +0.000 HD
BRANCH  21  23
ATOM     23  C   UNL     1      44.559   3.973   9.212  0.00  0.00    +0.000 A 
ATOM     24  C   UNL     1      45.430   4.314   8.168  0.00  0.00    +0.000 A 
ATOM     25  C   UNL     1      46.247   3.356   7.572  0.00  0.00    +0.000 A 
ATOM     26  C   UNL     1      46.200   2.064   8.063  0.00  0.00    +0.000 A 
ATOM     27  N   UNL     1      45.401   1.675   9.095  0.00  0.00    +0.000 NA
ATOM     28  C   UNL     1      44.622   2.644   9.644  0.00  0.00    +0.000 A 
BRANCH  26  29
ATOM     29  C   UNL     1      47.095   1.023   7.468  0.00  0.00    +0.000 C 
ATOM     30  N   UNL     1      46.701  -0.272   7.675  0.00  0.00    +0.000 N 
ATOM     31  O   UNL     1      48.110   1.295   6.846  0.00  0.00    +0.000 OA
ATOM     32  H   UNL     1      45.871  -0.454   8.227  0.00  0.00    +0.000 HD
ATOM     33  H   UNL     1      47.283  -1.025   7.344  0.00  0.00    +0.000 HD
ENDBRANCH  26  29
ENDBRANCH  21  23
ENDBRANCH  20  21
ENDBRANCH  19  20
ENDBRANCH   5  19
TORSDOF 8
ENDMDL
MODEL 2
REMARK VINA RESULT:    -7.926      3.435      4.302
REMARK INTER + INTRA:         -12.754
REMARK INTER:                 -11.829
REMARK INTRA:                  -0.924
REMARK UNBOUND:                -1.121
REMARK  Name = 
REMARK  9 active torsions:
REMARK  status: ('A' for Active; 'I' for Inactive)
REMARK    1  A    between atoms: C_1  and  C_2
REMARK    2  A    between atoms: C_2  and  C_3
REMARK    3  A    between atoms: C_7  and  C_8
REMARK    4  A    between atoms: C_8  and  C_9
REMARK    5  A    between atoms: C_9  and  N_10
REMARK    6  A    between atoms: N_10  and  C_11
REMARK    7  A    between atoms: C_14  and  C_15
REMARK    8  A    between atoms: N_24  and  C_25
REMARK    9  A    between atoms: C_25  and  C_26
REMARK                            x       y       z     vdW  Elec       q    Type
REMARK                         _______ _______ _______ _____ _____    ______ ____
ROOT
ATOM      1  C   UNL     1      46.494   6.852  13.143  0.00  0.00    +0.000 A 
ATOM      2  C   UNL     1      46.180   7.781  12.140  0.00  0.00    +0.000 A 
ATOM      3  C   UNL     1      45.026   7.642  11.362  0.00  0.00    +0.000 A 
ATOM      4  C   UNL     1      44.165   6.560  11.556  0.00  0.00    +0.000 A 
ATOM      5  C   UNL     1      44.440   5.613  12.545  0.00  0.00    +0.000 A 
ATOM      6  C   UNL     1      45.590   5.797  13.337  0.00  0.00    +0.000 A 
ENDROOT
BRANCH   1   8
ATOM      7  C   UNL     1      48.963   6.679  12.912  0.00  0.00    +0.000 C 
ATOM      8  C   UNL     1      47.824   6.937  13.929  0.00  0.00    +0.000 C 
ATOM      9  C   UNL     1      47.968   8.332  14.589  0.00  0.00    +0.000 C 
ATOM     10  C   UNL     1      49.219   8.435  15.463  0.00  0.00    +0.000 C 
ATOM     11  C   UNL     1      49.291   7.315  16.501  0.00  0.00    +0.000 C 
ATOM     12  N   UNL     1      49.171   5.991  15.880  0.00  0.00    +0.000 NA
ATOM     13  C   UNL     1      47.940   5.878  15.079  0.00  0.00    +0.000 C 
BRANCH  12  14
ATOM     14  C   UNL     1      49.260   4.902  16.894  0.00  0.00    +0.000 C 
BRANCH  14  15
ATOM     15  C   UNL     1      48.021   4.446  17.709  0.00  0.00    +0.000 C 
ATOM     16  F   UNL     1      47.207   3.614  17.024  0.00  0.00    +0.000 F 
ATOM     17  F   UNL     1      48.401   3.788  18.830  0.00  0.00    +0.000 F 
ATOM     18  F   UNL     1      47.278   5.509  18.090  0.00  0.00    +0.000 F 
ENDBRANCH  14  15
ENDBRANCH  12  14
ENDBRANCH   1   8
BRANCH   5  19
ATOM     19  C   UNL     1      43.533   4.400  12.703  0.00  0.00    +0.000 C 
BRANCH  19  20
ATOM     20  C   UNL     1      43.881   3.254  11.743  0.00  0.00    +0.000 C 
BRANCH  20  21
ATOM     21  N   UNL     1      43.570   3.533  10.341  0.00  0.00    +0.000 N 
ATOM     22  H   UNL     1      43.231   4.484  10.204  0.00  0.00    +0.000 HD
BRANCH  21  23
ATOM     23  C   UNL     1      44.612   3.225   9.436  0.00  0.00    +0.000 A 
ATOM     24  C   UNL     1      45.078   1.922   9.215  0.00  0.00    +0.000 A 
ATOM     25  C   UNL     1      46.056   1.660   8.257  0.00  0.00    +0.000 A 
ATOM     26  C   UNL     1      46.529   2.720   7.505  0.00  0.00    +0.000 A 
ATOM     27  N   UNL     1      46.096   4.003   7.647  0.00  0.00    +0.000 NA
ATOM     28  C   UNL     1      45.142   4.208   8.594  0.00  0.00    +0.000 A 
BRANCH  26  29
ATOM     29  C   UNL     1      47.552   2.463   6.443  0.00  0.00    +0.000 C 
ATOM     30  N   UNL     1      47.385   3.179   5.288  0.00  0.00    +0.000 N 
ATOM     31  O   UNL     1      48.470   1.669   6.582  0.00  0.00    +0.000 OA
ATOM     32  H   UNL     1      46.590   3.800   5.202  0.00  0.00    +0.000 HD
ATOM     33  H   UNL     1      48.009   3.020   4.513  0.00  0.00    +0.000 HD
ENDBRANCH  26  29
ENDBRANCH  21  23
ENDBRANCH  20  21
ENDBRANCH  19  20
ENDBRANCH   5  19
TORSDOF 8
ENDMDL
MODEL 3
REMARK VINA RESULT:    -7.658      4.264      7.717
REMARK INTER + INTRA:         -12.360
REMARK INTER:                 -11.059
REMARK INTRA:                  -1.301
REMARK UNBOUND:                -1.121
REMARK  Name = 
REMARK  9 active torsions:
REMARK  status: ('A' for Active; 'I' for Inactive)
REMARK    1  A    between atoms: C_1  and  C_2
REMARK    2  A    between atoms: C_2  and  C_3
REMARK    3  A    between atoms: C_7  and  C_8
REMARK    4  A    between atoms: C_8  and  C_9
REMARK    5  A    between atoms: C_9  and  N_10
REMARK    6  A    between atoms: N_10  and  C_11
REMARK    7  A    between atoms: C_14  and  C_15
REMARK    8  A    between atoms: N_24  and  C_25
REMARK    9  A    between atoms: C_25  and  C_26
REMARK                            x       y       z     vdW  Elec       q    Type
REMARK                         _______ _______ _______ _____ _____    ______ ____
ROOT
ATOM      1  C   UNL     1      47.023   6.718  12.569  0.00  0.00    +0.000 A 
ATOM      2  C   UNL     1      47.917   7.097  11.556  0.00  0.00    +0.000 A 
ATOM      3  C   UNL     1      48.873   8.095  11.774  0.00  0.00    +0.000 A 
ATOM      4  C   UNL     1      48.949   8.750  13.004  0.00  0.00    +0.000 A 
ATOM      5  C   UNL     1      48.078   8.402  14.039  0.00  0.00    +0.000 A 
ATOM      6  C   UNL     1      47.149   7.370  13.804  0.00  0.00    +0.000 A 
ENDROOT
BRANCH   1   8
ATOM      7  C   UNL     1      46.337   4.357  12.936  0.00  0.00    +0.000 C 
ATOM      8  C   UNL     1      45.892   5.698  12.300  0.00  0.00    +0.000 C 
ATOM      9  C   UNL     1      44.562   6.197  12.919  0.00  0.00    +0.000 C 
ATOM     10  C   UNL     1      43.386   5.273  12.595  0.00  0.00    +0.000 C 
ATOM     11  C   UNL     1      43.246   5.025  11.094  0.00  0.00    +0.000 C 
ATOM     12  N   UNL     1      44.497   4.537  10.504  0.00  0.00    +0.000 NA
ATOM     13  C   UNL     1      45.618   5.454  10.775  0.00  0.00    +0.000 C 
BRANCH  12  14
ATOM     14  C   UNL     1      44.350   4.280   9.043  0.00  0.00    +0.000 C 
BRANCH  14  15
ATOM     15  C   UNL     1      45.481   3.617   8.215  0.00  0.00    +0.000 C 
ATOM     16  F   UNL     1      45.088   3.237   6.979  0.00  0.00    +0.000 F 
ATOM     17  F   UNL     1      46.519   4.471   8.051  0.00  0.00    +0.000 F 
ATOM     18  F   UNL     1      45.953   2.515   8.841  0.00  0.00    +0.000 F 
ENDBRANCH  14  15
ENDBRANCH  12  14
ENDBRANCH   1   8
BRANCH   5  19
ATOM     19  C   UNL     1      48.122   9.170  15.353  0.00  0.00    +0.000 C 
BRANCH  19  20
ATOM     20  C   UNL     1      49.020   8.512  16.409  0.00  0.00    +0.000 C 
BRANCH  20  21
ATOM     21  N   UNL     1      48.305   7.652  17.351  0.00  0.00    +0.000 N 
ATOM     22  H   UNL     1      47.294   7.744  17.265  0.00  0.00    +0.000 HD
BRANCH  21  23
ATOM     23  C   UNL     1      48.700   6.294  17.325  0.00  0.00    +0.000 A 
ATOM     24  C   UNL     1      47.790   5.229  17.280  0.00  0.00    +0.000 A 
ATOM     25  C   UNL     1      48.230   3.911  17.179  0.00  0.00    +0.000 A 
ATOM     26  C   UNL     1      49.591   3.685  17.088  0.00  0.00    +0.000 A 
ATOM     27  N   UNL     1      50.525   4.676  17.093  0.00  0.00    +0.000 NA
ATOM     28  C   UNL     1      50.048   5.944  17.194  0.00  0.00    +0.000 A 
BRANCH  26  29
ATOM     29  C   UNL     1      50.091   2.282  16.941  0.00  0.00    +0.000 C 
ATOM     30  N   UNL     1      51.017   1.893  17.870  0.00  0.00    +0.000 N 
ATOM     31  O   UNL     1      49.712   1.531  16.055  0.00  0.00    +0.000 OA
ATOM     32  H   UNL     1      51.330   2.559  18.566  0.00  0.00    +0.000 HD
ATOM     33  H   UNL     1      51.433   0.977  17.800  0.00  0.00    +0.000 HD
ENDBRANCH  26  29
ENDBRANCH  21  23
ENDBRANCH  20  21
ENDBRANCH  19  20
ENDBRANCH   5  19
TORSDOF 8
ENDMDL
MODEL 4
REMARK VINA RESULT:    -7.583      1.684      2.391
REMARK INTER + INTRA:         -12.251
REMARK INTER:                 -10.951
REMARK INTRA:                  -1.299
REMARK UNBOUND:                -1.121
REMARK  Name = 
REMARK  9 active torsions:
REMARK  status: ('A' for Active; 'I' for Inactive)
REMARK    1  A    between atoms: C_1  and  C_2
REMARK    2  A    between atoms: C_2  and  C_3
REMARK    3  A    between atoms: C_7  and  C_8
REMARK    4  A    between atoms: C_8  and  C_9
REMARK    5  A    between atoms: C_9  and  N_10
REMARK    6  A    between atoms: N_10  and  C_11
REMARK    7  A    between atoms: C_14  and  C_15
REMARK    8  A    between atoms: N_24  and  C_25
REMARK    9  A    between atoms: C_25  and  C_26
REMARK                            x       y       z     vdW  Elec       q    Type
REMARK                         _______ _______ _______ _____ _____    ______ ____
ROOT
ATOM      1  C   UNL     1      47.142   6.864  12.836  0.00  0.00    +0.000 A 
ATOM      2  C   UNL     1      47.647   5.850  13.664  0.00  0.00    +0.000 A 
ATOM      3  C   UNL     1      46.863   4.745  14.012  0.00  0.00    +0.000 A 
ATOM      4  C   UNL     1      45.549   4.634  13.554  0.00  0.00    +0.000 A 
ATOM      5  C   UNL     1      45.008   5.621  12.727  0.00  0.00    +0.000 A 
ATOM      6  C   UNL     1      45.831   6.704  12.363  0.00  0.00    +0.000 A 
ENDROOT
BRANCH   1   8
ATOM      7  C   UNL     1      48.960   7.782  11.411  0.00  0.00    +0.000 C 
ATOM      8  C   UNL     1      47.963   8.142  12.540  0.00  0.00    +0.000 C 
ATOM      9  C   UNL     1      47.022   9.295  12.109  0.00  0.00    +0.000 C 
ATOM     10  C   UNL     1      47.773  10.612  11.902  0.00  0.00    +0.000 C 
ATOM     11  C   UNL     1      48.607  10.997  13.123  0.00  0.00    +0.000 C 
ATOM     12  N   UNL     1      49.512   9.915  13.526  0.00  0.00    +0.000 NA
ATOM     13  C   UNL     1      48.780   8.660  13.773  0.00  0.00    +0.000 C 
BRANCH  12  14
ATOM     14  C   UNL     1      50.336  10.302  14.707  0.00  0.00    +0.000 C 
BRANCH  14  15
ATOM     15  C   UNL     1      51.487   9.402  15.227  0.00  0.00    +0.000 C 
ATOM     16  F   UNL     1      52.024   8.613  14.271  0.00  0.00    +0.000 F 
ATOM     17  F   UNL     1      52.496  10.155  15.727  0.00  0.00    +0.000 F 
ATOM     18  F   UNL     1      51.053   8.591  16.218  0.00  0.00    +0.000 F 
ENDBRANCH  14  15
ENDBRANCH  12  14
ENDBRANCH   1   8
BRANCH   5  19
ATOM     19  C   UNL     1      43.552   5.527  12.290  0.00  0.00    +0.000 C 
BRANCH  19  20
ATOM     20  C   UNL     1      43.385   5.060  10.838  0.00  0.00    +0.000 C 
BRANCH  20  21
ATOM     21  N   UNL     1      43.653   3.637  10.633  0.00  0.00    +0.000 N 
ATOM     22  H   UNL     1      42.797   3.092  10.549  0.00  0.00    +0.000 HD
BRANCH  21  23
ATOM     23  C   UNL     1      44.546   3.354   9.572  0.00  0.00    +0.000 A 
ATOM     24  C   UNL     1      45.164   4.349   8.803  0.00  0.00    +0.000 A 
ATOM     25  C   UNL     1      46.094   4.021   7.818  0.00  0.00    +0.000 A 
ATOM     26  C   UNL     1      46.416   2.688   7.645  0.00  0.00    +0.000 A 
ATOM     27  N   UNL     1      45.876   1.676   8.381  0.00  0.00    +0.000 NA
ATOM     28  C   UNL     1      44.975   2.045   9.328  0.00  0.00    +0.000 A 
BRANCH  26  29
ATOM     29  C   UNL     1      47.440   2.309   6.621  0.00  0.00    +0.000 C 
ATOM     30  N   UNL     1      47.349   2.979   5.431  0.00  0.00    +0.000 N 
ATOM     31  O   UNL     1      48.295   1.460   6.818  0.00  0.00    +0.000 OA
ATOM     32  H   UNL     1      46.602   3.650   5.297  0.00  0.00    +0.000 HD
ATOM     33  H   UNL     1      47.976   2.740   4.679  0.00  0.00    +0.000 HD
ENDBRANCH  26  29
ENDBRANCH  21  23
ENDBRANCH  20  21
ENDBRANCH  19  20
ENDBRANCH   5  19
TORSDOF 8
ENDMDL
MODEL 5
REMARK VINA RESULT:    -7.456      3.025      4.000
REMARK INTER + INTRA:         -12.063
REMARK INTER:                 -11.148
REMARK INTRA:                  -0.915
REMARK UNBOUND:                -1.121
REMARK  Name = 
REMARK  9 active torsions:
REMARK  status: ('A' for Active; 'I' for Inactive)
REMARK    1  A    between atoms: C_1  and  C_2
REMARK    2  A    between atoms: C_2  and  C_3
REMARK    3  A    between atoms: C_7  and  C_8
REMARK    4  A    between atoms: C_8  and  C_9
REMARK    5  A    between atoms: C_9  and  N_10
REMARK    6  A    between atoms: N_10  and  C_11
REMARK    7  A    between atoms: C_14  and  C_15
REMARK    8  A    between atoms: N_24  and  C_25
REMARK    9  A    between atoms: C_25  and  C_26
REMARK                            x       y       z     vdW  Elec       q    Type
REMARK                         _______ _______ _______ _____ _____    ______ ____
ROOT
ATOM      1  C   UNL     1      47.426   7.603  13.705  0.00  0.00    +0.000 A 
ATOM      2  C   UNL     1      46.771   8.720  13.161  0.00  0.00    +0.000 A 
ATOM      3  C   UNL     1      45.743   8.568  12.226  0.00  0.00    +0.000 A 
ATOM      4  C   UNL     1      45.353   7.298  11.799  0.00  0.00    +0.000 A 
ATOM      5  C   UNL     1      45.977   6.161  12.315  0.00  0.00    +0.000 A 
ATOM      6  C   UNL     1      46.985   6.341  13.282  0.00  0.00    +0.000 A 
ENDROOT
BRANCH   1   8
ATOM      7  C   UNL     1      49.908   7.510  13.803  0.00  0.00    +0.000 C 
ATOM      8  C   UNL     1      48.638   7.766  14.652  0.00  0.00    +0.000 C 
ATOM      9  C   UNL     1      48.652   9.189  15.265  0.00  0.00    +0.000 C 
ATOM     10  C   UNL     1      49.775   9.371  16.289  0.00  0.00    +0.000 C 
ATOM     11  C   UNL     1      49.744   8.295  17.374  0.00  0.00    +0.000 C 
ATOM     12  N   UNL     1      49.746   6.945  16.800  0.00  0.00    +0.000 NA
ATOM     13  C   UNL     1      48.635   6.757  15.852  0.00  0.00    +0.000 C 
BRANCH  12  14
ATOM     14  C   UNL     1      49.734   5.899  17.863  0.00  0.00    +0.000 C 
BRANCH  14  15
ATOM     15  C   UNL     1      50.383   4.508  17.644  0.00  0.00    +0.000 C 
ATOM     16  F   UNL     1      51.535   4.559  16.941  0.00  0.00    +0.000 F 
ATOM     17  F   UNL     1      50.672   3.922  18.831  0.00  0.00    +0.000 F 
ATOM     18  F   UNL     1      49.543   3.685  16.977  0.00  0.00    +0.000 F 
ENDBRANCH  14  15
ENDBRANCH  12  14
ENDBRANCH   1   8
BRANCH   5  19
ATOM     19  C   UNL     1      45.593   4.784  11.791  0.00  0.00    +0.000 C 
BRANCH  19  20
ATOM     20  C   UNL     1      44.092   4.640  11.510  0.00  0.00    +0.000 C 
BRANCH  20  21
ATOM     21  N   UNL     1      43.745   4.659  10.089  0.00  0.00    +0.000 N 
ATOM     22  H   UNL     1      43.644   5.607   9.730  0.00  0.00    +0.000 HD
BRANCH  21  23
ATOM     23  C   UNL     1      44.599   3.888   9.265  0.00  0.00    +0.000 A 
ATOM     24  C   UNL     1      45.533   4.452   8.385  0.00  0.00    +0.000 A 
ATOM     25  C   UNL     1      46.404   3.651   7.651  0.00  0.00    +0.000 A 
ATOM     26  C   UNL     1      46.344   2.282   7.840  0.00  0.00    +0.000 A 
ATOM     27  N   UNL     1      45.483   1.673   8.701  0.00  0.00    +0.000 NA
ATOM     28  C   UNL     1      44.654   2.496   9.395  0.00  0.00    +0.000 A 
BRANCH  26  29
ATOM     29  C   UNL     1      47.293   1.398   7.092  0.00  0.00    +0.000 C 
ATOM     30  N   UNL     1      48.421   2.017   6.626  0.00  0.00    +0.000 N 
ATOM     31  O   UNL     1      47.083   0.211   6.898  0.00  0.00    +0.000 OA
ATOM     32  H   UNL     1      48.539   3.012   6.778  0.00  0.00    +0.000 HD
ATOM     33  H   UNL     1      49.080   1.493   6.072  0.00  0.00    +0.000 HD
ENDBRANCH  26  29
ENDBRANCH  21  23
ENDBRANCH  20  21
ENDBRANCH  19  20
ENDBRANCH   5  19
TORSDOF 8
ENDMDL
MODEL 6
REMARK VINA RESULT:    -7.382      4.102      7.784
REMARK INTER + INTRA:         -11.955
REMARK INTER:                 -10.697
REMARK INTRA:                  -1.259
REMARK UNBOUND:                -1.121
REMARK  Name = 
REMARK  9 active torsions:
REMARK  status: ('A' for Active; 'I' for Inactive)
REMARK    1  A    between atoms: C_1  and  C_2
REMARK    2  A    between atoms: C_2  and  C_3
REMARK    3  A    between atoms: C_7  and  C_8
REMARK    4  A    between atoms: C_8  and  C_9
REMARK    5  A    between atoms: C_9  and  N_10
REMARK    6  A    between atoms: N_10  and  C_11
REMARK    7  A    between atoms: C_14  and  C_15
REMARK    8  A    between atoms: N_24  and  C_25
REMARK    9  A    between atoms: C_25  and  C_26
REMARK                            x       y       z     vdW  Elec       q    Type
REMARK                         _______ _______ _______ _____ _____    ______ ____
ROOT
ATOM      1  C   UNL     1      46.111   7.369  11.978  0.00  0.00    +0.000 A 
ATOM      2  C   UNL     1      45.275   8.496  11.996  0.00  0.00    +0.000 A 
ATOM      3  C   UNL     1      45.786   9.769  12.266  0.00  0.00    +0.000 A 
ATOM      4  C   UNL     1      47.143   9.946  12.539  0.00  0.00    +0.000 A 
ATOM      5  C   UNL     1      48.010   8.851  12.529  0.00  0.00    +0.000 A 
ATOM      6  C   UNL     1      47.475   7.586  12.220  0.00  0.00    +0.000 A 
ENDROOT
BRANCH   1   8
ATOM      7  C   UNL     1      46.558   4.963  12.415  0.00  0.00    +0.000 C 
ATOM      8  C   UNL     1      45.534   5.944  11.793  0.00  0.00    +0.000 C 
ATOM      9  C   UNL     1      44.155   5.830  12.489  0.00  0.00    +0.000 C 
ATOM     10  C   UNL     1      43.493   4.472  12.251  0.00  0.00    +0.000 C 
ATOM     11  C   UNL     1      43.400   4.129  10.765  0.00  0.00    +0.000 C 
ATOM     12  N   UNL     1      44.706   4.220  10.103  0.00  0.00    +0.000 NA
ATOM     13  C   UNL     1      45.318   5.546  10.292  0.00  0.00    +0.000 C 
BRANCH  12  14
ATOM     14  C   UNL     1      44.612   3.868   8.657  0.00  0.00    +0.000 C 
BRANCH  14  15
ATOM     15  C   UNL     1      45.855   3.418   7.847  0.00  0.00    +0.000 C 
ATOM     16  F   UNL     1      46.444   2.307   8.341  0.00  0.00    +0.000 F 
ATOM     17  F   UNL     1      45.518   3.146   6.563  0.00  0.00    +0.000 F 
ATOM     18  F   UNL     1      46.794   4.391   7.825  0.00  0.00    +0.000 F 
ENDBRANCH  14  15
ENDBRANCH  12  14
ENDBRANCH   1   8
BRANCH   5  19
ATOM     19  C   UNL     1      49.475   9.043  12.897  0.00  0.00    +0.000 C 
BRANCH  19  20
ATOM     20  C   UNL     1      49.956   8.083  13.993  0.00  0.00    +0.000 C 
BRANCH  20  21
ATOM     21  N   UNL     1      49.338   8.309  15.299  0.00  0.00    +0.000 N 
ATOM     22  H   UNL     1      48.552   8.955  15.246  0.00  0.00    +0.000 HD
BRANCH  21  23
ATOM     23  C   UNL     1      48.986   7.129  15.995  0.00  0.00    +0.000 A 
ATOM     24  C   UNL     1      48.961   7.040  17.393  0.00  0.00    +0.000 A 
ATOM     25  C   UNL     1      48.534   5.877  18.032  0.00  0.00    +0.000 A 
ATOM     26  C   UNL     1      48.103   4.824  17.246  0.00  0.00    +0.000 A 
ATOM     27  N   UNL     1      48.072   4.858  15.885  0.00  0.00    +0.000 NA
ATOM     28  C   UNL     1      48.497   6.012  15.308  0.00  0.00    +0.000 A 
BRANCH  26  29
ATOM     29  C   UNL     1      47.604   3.577  17.905  0.00  0.00    +0.000 C 
ATOM     30  N   UNL     1      48.245   3.234  19.065  0.00  0.00    +0.000 N 
ATOM     31  O   UNL     1      46.696   2.901  17.447  0.00  0.00    +0.000 OA
ATOM     32  H   UNL     1      49.017   3.803  19.391  0.00  0.00    +0.000 HD
ATOM     33  H   UNL     1      47.993   2.379  19.536  0.00  0.00    +0.000 HD
ENDBRANCH  26  29
ENDBRANCH  21  23
ENDBRANCH  20  21
ENDBRANCH  19  20
ENDBRANCH   5  19
TORSDOF 8
ENDMDL
MODEL 7
REMARK VINA RESULT:    -7.135      3.959      7.007
REMARK INTER + INTRA:         -11.593
REMARK INTER:                 -10.622
REMARK INTRA:                  -0.971
REMARK UNBOUND:                -1.121
REMARK  Name = 
REMARK  9 active torsions:
REMARK  status: ('A' for Active; 'I' for Inactive)
REMARK    1  A    between atoms: C_1  and  C_2
REMARK    2  A    between atoms: C_2  and  C_3
REMARK    3  A    between atoms: C_7  and  C_8
REMARK    4  A    between atoms: C_8  and  C_9
REMARK    5  A    between atoms: C_9  and  N_10
REMARK    6  A    between atoms: N_10  and  C_11
REMARK    7  A    between atoms: C_14  and  C_15
REMARK    8  A    between atoms: N_24  and  C_25
REMARK    9  A    between atoms: C_25  and  C_26
REMARK                            x       y       z     vdW  Elec       q    Type
REMARK                         _______ _______ _______ _____ _____    ______ ____
ROOT
ATOM      1  C   UNL     1      47.120   6.160  12.765  0.00  0.00    +0.000 A 
ATOM      2  C   UNL     1      47.599   6.167  14.084  0.00  0.00    +0.000 A 
ATOM      3  C   UNL     1      48.780   6.837  14.419  0.00  0.00    +0.000 A 
ATOM      4  C   UNL     1      49.520   7.503  13.441  0.00  0.00    +0.000 A 
ATOM      5  C   UNL     1      49.078   7.521  12.116  0.00  0.00    +0.000 A 
ATOM      6  C   UNL     1      47.867   6.868  11.813  0.00  0.00    +0.000 A 
ENDROOT
BRANCH   1   8
ATOM      7  C   UNL     1      46.078   3.911  12.961  0.00  0.00    +0.000 C 
ATOM      8  C   UNL     1      45.878   5.327  12.367  0.00  0.00    +0.000 C 
ATOM      9  C   UNL     1      44.590   5.988  12.920  0.00  0.00    +0.000 C 
ATOM     10  C   UNL     1      43.322   5.261  12.469  0.00  0.00    +0.000 C 
ATOM     11  C   UNL     1      43.261   5.099  10.950  0.00  0.00    +0.000 C 
ATOM     12  N   UNL     1      44.470   4.458  10.422  0.00  0.00    +0.000 NA
ATOM     13  C   UNL     1      45.686   5.190  10.817  0.00  0.00    +0.000 C 
BRANCH  12  14
ATOM     14  C   UNL     1      44.398   4.287   8.943  0.00  0.00    +0.000 C 
BRANCH  14  15
ATOM     15  C   UNL     1      45.540   3.607   8.145  0.00  0.00    +0.000 C 
ATOM     16  F   UNL     1      46.047   2.516   8.759  0.00  0.00    +0.000 F 
ATOM     17  F   UNL     1      45.101   3.204   6.929  0.00  0.00    +0.000 F 
ATOM     18  F   UNL     1      46.565   4.467   7.946  0.00  0.00    +0.000 F 
ENDBRANCH  14  15
ENDBRANCH  12  14
ENDBRANCH   1   8
BRANCH   5  19
ATOM     19  C   UNL     1      49.928   8.191  11.044  0.00  0.00    +0.000 C 
BRANCH  19  20
ATOM     20  C   UNL     1      51.389   7.725  11.051  0.00  0.00    +0.000 C 
BRANCH  20  21
ATOM     21  N   UNL     1      52.166   8.175   9.896  0.00  0.00    +0.000 N 
ATOM     22  H   UNL     1      52.893   8.839  10.156  0.00  0.00    +0.000 HD
BRANCH  21  23
ATOM     23  C   UNL     1      52.688   7.131   9.096  0.00  0.00    +0.000 A 
ATOM     24  C   UNL     1      53.661   6.230   9.547  0.00  0.00    +0.000 A 
ATOM     25  C   UNL     1      54.088   5.173   8.747  0.00  0.00    +0.000 A 
ATOM     26  C   UNL     1      53.499   5.017   7.506  0.00  0.00    +0.000 A 
ATOM     27  N   UNL     1      52.526   5.838   7.021  0.00  0.00    +0.000 NA
ATOM     28  C   UNL     1      52.143   6.854   7.838  0.00  0.00    +0.000 A 
BRANCH  26  29
ATOM     29  C   UNL     1      53.910   3.868   6.640  0.00  0.00    +0.000 C 
ATOM     30  N   UNL     1      53.140   2.743   6.759  0.00  0.00    +0.000 N 
ATOM     31  O   UNL     1      54.867   3.916   5.882  0.00  0.00    +0.000 OA
ATOM     32  H   UNL     1      52.378   2.734   7.425  0.00  0.00    +0.000 HD
ATOM     33  H   UNL     1      53.390   1.915   6.241  0.00  0.00    +0.000 HD
ENDBRANCH  26  29
ENDBRANCH  21  23
ENDBRANCH  20  21
ENDBRANCH  19  20
ENDBRANCH   5  19
TORSDOF 8
ENDMDL
MODEL 8
REMARK VINA RESULT:    -6.935      2.878      3.693
REMARK INTER + INTRA:         -11.300
REMARK INTER:                 -10.122
REMARK INTRA:                  -1.178
REMARK UNBOUND:                -1.121
REMARK  Name = 
REMARK  9 active torsions:
REMARK  status: ('A' for Active; 'I' for Inactive)
REMARK    1  A    between atoms: C_1  and  C_2
REMARK    2  A    between atoms: C_2  and  C_3
REMARK    3  A    between atoms: C_7  and  C_8
REMARK    4  A    between atoms: C_8  and  C_9
REMARK    5  A    between atoms: C_9  and  N_10
REMARK    6  A    between atoms: N_10  and  C_11
REMARK    7  A    between atoms: C_14  and  C_15
REMARK    8  A    between atoms: N_24  and  C_25
REMARK    9  A    between atoms: C_25  and  C_26
REMARK                            x       y       z     vdW  Elec       q    Type
REMARK                         _______ _______ _______ _____ _____    ______ ____
ROOT
ATOM      1  C   UNL     1      48.394   7.098  14.053  0.00  0.00    +0.000 A 
ATOM      2  C   UNL     1      48.970   7.838  13.009  0.00  0.00    +0.000 A 
ATOM      3  C   UNL     1      48.458   7.769  11.708  0.00  0.00    +0.000 A 
ATOM      4  C   UNL     1      47.369   6.947  11.417  0.00  0.00    +0.000 A 
ATOM      5  C   UNL     1      46.766   6.195  12.427  0.00  0.00    +0.000 A 
ATOM      6  C   UNL     1      47.279   6.310  13.734  0.00  0.00    +0.000 A 
ENDROOT
BRANCH   1   8
ATOM      7  C   UNL     1      48.545   8.367  16.185  0.00  0.00    +0.000 C 
ATOM      8  C   UNL     1      49.023   7.082  15.467  0.00  0.00    +0.000 C 
ATOM      9  C   UNL     1      48.579   5.812  16.236  0.00  0.00    +0.000 C 
ATOM     10  C   UNL     1      49.254   5.694  17.604  0.00  0.00    +0.000 C 
ATOM     11  C   UNL     1      50.776   5.784  17.504  0.00  0.00    +0.000 C 
ATOM     12  N   UNL     1      51.204   6.992  16.791  0.00  0.00    +0.000 NA
ATOM     13  C   UNL     1      50.591   7.078  15.454  0.00  0.00    +0.000 C 
BRANCH  12  14
ATOM     14  C   UNL     1      52.690   7.084  16.712  0.00  0.00    +0.000 C 
BRANCH  14  15
ATOM     15  C   UNL     1      53.409   8.428  16.427  0.00  0.00    +0.000 C 
ATOM     16  F   UNL     1      54.632   8.512  16.994  0.00  0.00    +0.000 F 
ATOM     17  F   UNL     1      53.580   8.607  15.095  0.00  0.00    +0.000 F 
ATOM     18  F   UNL     1      52.681   9.470  16.889  0.00  0.00    +0.000 F 
ENDBRANCH  14  15
ENDBRANCH  12  14
ENDBRANCH   1   8
BRANCH   5  19
ATOM     19  C   UNL     1      45.623   5.248  12.085  0.00  0.00    +0.000 C 
BRANCH  19  20
ATOM     20  C   UNL     1      44.674   5.806  11.017  0.00  0.00    +0.000 C 
BRANCH  20  21
ATOM     21  N   UNL     1      43.976   4.779  10.242  0.00  0.00    +0.000 N 
ATOM     22  H   UNL     1      43.154   5.148   9.768  0.00  0.00    +0.000 HD
BRANCH  21  23
ATOM     23  C   UNL     1      44.801   4.055   9.350  0.00  0.00    +0.000 A 
ATOM     24  C   UNL     1      45.725   4.665   8.491  0.00  0.00    +0.000 A 
ATOM     25  C   UNL     1      46.569   3.903   7.684  0.00  0.00    +0.000 A 
ATOM     26  C   UNL     1      46.492   2.526   7.782  0.00  0.00    +0.000 A 
ATOM     27  N   UNL     1      45.640   1.872   8.619  0.00  0.00    +0.000 NA
ATOM     28  C   UNL     1      44.838   2.657   9.385  0.00  0.00    +0.000 A 
BRANCH  26  29
ATOM     29  C   UNL     1      47.412   1.683   6.956  0.00  0.00    +0.000 C 
ATOM     30  N   UNL     1      48.318   2.376   6.200  0.00  0.00    +0.000 N 
ATOM     31  O   UNL     1      47.363   0.462   6.942  0.00  0.00    +0.000 OA
ATOM     32  H   UNL     1      48.301   3.389   6.214  0.00  0.00    +0.000 HD
ATOM     33  H   UNL     1      48.936   1.874   5.582  0.00  0.00    +0.000 HD
ENDBRANCH  26  29
ENDBRANCH  21  23
ENDBRANCH  20  21
ENDBRANCH  19  20
ENDBRANCH   5  19
TORSDOF 8
ENDMDL
MODEL 9
REMARK VINA RESULT:    -6.839      4.081      6.019
REMARK INTER + INTRA:         -11.158
REMARK INTER:                  -9.962
REMARK INTRA:                  -1.196
REMARK UNBOUND:                -1.121
REMARK  Name = 
REMARK  9 active torsions:
REMARK  status: ('A' for Active; 'I' for Inactive)
REMARK    1  A    between atoms: C_1  and  C_2
REMARK    2  A    between atoms: C_2  and  C_3
REMARK    3  A    between atoms: C_7  and  C_8
REMARK    4  A    between atoms: C_8  and  C_9
REMARK    5  A    between atoms: C_9  and  N_10
REMARK    6  A    between atoms: N_10  and  C_11
REMARK    7  A    between atoms: C_14  and  C_15
REMARK    8  A    between atoms: N_24  and  C_25
REMARK    9  A    between atoms: C_25  and  C_26
REMARK                            x       y       z     vdW  Elec       q    Type
REMARK                         _______ _______ _______ _____ _____    ______ ____
ROOT
ATOM      1  C   UNL     1      49.678   7.678  15.029  0.00  0.00    +0.000 A 
ATOM      2  C   UNL     1      50.902   8.063  14.460  0.00  0.00    +0.000 A 
ATOM      3  C   UNL     1      51.001   8.369  13.099  0.00  0.00    +0.000 A 
ATOM      4  C   UNL     1      49.883   8.282  12.269  0.00  0.00    +0.000 A 
ATOM      5  C   UNL     1      48.645   7.904  12.794  0.00  0.00    +0.000 A 
ATOM      6  C   UNL     1      48.566   7.636  14.175  0.00  0.00    +0.000 A 
ENDROOT
BRANCH   1   8
ATOM      7  C   UNL     1      51.019   7.299  17.087  0.00  0.00    +0.000 C 
ATOM      8  C   UNL     1      49.585   7.230  16.507  0.00  0.00    +0.000 C 
ATOM      9  C   UNL     1      48.620   8.156  17.288  0.00  0.00    +0.000 C 
ATOM     10  C   UNL     1      48.412   7.695  18.732  0.00  0.00    +0.000 C 
ATOM     11  C   UNL     1      47.973   6.233  18.812  0.00  0.00    +0.000 C 
ATOM     12  N   UNL     1      48.893   5.349  18.088  0.00  0.00    +0.000 NA
ATOM     13  C   UNL     1      49.052   5.766  16.684  0.00  0.00    +0.000 C 
BRANCH  12  14
ATOM     14  C   UNL     1      48.470   3.922  18.184  0.00  0.00    +0.000 C 
BRANCH  14  15
ATOM     15  C   UNL     1      47.506   3.287  17.149  0.00  0.00    +0.000 C 
ATOM     16  F   UNL     1      46.678   4.183  16.568  0.00  0.00    +0.000 F 
ATOM     17  F   UNL     1      48.200   2.689  16.151  0.00  0.00    +0.000 F 
ATOM     18  F   UNL     1      46.731   2.343  17.729  0.00  0.00    +0.000 F 
ENDBRANCH  14  15
ENDBRANCH  12  14
ENDBRANCH   1   8
BRANCH   5  19
ATOM     19  C   UNL     1      47.447   7.746  11.868  0.00  0.00    +0.000 C 
BRANCH  19  20
ATOM     20  C   UNL     1      46.280   8.676  12.223  0.00  0.00    +0.000 C 
BRANCH  20  21
ATOM     21  N   UNL     1      45.168   8.009  12.900  0.00  0.00    +0.000 N 
ATOM     22  H   UNL     1      44.316   8.568  12.883  0.00  0.00    +0.000 HD
BRANCH  21  23
ATOM     23  C   UNL     1      44.922   6.686  12.463  0.00  0.00    +0.000 A 
ATOM     24  C   UNL     1      45.343   5.553  13.171  0.00  0.00    +0.000 A 
ATOM     25  C   UNL     1      45.011   4.271  12.739  0.00  0.00    +0.000 A 
ATOM     26  C   UNL     1      44.223   4.149  11.609  0.00  0.00    +0.000 A 
ATOM     27  N   UNL     1      43.754   5.210  10.894  0.00  0.00    +0.000 NA
ATOM     28  C   UNL     1      44.105   6.439  11.355  0.00  0.00    +0.000 A 
BRANCH  26  29
ATOM     29  C   UNL     1      43.819   2.786  11.143  0.00  0.00    +0.000 C 
ATOM     30  N   UNL     1      44.543   2.290  10.092  0.00  0.00    +0.000 N 
ATOM     31  O   UNL     1      42.905   2.153  11.649  0.00  0.00    +0.000 OA
ATOM     32  H   UNL     1      45.269   2.863   9.678  0.00  0.00    +0.000 HD
ATOM     33  H   UNL     1      44.293   1.398   9.695  0.00  0.00    +0.000 HD
ENDBRANCH  26  29
ENDBRANCH  21  23
ENDBRANCH  20  21
ENDBRANCH  19  20
ENDBRANCH   5  19
TORSDOF 8
ENDMDL
