MODEL 1
REMARK VINA RESULT:    -7.526      0.000      0.000
REMARK INTER + INTRA:          -9.256
REMARK INTER:                  -8.845
REMARK INTRA:                  -0.411
REMARK UNBOUND:                -0.411
REMARK  Name = 
REMARK  4 active torsions:
REMARK  status: ('A' for Active; 'I' for Inactive)
REMARK    1  A    between atoms: C_1  and  C_2
REMARK    2  A    between atoms: C_2  and  N_3
REMARK    3  A    between atoms: C_2  and  C_13
REMARK    4  A    between atoms: C_7  and  C_8
REMARK                            x       y       z     vdW  Elec       q    Type
REMARK                         _______ _______ _______ _____ _____    ______ ____
ROOT
ATOM      1  N   UNL     1      43.946   5.025   9.867  0.00  0.00    +0.000 N 
ATOM      2  C   UNL     1      44.671   3.997   9.251  0.00  0.00    +0.000 A 
ATOM      3  C   UNL     1      45.059   4.177   7.923  0.00  0.00    +0.000 A 
ATOM      4  C   UNL     1      45.806   3.188   7.274  0.00  0.00    +0.000 A 
ATOM      5  C   UNL     1      46.165   2.034   7.966  0.00  0.00    +0.000 A 
ATOM      6  C   UNL     1      45.728   1.932   9.277  0.00  0.00    +0.000 A 
ATOM      7  N   UNL     1      44.987   2.874   9.922  0.00  0.00    +0.000 NA
ATOM      8  H   UNL     1      44.491   5.879   9.764  0.00  0.00    +0.000 HD
ENDROOT
BRANCH   5   9
ATOM      9  C   UNL     1      46.982   1.003   7.279  0.00  0.00    +0.000 C 
ATOM     10  N   UNL     1      46.823  -0.309   7.621  0.00  0.00    +0.000 N 
ATOM     11  O   UNL     1      47.795   1.316   6.419  0.00  0.00    +0.000 OA
ATOM     12  H   UNL     1      46.192  -0.674   8.317  0.00  0.00    +0.000 HD
ATOM     13  H   UNL     1      47.412  -0.972   7.134  0.00  0.00    +0.000 HD
ENDBRANCH   5   9
BRANCH   1  15
ATOM     14  C   UNL     1      42.306   5.660  11.604  0.00  0.00    +0.000 C 
ATOM     15  C   UNL     1      43.550   4.833  11.269  0.00  0.00    +0.000 C 
BRANCH  15  16
ATOM     16  C   UNL     1      44.718   5.273  12.150  0.00  0.00    +0.000 A 
ATOM     17  C   UNL     1      45.163   4.440  13.189  0.00  0.00    +0.000 A 
ATOM     18  C   UNL     1      46.271   4.801  13.958  0.00  0.00    +0.000 A 
ATOM     19  C   UNL     1      46.938   5.997  13.697  0.00  0.00    +0.000 A 
ATOM     20 CL   UNL     1      48.330   6.417  14.617  0.00  0.00    +0.000 Cl
ATOM     21  C   UNL     1      46.494   6.845  12.686  0.00  0.00    +0.000 A 
ATOM     22  C   UNL     1      45.386   6.487  11.918  0.00  0.00    +0.000 A 
ENDBRANCH  15  16
ENDBRANCH   1  15
TORSDOF 3
ENDMDL
MODEL 2
REMARK VINA RESULT:    -7.162      4.098      6.941
REMARK INTER + INTRA:          -8.829
REMARK INTER:                  -8.367
REMARK INTRA:                  -0.462
REMARK UNBOUND:                -0.411
REMARK  Name = 
REMARK  4 active torsions:
REMARK  status: ('A' for Active; 'I' for Inactive)
REMARK    1  A    between atoms: C_1  and  C_2
REMARK    2  A    between atoms: C_2  and  N_3
REMARK    3  A    between atoms: C_2  and  C_13
REMARK    4  A    between atoms: C_7  and  C_8
REMARK                            x       y       z     vdW  Elec       q    Type
REMARK                         _______ _______ _______ _____ _____    ______ ____
ROOT
ATOM      1  N   UNL     1      45.142   4.635  11.773  0.00  0.00    +0.000 N 
ATOM      2  C   UNL     1      45.179   6.033  11.868  0.00  0.00    +0.000 A 
ATOM      3  C   UNL     1      46.116   6.605  12.728  0.00  0.00    +0.000 A 
ATOM      4  C   UNL     1      46.205   7.996  12.837  0.00  0.00    +0.000 A 
ATOM      5  C   UNL     1      45.361   8.800  12.075  0.00  0.00    +0.000 A 
ATOM      6  C   UNL     1      44.452   8.149  11.257  0.00  0.00    +0.000 A 
ATOM      7  N   UNL     1      44.337   6.797  11.148  0.00  0.00    +0.000 NA
ATOM      8  H   UNL     1      46.083   4.327  11.536  0.00  0.00    +0.000 HD
ENDROOT
BRANCH   5   9
ATOM      9  C   UNL     1      45.483  10.276  12.175  0.00  0.00    +0.000 C 
ATOM     10  N   UNL     1      46.708  10.826  12.421  0.00  0.00    +0.000 N 
ATOM     11  O   UNL     1      44.503  10.997  12.047  0.00  0.00    +0.000 OA
ATOM     12  H   UNL     1      47.574  10.328  12.550  0.00  0.00    +0.000 HD
ATOM     13  H   UNL     1      46.738  11.836  12.493  0.00  0.00    +0.000 HD
ENDBRANCH   5   9
BRANCH   1  15
ATOM     14  C   UNL     1      43.400   2.898  11.538  0.00  0.00    +0.000 C 
ATOM     15  C   UNL     1      44.159   4.040  10.858  0.00  0.00    +0.000 C 
BRANCH  15  16
ATOM     16  C   UNL     1      44.914   3.510   9.641  0.00  0.00    +0.000 A 
ATOM     17  C   UNL     1      45.456   4.407   8.706  0.00  0.00    +0.000 A 
ATOM     18  C   UNL     1      46.204   3.936   7.625  0.00  0.00    +0.000 A 
ATOM     19  C   UNL     1      46.411   2.567   7.469  0.00  0.00    +0.000 A 
ATOM     20 CL   UNL     1      47.371   1.993   6.162  0.00  0.00    +0.000 Cl
ATOM     21  C   UNL     1      45.860   1.662   8.372  0.00  0.00    +0.000 A 
ATOM     22  C   UNL     1      45.111   2.131   9.451  0.00  0.00    +0.000 A 
ENDBRANCH  15  16
ENDBRANCH   1  15
TORSDOF 3
ENDMDL
MODEL 3
REMARK VINA RESULT:    -7.058      3.958      6.835
REMARK INTER + INTRA:          -8.706
REMARK INTER:                  -8.211
REMARK INTRA:                  -0.495
REMARK UNBOUND:                -0.411
REMARK  Name = 
REMARK  4 active torsions:
REMARK  status: ('A' for Active; 'I' for Inactive)
REMARK    1  A    between atoms: C_1  and  C_2
REMARK    2  A    between atoms: C_2  and  N_3
REMARK    3  A    between atoms: C_2  and  C_13
REMARK    4  A    between atoms: C_7  and  C_8
REMARK                            x       y       z     vdW  Elec       q    Type
REMARK                         _______ _______ _______ _____ _____    ______ ____
ROOT
ATOM      1  N   UNL     1      45.475   3.799  12.062  0.00  0.00    +0.000 N 
ATOM      2  C   UNL     1      45.946   5.040  12.512  0.00  0.00    +0.000 A 
ATOM      3  C   UNL     1      46.955   5.044  13.475  0.00  0.00    +0.000 A 
ATOM      4  C   UNL     1      47.474   6.259  13.936  0.00  0.00    +0.000 A 
ATOM      5  C   UNL     1      46.984   7.455  13.419  0.00  0.00    +0.000 A 
ATOM      6  C   UNL     1      45.974   7.359  12.475  0.00  0.00    +0.000 A 
ATOM      7  N   UNL     1      45.443   6.189  12.025  0.00  0.00    +0.000 NA
ATOM      8  H   UNL     1      46.283   3.271  11.739  0.00  0.00    +0.000 HD
ENDROOT
BRANCH   5   9
ATOM      9  C   UNL     1      47.561   8.738  13.893  0.00  0.00    +0.000 C 
ATOM     10  N   UNL     1      47.501   9.044  15.222  0.00  0.00    +0.000 N 
ATOM     11  O   UNL     1      48.081   9.520  13.109  0.00  0.00    +0.000 OA
ATOM     12  H   UNL     1      47.090   8.479  15.949  0.00  0.00    +0.000 HD
ATOM     13  H   UNL     1      47.896   9.935  15.494  0.00  0.00    +0.000 HD
ENDBRANCH   5   9
BRANCH   1  15
ATOM     14  C   UNL     1      43.333   2.775  11.371  0.00  0.00    +0.000 C 
ATOM     15  C   UNL     1      44.419   3.802  11.040  0.00  0.00    +0.000 C 
BRANCH  15  16
ATOM     16  C   UNL     1      45.065   3.460   9.699  0.00  0.00    +0.000 A 
ATOM     17  C   UNL     1      45.496   4.489   8.845  0.00  0.00    +0.000 A 
ATOM     18  C   UNL     1      46.147   4.187   7.647  0.00  0.00    +0.000 A 
ATOM     19  C   UNL     1      46.369   2.858   7.293  0.00  0.00    +0.000 A 
ATOM     20 CL   UNL     1      47.211   2.491   5.839  0.00  0.00    +0.000 Cl
ATOM     21  C   UNL     1      45.926   1.825   8.116  0.00  0.00    +0.000 A 
ATOM     22  C   UNL     1      45.274   2.125   9.312  0.00  0.00    +0.000 A 
ENDBRANCH  15  16
ENDBRANCH   1  15
TORSDOF 3
ENDMDL
MODEL 4
REMARK VINA RESULT:    -6.772      3.650      6.169
REMARK INTER + INTRA:          -8.370
REMARK INTER:                  -9.116
REMARK INTRA:                   0.746
REMARK UNBOUND:                -0.411
REMARK  Name = 
REMARK  4 active torsions:
REMARK  status: ('A' for Active; 'I' for Inactive)
REMARK    1  A    between atoms: C_1  and  C_2
REMARK    2  A    between atoms: C_2  and  N_3
REMARK    3  A    between atoms: C_2  and  C_13
REMARK    4  A    between atoms: C_7  and  C_8
REMARK                            x       y       z     vdW  Elec       q    Type
REMARK                         _______ _______ _______ _____ _____    ______ ____
ROOT
ATOM      1  N   UNL     1      44.692   5.843  10.715  0.00  0.00    +0.000 N 
ATOM      2  C   UNL     1      45.398   5.446  11.858  0.00  0.00    +0.000 A 
ATOM      3  C   UNL     1      46.237   6.382  12.464  0.00  0.00    +0.000 A 
ATOM      4  C   UNL     1      46.943   6.038  13.622  0.00  0.00    +0.000 A 
ATOM      5  C   UNL     1      46.794   4.765  14.165  0.00  0.00    +0.000 A 
ATOM      6  C   UNL     1      45.950   3.895  13.492  0.00  0.00    +0.000 A 
ATOM      7  N   UNL     1      45.266   4.203  12.356  0.00  0.00    +0.000 NA
ATOM      8  H   UNL     1      44.174   6.685  10.960  0.00  0.00    +0.000 HD
ENDROOT
BRANCH   5   9
ATOM      9  C   UNL     1      47.524   4.419  15.409  0.00  0.00    +0.000 C 
ATOM     10  N   UNL     1      47.910   5.420  16.254  0.00  0.00    +0.000 N 
ATOM     11  O   UNL     1      47.787   3.255  15.681  0.00  0.00    +0.000 OA
ATOM     12  H   UNL     1      47.754   6.407  16.124  0.00  0.00    +0.000 HD
ATOM     13  H   UNL     1      48.417   5.135  17.083  0.00  0.00    +0.000 HD
ENDBRANCH   5   9
BRANCH   1  15
ATOM     14  C   UNL     1      43.030   4.064  11.145  0.00  0.00    +0.000 C 
ATOM     15  C   UNL     1      43.803   4.856  10.087  0.00  0.00    +0.000 C 
BRANCH  15  16
ATOM     16  C   UNL     1      44.667   3.908   9.258  0.00  0.00    +0.000 A 
ATOM     17  C   UNL     1      45.579   4.427   8.324  0.00  0.00    +0.000 A 
ATOM     18  C   UNL     1      46.420   3.573   7.608  0.00  0.00    +0.000 A 
ATOM     19  C   UNL     1      46.354   2.197   7.818  0.00  0.00    +0.000 A 
ATOM     20 CL   UNL     1      47.423   1.151   6.967  0.00  0.00    +0.000 Cl
ATOM     21  C   UNL     1      45.438   1.664   8.722  0.00  0.00    +0.000 A 
ATOM     22  C   UNL     1      44.596   2.516   9.436  0.00  0.00    +0.000 A 
ENDBRANCH  15  16
ENDBRANCH   1  15
TORSDOF 3
ENDMDL
MODEL 5
REMARK VINA RESULT:    -6.373      4.529      6.464
REMARK INTER + INTRA:          -7.902
REMARK INTER:                  -7.455
REMARK INTRA:                  -0.447
REMARK UNBOUND:                -0.411
REMARK  Name = 
REMARK  4 active torsions:
REMARK  status: ('A' for Active; 'I' for Inactive)
REMARK    1  A    between atoms: C_1  and  C_2
REMARK    2  A    between atoms: C_2  and  N_3
REMARK    3  A    between atoms: C_2  and  C_13
REMARK    4  A    between atoms: C_7  and  C_8
REMARK                            x       y       z     vdW  Elec       q    Type
REMARK                         _______ _______ _______ _____ _____    ______ ____
ROOT
ATOM      1  N   UNL     1      47.832   5.352  15.620  0.00  0.00    +0.000 N 
ATOM      2  C   UNL     1      47.090   5.261  14.435  0.00  0.00    +0.000 A 
ATOM      3  C   UNL     1      47.266   6.258  13.475  0.00  0.00    +0.000 A 
ATOM      4  C   UNL     1      46.565   6.195  12.267  0.00  0.00    +0.000 A 
ATOM      5  C   UNL     1      45.702   5.128  12.029  0.00  0.00    +0.000 A 
ATOM      6  C   UNL     1      45.577   4.189  13.040  0.00  0.00    +0.000 A 
ATOM      7  N   UNL     1      46.237   4.240  14.229  0.00  0.00    +0.000 NA
ATOM      8  H   UNL     1      48.812   5.426  15.353  0.00  0.00    +0.000 HD
ENDROOT
BRANCH   5   9
ATOM      9  C   UNL     1      44.984   5.054  10.732  0.00  0.00    +0.000 C 
ATOM     10  N   UNL     1      45.622   5.461   9.595  0.00  0.00    +0.000 N 
ATOM     11  O   UNL     1      43.833   4.642  10.673  0.00  0.00    +0.000 OA
ATOM     12  H   UNL     1      46.560   5.822   9.531  0.00  0.00    +0.000 HD
ATOM     13  H   UNL     1      45.086   5.403   8.737  0.00  0.00    +0.000 HD
ENDBRANCH   5   9
BRANCH   1  15
ATOM     14  C   UNL     1      47.035   4.856  17.906  0.00  0.00    +0.000 C 
ATOM     15  C   UNL     1      47.649   4.293  16.621  0.00  0.00    +0.000 C 
BRANCH  15  16
ATOM     16  C   UNL     1      49.020   3.691  16.922  0.00  0.00    +0.000 A 
ATOM     17  C   UNL     1      50.053   4.507  17.412  0.00  0.00    +0.000 A 
ATOM     18  C   UNL     1      51.289   3.955  17.751  0.00  0.00    +0.000 A 
ATOM     19  C   UNL     1      51.503   2.586  17.601  0.00  0.00    +0.000 A 
ATOM     20 CL   UNL     1      53.012   1.902  18.064  0.00  0.00    +0.000 Cl
ATOM     21  C   UNL     1      50.498   1.766  17.094  0.00  0.00    +0.000 A 
ATOM     22  C   UNL     1      49.263   2.317  16.752  0.00  0.00    +0.000 A 
ENDBRANCH  15  16
ENDBRANCH   1  15
TORSDOF 3
ENDMDL
MODEL 6
REMARK VINA RESULT:    -5.572      5.926      8.502
REMARK INTER + INTRA:          -6.959
REMARK INTER:                  -6.454
REMARK INTRA:                  -0.505
REMARK UNBOUND:                -0.411
REMARK  Name = 
REMARK  4 active torsions:
REMARK  status: ('A' for Active; 'I' for Inactive)
REMARK    1  A    between atoms: C_1  and  C_2
REMARK    2  A    between atoms: C_2  and  N_3
REMARK    3  A    between atoms: C_2  and  C_13
REMARK    4  A    between atoms: C_7  and  C_8
REMARK                            x       y       z     vdW  Elec       q    Type
REMARK                         _______ _______ _______ _____ _____    ______ ____
ROOT
ATOM      1  N   UNL     1      48.294   7.220  14.798  0.00  0.00    +0.000 N 
ATOM      2  C   UNL     1      48.574   6.565  16.004  0.00  0.00    +0.000 A 
ATOM      3  C   UNL     1      48.623   7.332  17.169  0.00  0.00    +0.000 A 
ATOM      4  C   UNL     1      48.875   6.717  18.399  0.00  0.00    +0.000 A 
ATOM      5  C   UNL     1      49.066   5.338  18.452  0.00  0.00    +0.000 A 
ATOM      6  C   UNL     1      49.013   4.655  17.247  0.00  0.00    +0.000 A 
ATOM      7  N   UNL     1      48.786   5.236  16.037  0.00  0.00    +0.000 NA
ATOM      8  H   UNL     1      47.422   7.729  14.930  0.00  0.00    +0.000 HD
ENDROOT
BRANCH   5   9
ATOM      9  C   UNL     1      49.303   4.691  19.766  0.00  0.00    +0.000 C 
ATOM     10  N   UNL     1      48.485   3.673  20.163  0.00  0.00    +0.000 N 
ATOM     11  O   UNL     1      50.214   5.062  20.493  0.00  0.00    +0.000 OA
ATOM     12  H   UNL     1      47.704   3.296  19.649  0.00  0.00    +0.000 HD
ATOM     13  H   UNL     1      48.679   3.272  21.072  0.00  0.00    +0.000 HD
ENDBRANCH   5   9
BRANCH   1  15
ATOM     14  C   UNL     1      48.966   7.093  12.422  0.00  0.00    +0.000 C 
ATOM     15  C   UNL     1      48.235   6.404  13.578  0.00  0.00    +0.000 C 
BRANCH  15  16
ATOM     16  C   UNL     1      46.764   6.207  13.217  0.00  0.00    +0.000 A 
ATOM     17  C   UNL     1      46.089   7.185  12.468  0.00  0.00    +0.000 A 
ATOM     18  C   UNL     1      44.764   6.986  12.076  0.00  0.00    +0.000 A 
ATOM     19  C   UNL     1      44.103   5.811  12.433  0.00  0.00    +0.000 A 
ATOM     20 CL   UNL     1      42.486   5.549  11.911  0.00  0.00    +0.000 Cl
ATOM     21  C   UNL     1      44.750   4.843  13.197  0.00  0.00    +0.000 A 
ATOM     22  C   UNL     1      46.073   5.042  13.591  0.00  0.00    +0.000 A 
ENDBRANCH  15  16
ENDBRANCH   1  15
TORSDOF 3
ENDMDL
MODEL 7
REMARK VINA RESULT:    -5.503      3.890      5.815
REMARK INTER + INTRA:          -6.879
REMARK INTER:                  -6.422
REMARK INTRA:                  -0.457
REMARK UNBOUND:                -0.411
REMARK  Name = 
REMARK  4 active torsions:
REMARK  status: ('A' for Active; 'I' for Inactive)
REMARK    1  A    between atoms: C_1  and  C_2
REMARK    2  A    between atoms: C_2  and  N_3
REMARK    3  A    between atoms: C_2  and  C_13
REMARK    4  A    between atoms: C_7  and  C_8
REMARK                            x       y       z     vdW  Elec       q    Type
REMARK                         _______ _______ _______ _____ _____    ______ ____
ROOT
ATOM      1  N   UNL     1      47.230   7.337  13.807  0.00  0.00    +0.000 N 
ATOM      2  C   UNL     1      46.394   6.307  13.355  0.00  0.00    +0.000 A 
ATOM      3  C   UNL     1      45.146   6.658  12.839  0.00  0.00    +0.000 A 
ATOM      4  C   UNL     1      44.288   5.665  12.353  0.00  0.00    +0.000 A 
ATOM      5  C   UNL     1      44.693   4.333  12.381  0.00  0.00    +0.000 A 
ATOM      6  C   UNL     1      45.942   4.073  12.921  0.00  0.00    +0.000 A 
ATOM      7  N   UNL     1      46.786   5.021  13.414  0.00  0.00    +0.000 NA
ATOM      8  H   UNL     1      47.331   7.998  13.039  0.00  0.00    +0.000 HD
ENDROOT
BRANCH   5   9
ATOM      9  C   UNL     1      43.788   3.291  11.837  0.00  0.00    +0.000 C 
ATOM     10  N   UNL     1      43.643   2.116  12.516  0.00  0.00    +0.000 N 
ATOM     11  O   UNL     1      43.181   3.471  10.790  0.00  0.00    +0.000 OA
ATOM     12  H   UNL     1      44.100   1.861  13.378  0.00  0.00    +0.000 HD
ATOM     13  H   UNL     1      43.025   1.431  12.098  0.00  0.00    +0.000 HD
ENDBRANCH   5   9
BRANCH   1  15
ATOM     14  C   UNL     1      48.750   7.528  15.747  0.00  0.00    +0.000 C 
ATOM     15  C   UNL     1      48.546   6.960  14.340  0.00  0.00    +0.000 C 
BRANCH  15  16
ATOM     16  C   UNL     1      49.610   7.518  13.396  0.00  0.00    +0.000 A 
ATOM     17  C   UNL     1      50.728   8.190  13.919  0.00  0.00    +0.000 A 
ATOM     18  C   UNL     1      51.738   8.646  13.071  0.00  0.00    +0.000 A 
ATOM     19  C   UNL     1      51.638   8.438  11.696  0.00  0.00    +0.000 A 
ATOM     20 CL   UNL     1      52.907   8.961  10.659  0.00  0.00    +0.000 Cl
ATOM     21  C   UNL     1      50.525   7.796  11.160  0.00  0.00    +0.000 A 
ATOM     22  C   UNL     1      49.513   7.342  12.005  0.00  0.00    +0.000 A 
ENDBRANCH  15  16
ENDBRANCH   1  15
TORSDOF 3
ENDMDL
MODEL 8
REMARK VINA RESULT:    -5.315      3.790      5.769
REMARK INTER + INTRA:          -6.658
REMARK INTER:                  -6.294
REMARK INTRA:                  -0.363
REMARK UNBOUND:                -0.411
REMARK  Name = 
REMARK  4 active torsions:
REMARK  status: ('A' for Active; 'I' for Inactive)
REMARK    1  A    between atoms: C_1  and  C_2
REMARK    2  A    between atoms: C_2  and  N_3
REMARK    3  A    between atoms: C_2  and  C_13
REMARK    4  A    between atoms: C_7  and  C_8
REMARK                            x       y       z     vdW  Elec       q    Type
REMARK                         _______ _______ _______ _____ _____    ______ ____
ROOT
ATOM      1  N   UNL     1      47.754   5.983  14.271  0.00  0.00    +0.000 N 
ATOM      2  C   UNL     1      46.830   5.532  13.320  0.00  0.00    +0.000 A 
ATOM      3  C   UNL     1      46.356   4.225  13.439  0.00  0.00    +0.000 A 
ATOM      4  C   UNL     1      45.414   3.740  12.526  0.00  0.00    +0.000 A 
ATOM      5  C   UNL     1      44.950   4.571  11.510  0.00  0.00    +0.000 A 
ATOM      6  C   UNL     1      45.482   5.849  11.458  0.00  0.00    +0.000 A 
ATOM      7  N   UNL     1      46.412   6.337  12.326  0.00  0.00    +0.000 NA
ATOM      8  H   UNL     1      47.336   5.834  15.188  0.00  0.00    +0.000 HD
ENDROOT
BRANCH   5   9
ATOM      9  C   UNL     1      43.929   4.056  10.564  0.00  0.00    +0.000 C 
ATOM     10  N   UNL     1      43.908   4.532   9.285  0.00  0.00    +0.000 N 
ATOM     11  O   UNL     1      43.108   3.221  10.919  0.00  0.00    +0.000 OA
ATOM     12  H   UNL     1      44.528   5.222   8.892  0.00  0.00    +0.000 HD
ATOM     13  H   UNL     1      43.184   4.159   8.681  0.00  0.00    +0.000 HD
ENDBRANCH   5   9
BRANCH   1  15
ATOM     14  C   UNL     1      49.542   7.414  13.339  0.00  0.00    +0.000 C 
ATOM     15  C   UNL     1      48.242   7.364  14.146  0.00  0.00    +0.000 C 
BRANCH  15  16
ATOM     16  C   UNL     1      48.484   7.905  15.554  0.00  0.00    +0.000 A 
ATOM     17  C   UNL     1      48.210   9.251  15.844  0.00  0.00    +0.000 A 
ATOM     18  C   UNL     1      48.365   9.740  17.142  0.00  0.00    +0.000 A 
ATOM     19  C   UNL     1      48.798   8.889  18.158  0.00  0.00    +0.000 A 
ATOM     20 CL   UNL     1      48.944   9.484  19.765  0.00  0.00    +0.000 Cl
ATOM     21  C   UNL     1      49.097   7.558  17.882  0.00  0.00    +0.000 A 
ATOM     22  C   UNL     1      48.945   7.068  16.585  0.00  0.00    +0.000 A 
ENDBRANCH  15  16
ENDBRANCH   1  15
TORSDOF 3
ENDMDL
MODEL 9
REMARK VINA RESULT:    -5.189      5.111      7.648
REMARK INTER + INTRA:          -6.509
REMARK INTER:                  -6.100
REMARK INTRA:                  -0.409
REMARK UNBOUND:                -0.411
REMARK  Name = 
REMARK  4 active torsions:
REMARK  status: ('A' for Active; 'I' for Inactive)
REMARK    1  A    between atoms: C_1  and  C_2
REMARK    2  A    between atoms: C_2  and  N_3
REMARK    3  A    between atoms: C_2  and  C_13
REMARK    4  A    between atoms: C_7  and  C_8
REMARK                            x       y       z     vdW  Elec       q    Type
REMARK                         _______ _______ _______ _____ _____    ______ ____
ROOT
ATOM      1  N   UNL     1      46.127   4.995  13.980  0.00  0.00    +0.000 N 
ATOM      2  C   UNL     1      47.131   5.122  14.949  0.00  0.00    +0.000 A 
ATOM      3  C   UNL     1      47.081   4.274  16.055  0.00  0.00    +0.000 A 
ATOM      4  C   UNL     1      48.076   4.348  17.035  0.00  0.00    +0.000 A 
ATOM      5  C   UNL     1      49.116   5.263  16.892  0.00  0.00    +0.000 A 
ATOM      6  C   UNL     1      49.081   6.075  15.769  0.00  0.00    +0.000 A 
ATOM      7  N   UNL     1      48.114   6.031  14.812  0.00  0.00    +0.000 NA
ATOM      8  H   UNL     1      46.116   4.020  13.686  0.00  0.00    +0.000 HD
ENDROOT
BRANCH   5   9
ATOM      9  C   UNL     1      50.182   5.314  17.922  0.00  0.00    +0.000 C 
ATOM     10  N   UNL     1      50.109   6.255  18.909  0.00  0.00    +0.000 N 
ATOM     11  O   UNL     1      51.122   4.531  17.893  0.00  0.00    +0.000 OA
ATOM     12  H   UNL     1      49.388   6.949  19.023  0.00  0.00    +0.000 HD
ATOM     13  H   UNL     1      50.867   6.258  19.581  0.00  0.00    +0.000 HD
ENDBRANCH   5   9
BRANCH   1  15
ATOM     14  C   UNL     1      45.293   7.109  13.007  0.00  0.00    +0.000 C 
ATOM     15  C   UNL     1      46.191   5.885  12.812  0.00  0.00    +0.000 C 
BRANCH  15  16
ATOM     16  C   UNL     1      45.728   5.091  11.592  0.00  0.00    +0.000 A 
ATOM     17  C   UNL     1      45.815   5.660  10.311  0.00  0.00    +0.000 A 
ATOM     18  C   UNL     1      45.457   4.919   9.183  0.00  0.00    +0.000 A 
ATOM     19  C   UNL     1      45.007   3.608   9.327  0.00  0.00    +0.000 A 
ATOM     20 CL   UNL     1      44.610   2.684   7.932  0.00  0.00    +0.000 Cl
ATOM     21  C   UNL     1      44.891   3.037  10.592  0.00  0.00    +0.000 A 
ATOM     22  C   UNL     1      45.247   3.776  11.720  0.00  0.00    +0.000 A 
ENDBRANCH  15  16
ENDBRANCH   1  15
TORSDOF 3
ENDMDL
