MODEL 1
REMARK VINA RESULT:    -8.034      0.000      0.000
REMARK INTER + INTRA:         -11.176
REMARK INTER:                 -10.382
REMARK INTRA:                  -0.794
REMARK UNBOUND:                -0.794
REMARK  Name = 
REMARK  5 active torsions:
REMARK  status: ('A' for Active; 'I' for Inactive)
REMARK    1  A    between atoms: C_2  and  C_3
REMARK    2  A    between atoms: C_8  and  N_9
REMARK    3  A    between atoms: N_9  and  C_10
REMARK    4  A    between atoms: C_10  and  C_11
REMARK    5  A    between atoms: C_16  and  C_17
REMARK                            x       y       z     vdW  Elec       q    Type
REMARK                         _______ _______ _______ _____ _____    ______ ____
ROOT
ATOM      1  C   UNL     1      43.856   5.172  10.724  0.00  0.00    +0.000 A 
ATOM      2  C   UNL     1      43.162   4.198  11.452  0.00  0.00    +0.000 A 
ATOM      3  C   UNL     1      43.304   2.852  11.130  0.00  0.00    +0.000 A 
ATOM      4  C   UNL     1      44.145   2.470  10.084  0.00  0.00    +0.000 A 
ATOM      5  F   UNL     1      44.247   1.156   9.828  0.00  0.00    +0.000 F 
ATOM      6  C   UNL     1      44.869   3.406   9.329  0.00  0.00    +0.000 A 
ATOM      7  C   UNL     1      44.718   4.764   9.686  0.00  0.00    +0.000 A 
ENDROOT
BRANCH   6   8
ATOM      8  C   UNL     1      45.740   3.007   8.203  0.00  0.00    +0.000 A 
ATOM      9  C   UNL     1      46.317   1.735   8.099  0.00  0.00    +0.000 A 
ATOM     10  C   UNL     1      47.143   1.434   7.016  0.00  0.00    +0.000 A 
ATOM     11  C   UNL     1      47.365   2.404   6.057  0.00  0.00    +0.000 A 
ATOM     12  F   UNL     1      48.156   2.151   5.007  0.00  0.00    +0.000 F 
ATOM     13  C   UNL     1      46.751   3.633   6.204  0.00  0.00    +0.000 A 
ATOM     14  N   UNL     1      45.942   3.954   7.246  0.00  0.00    +0.000 NA
ENDBRANCH   6   8
BRANCH   1  15
ATOM     15  C   UNL     1      43.632   6.638  11.014  0.00  0.00    +0.000 C 
BRANCH  15  16
ATOM     16  N   UNL     1      44.134   7.008  12.331  0.00  0.00    +0.000 N 
ATOM     17  H   UNL     1      43.462   6.853  13.081  0.00  0.00    +0.000 HD
BRANCH  16  23
ATOM     18  C   UNL     1      47.095   5.248  13.814  0.00  0.00    +0.000 A 
ATOM     19  C   UNL     1      48.137   5.935  13.201  0.00  0.00    +0.000 A 
ATOM     20  C   UNL     1      47.832   6.967  12.326  0.00  0.00    +0.000 A 
ATOM     21  F   UNL     1      48.829   7.617  11.712  0.00  0.00    +0.000 F 
ATOM     22  C   UNL     1      46.510   7.334  12.066  0.00  0.00    +0.000 A 
ATOM     23  C   UNL     1      45.445   6.671  12.690  0.00  0.00    +0.000 A 
ATOM     24  C   UNL     1      45.763   5.603  13.542  0.00  0.00    +0.000 A 
BRANCH  18  26
ATOM     25  N   UNL     1      47.579   3.302  15.456  0.00  0.00    +0.000 NA
ATOM     26  C   UNL     1      47.371   4.172  14.722  0.00  0.00    +0.000 C 
ENDBRANCH  18  26
ENDBRANCH  16  23
ENDBRANCH  15  16
ENDBRANCH   1  15
TORSDOF 5
ENDMDL
MODEL 2
REMARK VINA RESULT:    -7.550      2.338      7.670
REMARK INTER + INTRA:         -10.552
REMARK INTER:                  -9.828
REMARK INTRA:                  -0.724
REMARK UNBOUND:                -0.794
REMARK  Name = 
REMARK  5 active torsions:
REMARK  status: ('A' for Active; 'I' for Inactive)
REMARK    1  A    between atoms: C_2  and  C_3
REMARK    2  A    between atoms: C_8  and  N_9
REMARK    3  A    between atoms: N_9  and  C_10
REMARK    4  A    between atoms: C_10  and  C_11
REMARK    5  A    between atoms: C_16  and  C_17
REMARK                            x       y       z     vdW  Elec       q    Type
REMARK                         _______ _______ _______ _____ _____    ______ ____
ROOT
ATOM      1  C   UNL     1      46.227   6.043  11.781  0.00  0.00    +0.000 A 
ATOM      2  C   UNL     1      47.139   7.012  11.346  0.00  0.00    +0.000 A 
ATOM      3  C   UNL     1      48.245   7.332  12.128  0.00  0.00    +0.000 A 
ATOM      4  C   UNL     1      48.451   6.681  13.344  0.00  0.00    +0.000 A 
ATOM      5  F   UNL     1      49.540   7.027  14.048  0.00  0.00    +0.000 F 
ATOM      6  C   UNL     1      47.571   5.697  13.822  0.00  0.00    +0.000 A 
ATOM      7  C   UNL     1      46.465   5.381  13.002  0.00  0.00    +0.000 A 
ENDROOT
BRANCH   6   8
ATOM      8  C   UNL     1      47.772   5.025  15.123  0.00  0.00    +0.000 A 
ATOM      9  C   UNL     1      48.190   5.702  16.276  0.00  0.00    +0.000 A 
ATOM     10  C   UNL     1      48.375   4.998  17.466  0.00  0.00    +0.000 A 
ATOM     11  C   UNL     1      48.127   3.638  17.482  0.00  0.00    +0.000 A 
ATOM     12  F   UNL     1      48.299   2.931  18.605  0.00  0.00    +0.000 F 
ATOM     13  C   UNL     1      47.697   3.030  16.318  0.00  0.00    +0.000 A 
ATOM     14  N   UNL     1      47.507   3.690  15.147  0.00  0.00    +0.000 NA
ENDBRANCH   6   8
BRANCH   1  15
ATOM     15  C   UNL     1      44.980   5.761  10.977  0.00  0.00    +0.000 C 
BRANCH  15  16
ATOM     16  N   UNL     1      45.282   5.574   9.564  0.00  0.00    +0.000 N 
ATOM     17  H   UNL     1      46.011   6.197   9.218  0.00  0.00    +0.000 HD
BRANCH  16  23
ATOM     18  C   UNL     1      46.457   2.558   7.670  0.00  0.00    +0.000 A 
ATOM     19  C   UNL     1      45.617   1.582   8.194  0.00  0.00    +0.000 A 
ATOM     20  C   UNL     1      44.679   1.950   9.147  0.00  0.00    +0.000 A 
ATOM     21  F   UNL     1      43.884   1.010   9.676  0.00  0.00    +0.000 F 
ATOM     22  C   UNL     1      44.556   3.273   9.573  0.00  0.00    +0.000 A 
ATOM     23  C   UNL     1      45.375   4.278   9.042  0.00  0.00    +0.000 A 
ATOM     24  C   UNL     1      46.346   3.888   8.108  0.00  0.00    +0.000 A 
BRANCH  18  26
ATOM     25  N   UNL     1      48.246   1.943   5.899  0.00  0.00    +0.000 NA
ATOM     26  C   UNL     1      47.441   2.215   6.685  0.00  0.00    +0.000 C 
ENDBRANCH  18  26
ENDBRANCH  16  23
ENDBRANCH  15  16
ENDBRANCH   1  15
TORSDOF 5
ENDMDL
MODEL 3
REMARK VINA RESULT:    -7.485      2.033      2.567
REMARK INTER + INTRA:         -10.468
REMARK INTER:                  -9.844
REMARK INTRA:                  -0.624
REMARK UNBOUND:                -0.794
REMARK  Name = 
REMARK  5 active torsions:
REMARK  status: ('A' for Active; 'I' for Inactive)
REMARK    1  A    between atoms: C_2  and  C_3
REMARK    2  A    between atoms: C_8  and  N_9
REMARK    3  A    between atoms: N_9  and  C_10
REMARK    4  A    between atoms: C_10  and  C_11
REMARK    5  A    between atoms: C_16  and  C_17
REMARK                            x       y       z     vdW  Elec       q    Type
REMARK                         _______ _______ _______ _____ _____    ______ ____
ROOT
ATOM      1  C   UNL     1      44.466   5.097  11.140  0.00  0.00    +0.000 A 
ATOM      2  C   UNL     1      43.563   4.197  11.718  0.00  0.00    +0.000 A 
ATOM      3  C   UNL     1      43.414   2.919  11.189  0.00  0.00    +0.000 A 
ATOM      4  C   UNL     1      44.171   2.529  10.084  0.00  0.00    +0.000 A 
ATOM      5  F   UNL     1      43.988   1.280   9.626  0.00  0.00    +0.000 F 
ATOM      6  C   UNL     1      45.095   3.390   9.472  0.00  0.00    +0.000 A 
ATOM      7  C   UNL     1      45.237   4.676  10.038  0.00  0.00    +0.000 A 
ENDROOT
BRANCH   6   8
ATOM      8  C   UNL     1      45.879   2.989   8.285  0.00  0.00    +0.000 A 
ATOM      9  C   UNL     1      46.397   1.698   8.111  0.00  0.00    +0.000 A 
ATOM     10  C   UNL     1      47.142   1.396   6.972  0.00  0.00    +0.000 A 
ATOM     11  C   UNL     1      47.344   2.384   6.026  0.00  0.00    +0.000 A 
ATOM     12  F   UNL     1      48.058   2.130   4.923  0.00  0.00    +0.000 F 
ATOM     13  C   UNL     1      46.791   3.632   6.244  0.00  0.00    +0.000 A 
ATOM     14  N   UNL     1      46.061   3.954   7.342  0.00  0.00    +0.000 NA
ENDBRANCH   6   8
BRANCH   1  15
ATOM     15  C   UNL     1      44.561   6.513  11.657  0.00  0.00    +0.000 C 
BRANCH  15  16
ATOM     16  N   UNL     1      45.649   6.663  12.615  0.00  0.00    +0.000 N 
ATOM     17  H   UNL     1      46.008   5.776  12.963  0.00  0.00    +0.000 HD
BRANCH  16  23
ATOM     18  C   UNL     1      48.911   8.250  11.665  0.00  0.00    +0.000 A 
ATOM     19  C   UNL     1      48.568   9.597  11.722  0.00  0.00    +0.000 A 
ATOM     20  C   UNL     1      47.275   9.942  12.085  0.00  0.00    +0.000 A 
ATOM     21  F   UNL     1      46.930  11.236  12.117  0.00  0.00    +0.000 F 
ATOM     22  C   UNL     1      46.326   8.969  12.405  0.00  0.00    +0.000 A 
ATOM     23  C   UNL     1      46.654   7.608  12.378  0.00  0.00    +0.000 A 
ATOM     24  C   UNL     1      47.953   7.269  11.971  0.00  0.00    +0.000 A 
BRANCH  18  26
ATOM     25  N   UNL     1      51.314   7.547  10.998  0.00  0.00    +0.000 NA
ATOM     26  C   UNL     1      50.238   7.855  11.291  0.00  0.00    +0.000 C 
ENDBRANCH  18  26
ENDBRANCH  16  23
ENDBRANCH  15  16
ENDBRANCH   1  15
TORSDOF 5
ENDMDL
MODEL 4
REMARK VINA RESULT:    -7.426      1.649      2.251
REMARK INTER + INTRA:         -10.391
REMARK INTER:                  -9.662
REMARK INTRA:                  -0.729
REMARK UNBOUND:                -0.794
REMARK  Name = 
REMARK  5 active torsions:
REMARK  status: ('A' for Active; 'I' for Inactive)
REMARK    1  A    between atoms: C_2  and  C_3
REMARK    2  A    between atoms: C_8  and  N_9
REMARK    3  A    between atoms: N_9  and  C_10
REMARK    4  A    between atoms: C_10  and  C_11
REMARK    5  A    between atoms: C_16  and  C_17
REMARK                            x       y       z     vdW  Elec       q    Type
REMARK                         _______ _______ _______ _____ _____    ______ ____
ROOT
ATOM      1  C   UNL     1      43.928   5.496  10.955  0.00  0.00    +0.000 A 
ATOM      2  C   UNL     1      43.141   4.602  11.690  0.00  0.00    +0.000 A 
ATOM      3  C   UNL     1      43.170   3.242  11.398  0.00  0.00    +0.000 A 
ATOM      4  C   UNL     1      43.990   2.766  10.374  0.00  0.00    +0.000 A 
ATOM      5  F   UNL     1      43.980   1.443  10.146  0.00  0.00    +0.000 F 
ATOM      6  C   UNL     1      44.803   3.619   9.611  0.00  0.00    +0.000 A 
ATOM      7  C   UNL     1      44.766   4.993   9.939  0.00  0.00    +0.000 A 
ENDROOT
BRANCH   6   8
ATOM      8  C   UNL     1      45.652   3.121   8.509  0.00  0.00    +0.000 A 
ATOM      9  C   UNL     1      46.090   1.793   8.421  0.00  0.00    +0.000 A 
ATOM     10  C   UNL     1      46.904   1.399   7.360  0.00  0.00    +0.000 A 
ATOM     11  C   UNL     1      47.252   2.334   6.404  0.00  0.00    +0.000 A 
ATOM     12  F   UNL     1      48.036   1.991   5.374  0.00  0.00    +0.000 F 
ATOM     13  C   UNL     1      46.773   3.624   6.534  0.00  0.00    +0.000 A 
ATOM     14  N   UNL     1      45.979   4.036   7.555  0.00  0.00    +0.000 NA
ENDBRANCH   6   8
BRANCH   1  15
ATOM     15  C   UNL     1      43.829   6.982  11.212  0.00  0.00    +0.000 C 
BRANCH  15  16
ATOM     16  N   UNL     1      44.491   7.358  12.453  0.00  0.00    +0.000 N 
ATOM     17  H   UNL     1      43.909   7.230  13.279  0.00  0.00    +0.000 HD
BRANCH  16  23
ATOM     18  C   UNL     1      48.242   7.349  12.422  0.00  0.00    +0.000 A 
ATOM     19  C   UNL     1      48.504   6.305  13.302  0.00  0.00    +0.000 A 
ATOM     20  C   UNL     1      47.436   5.626  13.870  0.00  0.00    +0.000 A 
ATOM     21  F   UNL     1      47.681   4.635  14.738  0.00  0.00    +0.000 F 
ATOM     22  C   UNL     1      46.116   5.961  13.563  0.00  0.00    +0.000 A 
ATOM     23  C   UNL     1      45.827   6.993  12.662  0.00  0.00    +0.000 A 
ATOM     24  C   UNL     1      46.914   7.699  12.124  0.00  0.00    +0.000 A 
BRANCH  18  26
ATOM     25  N   UNL     1      50.200   8.653  11.336  0.00  0.00    +0.000 NA
ATOM     26  C   UNL     1      49.320   8.077  11.819  0.00  0.00    +0.000 C 
ENDBRANCH  18  26
ENDBRANCH  16  23
ENDBRANCH  15  16
ENDBRANCH   1  15
TORSDOF 5
ENDMDL
MODEL 5
REMARK VINA RESULT:    -7.213      3.185      5.403
REMARK INTER + INTRA:         -10.116
REMARK INTER:                  -9.298
REMARK INTRA:                  -0.818
REMARK UNBOUND:                -0.794
REMARK  Name = 
REMARK  5 active torsions:
REMARK  status: ('A' for Active; 'I' for Inactive)
REMARK    1  A    between atoms: C_2  and  C_3
REMARK    2  A    between atoms: C_8  and  N_9
REMARK    3  A    between atoms: N_9  and  C_10
REMARK    4  A    between atoms: C_10  and  C_11
REMARK    5  A    between atoms: C_16  and  C_17
REMARK                            x       y       z     vdW  Elec       q    Type
REMARK                         _______ _______ _______ _____ _____    ______ ____
ROOT
ATOM      1  C   UNL     1      47.439   7.204  13.675  0.00  0.00    +0.000 A 
ATOM      2  C   UNL     1      46.785   8.441  13.640  0.00  0.00    +0.000 A 
ATOM      3  C   UNL     1      45.717   8.642  12.770  0.00  0.00    +0.000 A 
ATOM      4  C   UNL     1      45.291   7.607  11.937  0.00  0.00    +0.000 A 
ATOM      5  F   UNL     1      44.250   7.861  11.128  0.00  0.00    +0.000 F 
ATOM      6  C   UNL     1      45.907   6.346  11.940  0.00  0.00    +0.000 A 
ATOM      7  C   UNL     1      46.979   6.164  12.842  0.00  0.00    +0.000 A 
ENDROOT
BRANCH   6   8
ATOM      8  C   UNL     1      45.476   5.256  11.039  0.00  0.00    +0.000 A 
ATOM      9  C   UNL     1      45.650   5.299   9.650  0.00  0.00    +0.000 A 
ATOM     10  C   UNL     1      45.202   4.239   8.861  0.00  0.00    +0.000 A 
ATOM     11  C   UNL     1      44.601   3.157   9.477  0.00  0.00    +0.000 A 
ATOM     12  F   UNL     1      44.155   2.126   8.750  0.00  0.00    +0.000 F 
ATOM     13  C   UNL     1      44.475   3.164  10.853  0.00  0.00    +0.000 A 
ATOM     14  N   UNL     1      44.903   4.180  11.645  0.00  0.00    +0.000 NA
ENDBRANCH   6   8
BRANCH   1  15
ATOM     15  C   UNL     1      48.654   7.014  14.553  0.00  0.00    +0.000 C 
BRANCH  15  16
ATOM     16  N   UNL     1      48.282   6.743  15.935  0.00  0.00    +0.000 N 
ATOM     17  H   UNL     1      47.349   7.072  16.176  0.00  0.00    +0.000 HD
BRANCH  16  23
ATOM     18  C   UNL     1      50.110   3.943  17.632  0.00  0.00    +0.000 A 
ATOM     19  C   UNL     1      49.073   3.036  17.823  0.00  0.00    +0.000 A 
ATOM     20  C   UNL     1      47.804   3.370  17.374  0.00  0.00    +0.000 A 
ATOM     21  F   UNL     1      46.795   2.513  17.576  0.00  0.00    +0.000 F 
ATOM     22  C   UNL     1      47.557   4.582  16.727  0.00  0.00    +0.000 A 
ATOM     23  C   UNL     1      48.591   5.501  16.503  0.00  0.00    +0.000 A 
ATOM     24  C   UNL     1      49.862   5.171  16.996  0.00  0.00    +0.000 A 
BRANCH  18  26
ATOM     25  N   UNL     1      52.510   3.389  18.438  0.00  0.00    +0.000 NA
ATOM     26  C   UNL     1      51.435   3.634  18.086  0.00  0.00    +0.000 C 
ENDBRANCH  18  26
ENDBRANCH  16  23
ENDBRANCH  15  16
ENDBRANCH   1  15
TORSDOF 5
ENDMDL
MODEL 6
REMARK VINA RESULT:    -7.139      2.903      4.951
REMARK INTER + INTRA:         -10.020
REMARK INTER:                  -9.073
REMARK INTRA:                  -0.947
REMARK UNBOUND:                -0.794
REMARK  Name = 
REMARK  5 active torsions:
REMARK  status: ('A' for Active; 'I' for Inactive)
REMARK    1  A    between atoms: C_2  and  C_3
REMARK    2  A    between atoms: C_8  and  N_9
REMARK    3  A    between atoms: N_9  and  C_10
REMARK    4  A    between atoms: C_10  and  C_11
REMARK    5  A    between atoms: C_16  and  C_17
REMARK                            x       y       z     vdW  Elec       q    Type
REMARK                         _______ _______ _______ _____ _____    ______ ____
ROOT
ATOM      1  C   UNL     1      47.621   7.559  13.018  0.00  0.00    +0.000 A 
ATOM      2  C   UNL     1      46.755   8.642  13.210  0.00  0.00    +0.000 A 
ATOM      3  C   UNL     1      45.493   8.640  12.623  0.00  0.00    +0.000 A 
ATOM      4  C   UNL     1      45.086   7.553  11.849  0.00  0.00    +0.000 A 
ATOM      5  F   UNL     1      43.854   7.607  11.317  0.00  0.00    +0.000 F 
ATOM      6  C   UNL     1      45.913   6.440  11.632  0.00  0.00    +0.000 A 
ATOM      7  C   UNL     1      47.182   6.461  12.251  0.00  0.00    +0.000 A 
ENDROOT
BRANCH   6   8
ATOM      8  C   UNL     1      45.494   5.299  10.790  0.00  0.00    +0.000 A 
ATOM      9  C   UNL     1      45.705   5.254   9.405  0.00  0.00    +0.000 A 
ATOM     10  C   UNL     1      45.268   4.151   8.672  0.00  0.00    +0.000 A 
ATOM     11  C   UNL     1      44.641   3.114   9.338  0.00  0.00    +0.000 A 
ATOM     12  F   UNL     1      44.204   2.043   8.664  0.00  0.00    +0.000 F 
ATOM     13  C   UNL     1      44.479   3.208  10.707  0.00  0.00    +0.000 A 
ATOM     14  N   UNL     1      44.895   4.267  11.446  0.00  0.00    +0.000 NA
ENDBRANCH   6   8
BRANCH   1  15
ATOM     15  C   UNL     1      49.023   7.601  13.579  0.00  0.00    +0.000 C 
BRANCH  15  16
ATOM     16  N   UNL     1      49.019   7.808  15.021  0.00  0.00    +0.000 N 
ATOM     17  H   UNL     1      48.276   8.428  15.340  0.00  0.00    +0.000 HD
BRANCH  16  23
ATOM     18  C   UNL     1      48.536   4.628  16.949  0.00  0.00    +0.000 A 
ATOM     19  C   UNL     1      49.816   4.440  17.460  0.00  0.00    +0.000 A 
ATOM     20  C   UNL     1      50.797   5.374  17.163  0.00  0.00    +0.000 A 
ATOM     21  F   UNL     1      52.038   5.187  17.630  0.00  0.00    +0.000 F 
ATOM     22  C   UNL     1      50.519   6.497  16.382  0.00  0.00    +0.000 A 
ATOM     23  C   UNL     1      49.232   6.720  15.876  0.00  0.00    +0.000 A 
ATOM     24  C   UNL     1      48.258   5.748  16.149  0.00  0.00    +0.000 A 
BRANCH  18  26
ATOM     25  N   UNL     1      46.653   2.926  17.469  0.00  0.00    +0.000 NA
ATOM     26  C   UNL     1      47.497   3.681  17.231  0.00  0.00    +0.000 C 
ENDBRANCH  18  26
ENDBRANCH  16  23
ENDBRANCH  15  16
ENDBRANCH   1  15
TORSDOF 5
ENDMDL
MODEL 7
REMARK VINA RESULT:    -7.056      2.868      4.055
REMARK INTER + INTRA:          -9.913
REMARK INTER:                  -9.281
REMARK INTRA:                  -0.631
REMARK UNBOUND:                -0.794
REMARK  Name = 
REMARK  5 active torsions:
REMARK  status: ('A' for Active; 'I' for Inactive)
REMARK    1  A    between atoms: C_2  and  C_3
REMARK    2  A    between atoms: C_8  and  N_9
REMARK    3  A    between atoms: N_9  and  C_10
REMARK    4  A    between atoms: C_10  and  C_11
REMARK    5  A    between atoms: C_16  and  C_17
REMARK                            x       y       z     vdW  Elec       q    Type
REMARK                         _______ _______ _______ _____ _____    ______ ____
ROOT
ATOM      1  C   UNL     1      45.686   5.011  13.082  0.00  0.00    +0.000 A 
ATOM      2  C   UNL     1      44.444   5.643  13.215  0.00  0.00    +0.000 A 
ATOM      3  C   UNL     1      43.561   5.683  12.140  0.00  0.00    +0.000 A 
ATOM      4  C   UNL     1      43.911   5.087  10.929  0.00  0.00    +0.000 A 
ATOM      5  F   UNL     1      43.013   5.151   9.933  0.00  0.00    +0.000 F 
ATOM      6  C   UNL     1      45.140   4.434  10.745  0.00  0.00    +0.000 A 
ATOM      7  C   UNL     1      46.011   4.395  11.856  0.00  0.00    +0.000 A 
ENDROOT
BRANCH   6   8
ATOM      8  C   UNL     1      45.523   3.824   9.454  0.00  0.00    +0.000 A 
ATOM      9  C   UNL     1      45.450   2.447   9.208  0.00  0.00    +0.000 A 
ATOM     10  C   UNL     1      45.845   1.941   7.970  0.00  0.00    +0.000 A 
ATOM     11  C   UNL     1      46.293   2.821   7.002  0.00  0.00    +0.000 A 
ATOM     12  F   UNL     1      46.684   2.368   5.805  0.00  0.00    +0.000 F 
ATOM     13  C   UNL     1      46.324   4.170   7.298  0.00  0.00    +0.000 A 
ATOM     14  N   UNL     1      45.945   4.691   8.492  0.00  0.00    +0.000 NA
ENDBRANCH   6   8
BRANCH   1  15
ATOM     15  C   UNL     1      46.681   5.046  14.219  0.00  0.00    +0.000 C 
BRANCH  15  16
ATOM     16  N   UNL     1      46.671   3.803  14.979  0.00  0.00    +0.000 N 
ATOM     17  H   UNL     1      46.663   2.969  14.394  0.00  0.00    +0.000 HD
BRANCH  16  23
ATOM     18  C   UNL     1      49.438   2.764  17.287  0.00  0.00    +0.000 A 
ATOM     19  C   UNL     1      49.223   3.631  18.354  0.00  0.00    +0.000 A 
ATOM     20  C   UNL     1      48.164   4.523  18.285  0.00  0.00    +0.000 A 
ATOM     21  F   UNL     1      47.965   5.378  19.297  0.00  0.00    +0.000 F 
ATOM     22  C   UNL     1      47.309   4.554  17.181  0.00  0.00    +0.000 A 
ATOM     23  C   UNL     1      47.493   3.676  16.106  0.00  0.00    +0.000 A 
ATOM     24  C   UNL     1      48.591   2.805  16.168  0.00  0.00    +0.000 A 
BRANCH  18  26
ATOM     25  N   UNL     1      51.412   1.086  17.357  0.00  0.00    +0.000 NA
ATOM     26  C   UNL     1      50.526   1.830  17.321  0.00  0.00    +0.000 C 
ENDBRANCH  18  26
ENDBRANCH  16  23
ENDBRANCH  15  16
ENDBRANCH   1  15
TORSDOF 5
ENDMDL
MODEL 8
REMARK VINA RESULT:    -6.713      2.985      4.136
REMARK INTER + INTRA:          -9.469
REMARK INTER:                  -8.846
REMARK INTRA:                  -0.624
REMARK UNBOUND:                -0.794
REMARK  Name = 
REMARK  5 active torsions:
REMARK  status: ('A' for Active; 'I' for Inactive)
REMARK    1  A    between atoms: C_2  and  C_3
REMARK    2  A    between atoms: C_8  and  N_9
REMARK    3  A    between atoms: N_9  and  C_10
REMARK    4  A    between atoms: C_10  and  C_11
REMARK    5  A    between atoms: C_16  and  C_17
REMARK                            x       y       z     vdW  Elec       q    Type
REMARK                         _______ _______ _______ _____ _____    ______ ____
ROOT
ATOM      1  C   UNL     1      45.695   5.025  13.021  0.00  0.00    +0.000 A 
ATOM      2  C   UNL     1      44.432   5.616  13.153  0.00  0.00    +0.000 A 
ATOM      3  C   UNL     1      43.540   5.603  12.086  0.00  0.00    +0.000 A 
ATOM      4  C   UNL     1      43.900   4.995  10.884  0.00  0.00    +0.000 A 
ATOM      5  F   UNL     1      42.992   5.007   9.895  0.00  0.00    +0.000 F 
ATOM      6  C   UNL     1      45.149   4.382  10.702  0.00  0.00    +0.000 A 
ATOM      7  C   UNL     1      46.030   4.396  11.806  0.00  0.00    +0.000 A 
ENDROOT
BRANCH   6   8
ATOM      8  C   UNL     1      45.543   3.760   9.420  0.00  0.00    +0.000 A 
ATOM      9  C   UNL     1      45.494   2.378   9.194  0.00  0.00    +0.000 A 
ATOM     10  C   UNL     1      45.897   1.860   7.964  0.00  0.00    +0.000 A 
ATOM     11  C   UNL     1      46.330   2.733   6.983  0.00  0.00    +0.000 A 
ATOM     12  F   UNL     1      46.729   2.270   5.792  0.00  0.00    +0.000 F 
ATOM     13  C   UNL     1      46.337   4.087   7.258  0.00  0.00    +0.000 A 
ATOM     14  N   UNL     1      45.950   4.619   8.445  0.00  0.00    +0.000 NA
ENDBRANCH   6   8
BRANCH   1  15
ATOM     15  C   UNL     1      46.697   5.118  14.148  0.00  0.00    +0.000 C 
BRANCH  15  16
ATOM     16  N   UNL     1      46.730   3.896  14.940  0.00  0.00    +0.000 N 
ATOM     17  H   UNL     1      46.786   3.049  14.377  0.00  0.00    +0.000 HD
BRANCH  16  23
ATOM     18  C   UNL     1      48.079   4.523  18.382  0.00  0.00    +0.000 A 
ATOM     19  C   UNL     1      49.041   3.522  18.469  0.00  0.00    +0.000 A 
ATOM     20  C   UNL     1      49.225   2.678  17.384  0.00  0.00    +0.000 A 
ATOM     21  F   UNL     1      50.131   1.696  17.468  0.00  0.00    +0.000 F 
ATOM     22  C   UNL     1      48.479   2.826  16.213  0.00  0.00    +0.000 A 
ATOM     23  C   UNL     1      47.521   3.841  16.094  0.00  0.00    +0.000 A 
ATOM     24  C   UNL     1      47.315   4.664  17.212  0.00  0.00    +0.000 A 
BRANCH  18  26
ATOM     25  N   UNL     1      47.664   6.129  20.373  0.00  0.00    +0.000 NA
ATOM     26  C   UNL     1      47.857   5.413  19.486  0.00  0.00    +0.000 C 
ENDBRANCH  18  26
ENDBRANCH  16  23
ENDBRANCH  15  16
ENDBRANCH   1  15
TORSDOF 5
ENDMDL
MODEL 9
REMARK VINA RESULT:    -6.467      3.308      5.275
REMARK INTER + INTRA:          -9.152
REMARK INTER:                  -8.162
REMARK INTRA:                  -0.990
REMARK UNBOUND:                -0.794
REMARK  Name = 
REMARK  5 active torsions:
REMARK  status: ('A' for Active; 'I' for Inactive)
REMARK    1  A    between atoms: C_2  and  C_3
REMARK    2  A    between atoms: C_8  and  N_9
REMARK    3  A    between atoms: N_9  and  C_10
REMARK    4  A    between atoms: C_10  and  C_11
REMARK    5  A    between atoms: C_16  and  C_17
REMARK                            x       y       z     vdW  Elec       q    Type
REMARK                         _______ _______ _______ _____ _____    ______ ____
ROOT
ATOM      1  C   UNL     1      47.247   7.669  13.406  0.00  0.00    +0.000 A 
ATOM      2  C   UNL     1      46.466   8.827  13.310  0.00  0.00    +0.000 A 
ATOM      3  C   UNL     1      45.322   8.835  12.519  0.00  0.00    +0.000 A 
ATOM      4  C   UNL     1      44.947   7.685  11.824  0.00  0.00    +0.000 A 
ATOM      5  F   UNL     1      43.828   7.753  11.085  0.00  0.00    +0.000 F 
ATOM      6  C   UNL     1      45.690   6.496  11.891  0.00  0.00    +0.000 A 
ATOM      7  C   UNL     1      46.839   6.511  12.714  0.00  0.00    +0.000 A 
ENDROOT
BRANCH   6   8
ATOM      8  C   UNL     1      45.310   5.284  11.135  0.00  0.00    +0.000 A 
ATOM      9  C   UNL     1      44.712   4.167  11.733  0.00  0.00    +0.000 A 
ATOM     10  C   UNL     1      44.395   3.051  10.958  0.00  0.00    +0.000 A 
ATOM     11  C   UNL     1      44.671   3.080   9.604  0.00  0.00    +0.000 A 
ATOM     12  F   UNL     1      44.385   2.025   8.832  0.00  0.00    +0.000 F 
ATOM     13  C   UNL     1      45.243   4.218   9.069  0.00  0.00    +0.000 A 
ATOM     14  N   UNL     1      45.561   5.318   9.797  0.00  0.00    +0.000 NA
ENDBRANCH   6   8
BRANCH   1  15
ATOM     15  C   UNL     1      48.537   7.687  14.192  0.00  0.00    +0.000 C 
BRANCH  15  16
ATOM     16  N   UNL     1      48.894   6.358  14.670  0.00  0.00    +0.000 N 
ATOM     17  H   UNL     1      49.844   6.081  14.430  0.00  0.00    +0.000 HD
BRANCH  16  23
ATOM     18  C   UNL     1      48.220   6.369  18.360  0.00  0.00    +0.000 A 
ATOM     19  C   UNL     1      47.535   5.167  18.500  0.00  0.00    +0.000 A 
ATOM     20  C   UNL     1      47.328   4.382  17.376  0.00  0.00    +0.000 A 
ATOM     21  F   UNL     1      46.647   3.235  17.498  0.00  0.00    +0.000 F 
ATOM     22  C   UNL     1      47.803   4.768  16.121  0.00  0.00    +0.000 A 
ATOM     23  C   UNL     1      48.516   5.963  15.960  0.00  0.00    +0.000 A 
ATOM     24  C   UNL     1      48.686   6.769  17.096  0.00  0.00    +0.000 A 
BRANCH  18  26
ATOM     25  N   UNL     1      48.637   7.900  20.409  0.00  0.00    +0.000 NA
ATOM     26  C   UNL     1      48.451   7.209  19.499  0.00  0.00    +0.000 C 
ENDBRANCH  18  26
ENDBRANCH  16  23
ENDBRANCH  15  16
ENDBRANCH   1  15
TORSDOF 5
ENDMDL
