MODEL 1
REMARK VINA RESULT:    -7.705      0.000      0.000
REMARK INTER + INTRA:         -10.476
REMARK INTER:                  -9.957
REMARK INTRA:                  -0.519
REMARK UNBOUND:                -0.519
REMARK  Name = 
REMARK  6 active torsions:
REMARK  status: ('A' for Active; 'I' for Inactive)
REMARK    1  A    between atoms: N_1  and  C_2
REMARK    2  A    between atoms: C_2  and  C_3
REMARK    3  A    between atoms: C_3  and  O_4
REMARK    4  A    between atoms: C_3  and  C_5
REMARK    5  A    between atoms: C_8  and  C_9
REMARK    6  A    between atoms: C_9  and  N_10
REMARK                            x       y       z     vdW  Elec       q    Type
REMARK                         _______ _______ _______ _____ _____    ______ ____
ROOT
ATOM      1  C   UNL     1      45.764   2.480   8.223  0.00  0.00    +0.000 A 
ATOM      2  C   UNL     1      44.977   1.794   9.156  0.00  0.00    +0.000 A 
ATOM      3  C   UNL     1      44.199   2.491  10.076  0.00  0.00    +0.000 A 
ATOM      4  C   UNL     1      44.186   3.898  10.094  0.00  0.00    +0.000 A 
ATOM      5  C   UNL     1      44.966   4.585   9.151  0.00  0.00    +0.000 A 
ATOM      6  C   UNL     1      45.731   3.883   8.222  0.00  0.00    +0.000 A 
ENDROOT
BRANCH   1   7
ATOM      7  C   UNL     1      46.626   1.725   7.239  0.00  0.00    +0.000 C 
BRANCH   7   8
ATOM      8  O   UNL     1      47.009   0.472   7.821  0.00  0.00    +0.000 OA
ATOM      9  H   UNL     1      47.813   0.671   8.340  0.00  0.00    +0.000 HD
ENDBRANCH   7   8
BRANCH   7  10
ATOM     10  C   UNL     1      47.896   2.506   6.830  0.00  0.00    +0.000 C 
BRANCH  10  11
ATOM     11  N   UNL     1      48.583   1.838   5.710  0.00  0.00    +0.000 NA
ATOM     12  H   UNL     1      48.872   0.909   6.007  0.00  0.00    +0.000 HD
ATOM     13  H   UNL     1      49.449   2.341   5.496  0.00  0.00    +0.000 HD
ENDBRANCH  10  11
ENDBRANCH   7  10
ENDBRANCH   1   7
BRANCH   4  14
ATOM     14  C   UNL     1      43.323   4.659  11.057  0.00  0.00    +0.000 C 
BRANCH  14  15
ATOM     15  N   UNL     1      43.922   5.868  11.610  0.00  0.00    +0.000 N 
ATOM     16  C   UNL     1      43.785   7.131  11.099  0.00  0.00    +0.000 A 
ATOM     17  N   UNL     1      44.797   7.902  11.427  0.00  0.00    +0.000 NA
ATOM     18  C   UNL     1      45.604   7.124  12.216  0.00  0.00    +0.000 A 
ATOM     19  C   UNL     1      46.869   7.408  12.751  0.00  0.00    +0.000 A 
ATOM     20  C   UNL     1      47.496   6.425  13.520  0.00  0.00    +0.000 A 
ATOM     21 CL   UNL     1      49.097   6.698  14.100  0.00  0.00    +0.000 Cl
ATOM     22  C   UNL     1      46.866   5.213  13.806  0.00  0.00    +0.000 A 
ATOM     23  C   UNL     1      45.608   4.911  13.272  0.00  0.00    +0.000 A 
ATOM     24  C   UNL     1      45.027   5.876  12.440  0.00  0.00    +0.000 A 
ENDBRANCH  14  15
ENDBRANCH   4  14
TORSDOF 6
ENDMDL
MODEL 2
REMARK VINA RESULT:    -7.047      3.443      6.511
REMARK INTER + INTRA:          -9.626
REMARK INTER:                  -8.978
REMARK INTRA:                  -0.647
REMARK UNBOUND:                -0.519
REMARK  Name = 
REMARK  6 active torsions:
REMARK  status: ('A' for Active; 'I' for Inactive)
REMARK    1  A    between atoms: N_1  and  C_2
REMARK    2  A    between atoms: C_2  and  C_3
REMARK    3  A    between atoms: C_3  and  O_4
REMARK    4  A    between atoms: C_3  and  C_5
REMARK    5  A    between atoms: C_8  and  C_9
REMARK    6  A    between atoms: C_9  and  N_10
REMARK                            x       y       z     vdW  Elec       q    Type
REMARK                         _______ _______ _______ _____ _____    ______ ____
ROOT
ATOM      1  C   UNL     1      47.567   6.255  13.474  0.00  0.00    +0.000 A 
ATOM      2  C   UNL     1      46.520   5.431  13.906  0.00  0.00    +0.000 A 
ATOM      3  C   UNL     1      45.377   5.272  13.127  0.00  0.00    +0.000 A 
ATOM      4  C   UNL     1      45.244   5.933  11.893  0.00  0.00    +0.000 A 
ATOM      5  C   UNL     1      46.298   6.751  11.456  0.00  0.00    +0.000 A 
ATOM      6  C   UNL     1      47.448   6.896  12.231  0.00  0.00    +0.000 A 
ENDROOT
BRANCH   1   7
ATOM      7  C   UNL     1      48.798   6.447  14.330  0.00  0.00    +0.000 C 
BRANCH   7   8
ATOM      8  O   UNL     1      48.654   5.680  15.532  0.00  0.00    +0.000 OA
ATOM      9  H   UNL     1      48.623   6.342  16.251  0.00  0.00    +0.000 HD
ENDBRANCH   7   8
BRANCH   7  10
ATOM     10  C   UNL     1      49.048   7.929  14.697  0.00  0.00    +0.000 C 
BRANCH  10  11
ATOM     11  N   UNL     1      47.934   8.462  15.504  0.00  0.00    +0.000 NA
ATOM     12  H   UNL     1      47.444   9.169  14.963  0.00  0.00    +0.000 HD
ATOM     13  H   UNL     1      48.313   8.952  16.319  0.00  0.00    +0.000 HD
ENDBRANCH  10  11
ENDBRANCH   7  10
ENDBRANCH   1   7
BRANCH   4  14
ATOM     14  C   UNL     1      44.033   5.739  11.028  0.00  0.00    +0.000 C 
BRANCH  14  15
ATOM     15  N   UNL     1      43.891   4.410  10.444  0.00  0.00    +0.000 N 
ATOM     16  C   UNL     1      43.318   3.327  11.057  0.00  0.00    +0.000 A 
ATOM     17  N   UNL     1      43.779   2.195  10.576  0.00  0.00    +0.000 NA
ATOM     18  C   UNL     1      44.656   2.552   9.585  0.00  0.00    +0.000 A 
ATOM     19  C   UNL     1      45.509   1.747   8.817  0.00  0.00    +0.000 A 
ATOM     20  C   UNL     1      46.326   2.368   7.869  0.00  0.00    +0.000 A 
ATOM     21 CL   UNL     1      47.466   1.421   6.987  0.00  0.00    +0.000 Cl
ATOM     22  C   UNL     1      46.260   3.743   7.640  0.00  0.00    +0.000 A 
ATOM     23  C   UNL     1      45.421   4.561   8.405  0.00  0.00    +0.000 A 
ATOM     24  C   UNL     1      44.665   3.934   9.404  0.00  0.00    +0.000 A 
ENDBRANCH  14  15
ENDBRANCH   4  14
TORSDOF 6
ENDMDL
MODEL 3
REMARK VINA RESULT:    -6.770      1.581      2.237
REMARK INTER + INTRA:          -9.268
REMARK INTER:                  -8.699
REMARK INTRA:                  -0.569
REMARK UNBOUND:                -0.519
REMARK  Name = 
REMARK  6 active torsions:
REMARK  status: ('A' for Active; 'I' for Inactive)
REMARK    1  A    between atoms: N_1  and  C_2
REMARK    2  A    between atoms: C_2  and  C_3
REMARK    3  A    between atoms: C_3  and  O_4
REMARK    4  A    between atoms: C_3  and  C_5
REMARK    5  A    between atoms: C_8  and  C_9
REMARK    6  A    between atoms: C_9  and  N_10
REMARK                            x       y       z     vdW  Elec       q    Type
REMARK                         _______ _______ _______ _____ _____    ______ ____
ROOT
ATOM      1  C   UNL     1      45.963   2.734   7.708  0.00  0.00    +0.000 A 
ATOM      2  C   UNL     1      45.422   2.089   8.827  0.00  0.00    +0.000 A 
ATOM      3  C   UNL     1      45.111   2.809   9.977  0.00  0.00    +0.000 A 
ATOM      4  C   UNL     1      45.333   4.196  10.046  0.00  0.00    +0.000 A 
ATOM      5  C   UNL     1      45.864   4.843   8.919  0.00  0.00    +0.000 A 
ATOM      6  C   UNL     1      46.160   4.122   7.764  0.00  0.00    +0.000 A 
ENDROOT
BRANCH   1   7
ATOM      7  C   UNL     1      46.322   1.950   6.467  0.00  0.00    +0.000 C 
BRANCH   7   8
ATOM      8  O   UNL     1      47.091   0.802   6.848  0.00  0.00    +0.000 OA
ATOM      9  H   UNL     1      47.295   0.345   6.009  0.00  0.00    +0.000 HD
ENDBRANCH   7   8
BRANCH   7  10
ATOM     10  C   UNL     1      47.126   2.784   5.442  0.00  0.00    +0.000 C 
BRANCH  10  11
ATOM     11  N   UNL     1      48.468   2.209   5.239  0.00  0.00    +0.000 NA
ATOM     12  H   UNL     1      48.813   2.491   4.325  0.00  0.00    +0.000 HD
ATOM     13  H   UNL     1      48.397   1.189   5.203  0.00  0.00    +0.000 HD
ENDBRANCH  10  11
ENDBRANCH   7  10
ENDBRANCH   1   7
BRANCH   4  14
ATOM     14  C   UNL     1      44.966   4.987  11.266  0.00  0.00    +0.000 C 
BRANCH  14  15
ATOM     15  N   UNL     1      45.993   5.050  12.301  0.00  0.00    +0.000 N 
ATOM     16  C   UNL     1      45.946   4.411  13.511  0.00  0.00    +0.000 A 
ATOM     17  N   UNL     1      46.670   5.028  14.417  0.00  0.00    +0.000 NA
ATOM     18  C   UNL     1      47.244   6.087  13.762  0.00  0.00    +0.000 A 
ATOM     19  C   UNL     1      48.026   7.133  14.272  0.00  0.00    +0.000 A 
ATOM     20  C   UNL     1      48.481   8.110  13.385  0.00  0.00    +0.000 A 
ATOM     21 CL   UNL     1      49.350   9.469  13.996  0.00  0.00    +0.000 Cl
ATOM     22  C   UNL     1      48.225   8.026  12.015  0.00  0.00    +0.000 A 
ATOM     23  C   UNL     1      47.439   6.994  11.491  0.00  0.00    +0.000 A 
ATOM     24  C   UNL     1      46.925   6.065  12.406  0.00  0.00    +0.000 A 
ENDBRANCH  14  15
ENDBRANCH   4  14
TORSDOF 6
ENDMDL
MODEL 4
REMARK VINA RESULT:    -6.057      1.770      2.426
REMARK INTER + INTRA:          -8.347
REMARK INTER:                  -7.947
REMARK INTRA:                  -0.400
REMARK UNBOUND:                -0.519
REMARK  Name = 
REMARK  6 active torsions:
REMARK  status: ('A' for Active; 'I' for Inactive)
REMARK    1  A    between atoms: N_1  and  C_2
REMARK    2  A    between atoms: C_2  and  C_3
REMARK    3  A    between atoms: C_3  and  O_4
REMARK    4  A    between atoms: C_3  and  C_5
REMARK    5  A    between atoms: C_8  and  C_9
REMARK    6  A    between atoms: C_9  and  N_10
REMARK                            x       y       z     vdW  Elec       q    Type
REMARK                         _______ _______ _______ _____ _____    ______ ____
ROOT
ATOM      1  C   UNL     1      45.345   3.756   9.277  0.00  0.00    +0.000 A 
ATOM      2  C   UNL     1      44.903   3.162  10.466  0.00  0.00    +0.000 A 
ATOM      3  C   UNL     1      44.777   3.916  11.630  0.00  0.00    +0.000 A 
ATOM      4  C   UNL     1      45.092   5.286  11.642  0.00  0.00    +0.000 A 
ATOM      5  C   UNL     1      45.525   5.883  10.448  0.00  0.00    +0.000 A 
ATOM      6  C   UNL     1      45.635   5.129   9.281  0.00  0.00    +0.000 A 
ENDROOT
BRANCH   1   7
ATOM      7  C   UNL     1      45.504   2.934   8.019  0.00  0.00    +0.000 C 
BRANCH   7   8
ATOM      8  O   UNL     1      46.078   1.666   8.360  0.00  0.00    +0.000 OA
ATOM      9  H   UNL     1      45.502   1.004   7.930  0.00  0.00    +0.000 HD
ENDBRANCH   7   8
BRANCH   7  10
ATOM     10  C   UNL     1      46.392   3.626   6.959  0.00  0.00    +0.000 C 
BRANCH  10  11
ATOM     11  N   UNL     1      47.715   2.980   6.883  0.00  0.00    +0.000 NA
ATOM     12  H   UNL     1      48.020   2.964   5.913  0.00  0.00    +0.000 HD
ATOM     13  H   UNL     1      47.628   1.998   7.160  0.00  0.00    +0.000 HD
ENDBRANCH  10  11
ENDBRANCH   7  10
ENDBRANCH   1   7
BRANCH   4  14
ATOM     14  C   UNL     1      44.924   6.115  12.881  0.00  0.00    +0.000 C 
BRANCH  14  15
ATOM     15  N   UNL     1      45.654   7.378  12.891  0.00  0.00    +0.000 N 
ATOM     16  C   UNL     1      45.134   8.602  12.563  0.00  0.00    +0.000 A 
ATOM     17  N   UNL     1      46.064   9.430  12.142  0.00  0.00    +0.000 NA
ATOM     18  C   UNL     1      47.241   8.732  12.239  0.00  0.00    +0.000 A 
ATOM     19  C   UNL     1      48.529   9.096  11.823  0.00  0.00    +0.000 A 
ATOM     20  C   UNL     1      49.570   8.186  12.025  0.00  0.00    +0.000 A 
ATOM     21 CL   UNL     1      51.143   8.556  11.426  0.00  0.00    +0.000 Cl
ATOM     22  C   UNL     1      49.357   6.971  12.676  0.00  0.00    +0.000 A 
ATOM     23  C   UNL     1      48.075   6.588  13.088  0.00  0.00    +0.000 A 
ATOM     24  C   UNL     1      47.030   7.478  12.809  0.00  0.00    +0.000 A 
ENDBRANCH  14  15
ENDBRANCH   4  14
TORSDOF 6
ENDMDL
MODEL 5
REMARK VINA RESULT:    -5.917      2.662      3.696
REMARK INTER + INTRA:          -8.166
REMARK INTER:                  -7.600
REMARK INTRA:                  -0.567
REMARK UNBOUND:                -0.519
REMARK  Name = 
REMARK  6 active torsions:
REMARK  status: ('A' for Active; 'I' for Inactive)
REMARK    1  A    between atoms: N_1  and  C_2
REMARK    2  A    between atoms: C_2  and  C_3
REMARK    3  A    between atoms: C_3  and  O_4
REMARK    4  A    between atoms: C_3  and  C_5
REMARK    5  A    between atoms: C_8  and  C_9
REMARK    6  A    between atoms: C_9  and  N_10
REMARK                            x       y       z     vdW  Elec       q    Type
REMARK                         _______ _______ _______ _____ _____    ______ ____
ROOT
ATOM      1  C   UNL     1      44.999   3.717   9.828  0.00  0.00    +0.000 A 
ATOM      2  C   UNL     1      44.925   3.285  11.159  0.00  0.00    +0.000 A 
ATOM      3  C   UNL     1      45.281   4.138  12.200  0.00  0.00    +0.000 A 
ATOM      4  C   UNL     1      45.725   5.448  11.944  0.00  0.00    +0.000 A 
ATOM      5  C   UNL     1      45.788   5.883  10.611  0.00  0.00    +0.000 A 
ATOM      6  C   UNL     1      45.416   5.032   9.572  0.00  0.00    +0.000 A 
ENDROOT
BRANCH   1   7
ATOM      7  C   UNL     1      44.634   2.785   8.696  0.00  0.00    +0.000 C 
BRANCH   7   8
ATOM      8  O   UNL     1      44.614   1.439   9.188  0.00  0.00    +0.000 OA
ATOM      9  H   UNL     1      44.651   0.878   8.389  0.00  0.00    +0.000 HD
ENDBRANCH   7   8
BRANCH   7  10
ATOM     10  C   UNL     1      45.615   2.877   7.504  0.00  0.00    +0.000 C 
BRANCH  10  11
ATOM     11  N   UNL     1      46.746   1.948   7.685  0.00  0.00    +0.000 NA
ATOM     12  H   UNL     1      46.748   1.614   8.645  0.00  0.00    +0.000 HD
ATOM     13  H   UNL     1      47.625   2.460   7.570  0.00  0.00    +0.000 HD
ENDBRANCH  10  11
ENDBRANCH   7  10
ENDBRANCH   1   7
BRANCH   4  14
ATOM     14  C   UNL     1      46.076   6.386  13.061  0.00  0.00    +0.000 C 
BRANCH  14  15
ATOM     15  N   UNL     1      47.458   6.317  13.524  0.00  0.00    +0.000 N 
ATOM     16  C   UNL     1      47.864   5.881  14.757  0.00  0.00    +0.000 A 
ATOM     17  N   UNL     1      49.020   6.402  15.102  0.00  0.00    +0.000 NA
ATOM     18  C   UNL     1      49.401   7.176  14.036  0.00  0.00    +0.000 A 
ATOM     19  C   UNL     1      50.497   8.040  13.909  0.00  0.00    +0.000 A 
ATOM     20  C   UNL     1      50.654   8.735  12.708  0.00  0.00    +0.000 A 
ATOM     21 CL   UNL     1      51.927   9.888  12.558  0.00  0.00    +0.000 Cl
ATOM     22  C   UNL     1      49.785   8.538  11.634  0.00  0.00    +0.000 A 
ATOM     23  C   UNL     1      48.680   7.687  11.748  0.00  0.00    +0.000 A 
ATOM     24  C   UNL     1      48.493   7.056  12.986  0.00  0.00    +0.000 A 
ENDBRANCH  14  15
ENDBRANCH   4  14
TORSDOF 6
ENDMDL
MODEL 6
REMARK VINA RESULT:    -5.624      3.834      5.694
REMARK INTER + INTRA:          -7.787
REMARK INTER:                  -7.247
REMARK INTRA:                  -0.541
REMARK UNBOUND:                -0.519
REMARK  Name = 
REMARK  6 active torsions:
REMARK  status: ('A' for Active; 'I' for Inactive)
REMARK    1  A    between atoms: N_1  and  C_2
REMARK    2  A    between atoms: C_2  and  C_3
REMARK    3  A    between atoms: C_3  and  O_4
REMARK    4  A    between atoms: C_3  and  C_5
REMARK    5  A    between atoms: C_8  and  C_9
REMARK    6  A    between atoms: C_9  and  N_10
REMARK                            x       y       z     vdW  Elec       q    Type
REMARK                         _______ _______ _______ _____ _____    ______ ____
ROOT
ATOM      1  C   UNL     1      45.187   5.010  11.575  0.00  0.00    +0.000 A 
ATOM      2  C   UNL     1      45.868   6.109  11.039  0.00  0.00    +0.000 A 
ATOM      3  C   UNL     1      46.976   6.643  11.691  0.00  0.00    +0.000 A 
ATOM      4  C   UNL     1      47.435   6.096  12.903  0.00  0.00    +0.000 A 
ATOM      5  C   UNL     1      46.758   4.988  13.435  0.00  0.00    +0.000 A 
ATOM      6  C   UNL     1      45.659   4.446  12.770  0.00  0.00    +0.000 A 
ENDROOT
BRANCH   1   7
ATOM      7  C   UNL     1      43.971   4.444  10.879  0.00  0.00    +0.000 C 
BRANCH   7   8
ATOM      8  O   UNL     1      43.245   5.516  10.264  0.00  0.00    +0.000 OA
ATOM      9  H   UNL     1      43.301   6.256  10.899  0.00  0.00    +0.000 HD
ENDBRANCH   7   8
BRANCH   7  10
ATOM     10  C   UNL     1      43.032   3.678  11.840  0.00  0.00    +0.000 C 
BRANCH  10  11
ATOM     11  N   UNL     1      43.025   2.238  11.527  0.00  0.00    +0.000 NA
ATOM     12  H   UNL     1      42.947   1.712  12.393  0.00  0.00    +0.000 HD
ATOM     13  H   UNL     1      43.930   1.976  11.125  0.00  0.00    +0.000 HD
ENDBRANCH  10  11
ENDBRANCH   7  10
ENDBRANCH   1   7
BRANCH   4  14
ATOM     14  C   UNL     1      48.650   6.641  13.595  0.00  0.00    +0.000 C 
BRANCH  14  15
ATOM     15  N   UNL     1      48.392   7.348  14.845  0.00  0.00    +0.000 N 
ATOM     16  C   UNL     1      48.275   8.705  14.983  0.00  0.00    +0.000 A 
ATOM     17  N   UNL     1      48.579   9.099  16.199  0.00  0.00    +0.000 NA
ATOM     18  C   UNL     1      48.864   7.951  16.892  0.00  0.00    +0.000 A 
ATOM     19  C   UNL     1      49.349   7.795  18.198  0.00  0.00    +0.000 A 
ATOM     20  C   UNL     1      49.576   6.499  18.667  0.00  0.00    +0.000 A 
ATOM     21 CL   UNL     1      50.276   6.276  20.227  0.00  0.00    +0.000 Cl
ATOM     22  C   UNL     1      49.273   5.380  17.890  0.00  0.00    +0.000 A 
ATOM     23  C   UNL     1      48.798   5.519  16.581  0.00  0.00    +0.000 A 
ATOM     24  C   UNL     1      48.650   6.826  16.098  0.00  0.00    +0.000 A 
ENDBRANCH  14  15
ENDBRANCH   4  14
TORSDOF 6
ENDMDL
MODEL 7
REMARK VINA RESULT:    -5.601      5.932      8.214
REMARK INTER + INTRA:          -7.757
REMARK INTER:                  -7.221
REMARK INTRA:                  -0.536
REMARK UNBOUND:                -0.519
REMARK  Name = 
REMARK  6 active torsions:
REMARK  status: ('A' for Active; 'I' for Inactive)
REMARK    1  A    between atoms: N_1  and  C_2
REMARK    2  A    between atoms: C_2  and  C_3
REMARK    3  A    between atoms: C_3  and  O_4
REMARK    4  A    between atoms: C_3  and  C_5
REMARK    5  A    between atoms: C_8  and  C_9
REMARK    6  A    between atoms: C_9  and  N_10
REMARK                            x       y       z     vdW  Elec       q    Type
REMARK                         _______ _______ _______ _____ _____    ______ ____
ROOT
ATOM      1  C   UNL     1      51.176   2.094  17.396  0.00  0.00    +0.000 A 
ATOM      2  C   UNL     1      49.927   1.769  16.850  0.00  0.00    +0.000 A 
ATOM      3  C   UNL     1      48.956   2.750  16.670  0.00  0.00    +0.000 A 
ATOM      4  C   UNL     1      49.201   4.086  17.033  0.00  0.00    +0.000 A 
ATOM      5  C   UNL     1      50.456   4.413  17.569  0.00  0.00    +0.000 A 
ATOM      6  C   UNL     1      51.432   3.431  17.733  0.00  0.00    +0.000 A 
ENDROOT
BRANCH   1   7
ATOM      7  C   UNL     1      52.222   1.026  17.612  0.00  0.00    +0.000 C 
BRANCH   7   8
ATOM      8  O   UNL     1      51.661  -0.021  18.415  0.00  0.00    +0.000 OA
ATOM      9  H   UNL     1      51.908  -0.849  17.959  0.00  0.00    +0.000 HD
ENDBRANCH   7   8
BRANCH   7  10
ATOM     10  C   UNL     1      53.498   1.567  18.299  0.00  0.00    +0.000 C 
BRANCH  10  11
ATOM     11  N   UNL     1      54.244   0.474  18.949  0.00  0.00    +0.000 NA
ATOM     12  H   UNL     1      53.833  -0.415  18.676  0.00  0.00    +0.000 HD
ATOM     13  H   UNL     1      54.119   0.536  19.963  0.00  0.00    +0.000 HD
ENDBRANCH  10  11
ENDBRANCH   7  10
ENDBRANCH   1   7
BRANCH   4  14
ATOM     14  C   UNL     1      48.175   5.158  16.809  0.00  0.00    +0.000 C 
BRANCH  14  15
ATOM     15  N   UNL     1      48.242   5.825  15.513  0.00  0.00    +0.000 N 
ATOM     16  C   UNL     1      48.732   7.085  15.290  0.00  0.00    +0.000 A 
ATOM     17  N   UNL     1      48.207   7.628  14.215  0.00  0.00    +0.000 NA
ATOM     18  C   UNL     1      47.375   6.671  13.695  0.00  0.00    +0.000 A 
ATOM     19  C   UNL     1      46.486   6.755  12.614  0.00  0.00    +0.000 A 
ATOM     20  C   UNL     1      45.729   5.626  12.292  0.00  0.00    +0.000 A 
ATOM     21 CL   UNL     1      44.548   5.729  11.040  0.00  0.00    +0.000 Cl
ATOM     22  C   UNL     1      45.889   4.423  12.981  0.00  0.00    +0.000 A 
ATOM     23  C   UNL     1      46.764   4.325  14.068  0.00  0.00    +0.000 A 
ATOM     24  C   UNL     1      47.458   5.488  14.427  0.00  0.00    +0.000 A 
ENDBRANCH  14  15
ENDBRANCH   4  14
TORSDOF 6
ENDMDL
MODEL 8
REMARK VINA RESULT:    -5.301      3.621      5.692
REMARK INTER + INTRA:          -7.370
REMARK INTER:                  -6.852
REMARK INTRA:                  -0.518
REMARK UNBOUND:                -0.519
REMARK  Name = 
REMARK  6 active torsions:
REMARK  status: ('A' for Active; 'I' for Inactive)
REMARK    1  A    between atoms: N_1  and  C_2
REMARK    2  A    between atoms: C_2  and  C_3
REMARK    3  A    between atoms: C_3  and  O_4
REMARK    4  A    between atoms: C_3  and  C_5
REMARK    5  A    between atoms: C_8  and  C_9
REMARK    6  A    between atoms: C_9  and  N_10
REMARK                            x       y       z     vdW  Elec       q    Type
REMARK                         _______ _______ _______ _____ _____    ______ ____
ROOT
ATOM      1  C   UNL     1      44.992   5.284  11.593  0.00  0.00    +0.000 A 
ATOM      2  C   UNL     1      45.968   4.918  12.528  0.00  0.00    +0.000 A 
ATOM      3  C   UNL     1      46.711   5.890  13.193  0.00  0.00    +0.000 A 
ATOM      4  C   UNL     1      46.504   7.258  12.942  0.00  0.00    +0.000 A 
ATOM      5  C   UNL     1      45.518   7.624  12.012  0.00  0.00    +0.000 A 
ATOM      6  C   UNL     1      44.765   6.649  11.360  0.00  0.00    +0.000 A 
ENDROOT
BRANCH   1   7
ATOM      7  C   UNL     1      44.201   4.231  10.854  0.00  0.00    +0.000 C 
BRANCH   7   8
ATOM      8  O   UNL     1      43.594   4.827   9.700  0.00  0.00    +0.000 OA
ATOM      9  H   UNL     1      42.715   5.128  10.005  0.00  0.00    +0.000 HD
ENDBRANCH   7   8
BRANCH   7  10
ATOM     10  C   UNL     1      43.103   3.581  11.728  0.00  0.00    +0.000 C 
BRANCH  10  11
ATOM     11  N   UNL     1      43.589   2.324  12.328  0.00  0.00    +0.000 NA
ATOM     12  H   UNL     1      44.605   2.324  12.316  0.00  0.00    +0.000 HD
ATOM     13  H   UNL     1      43.307   1.537  11.737  0.00  0.00    +0.000 HD
ENDBRANCH  10  11
ENDBRANCH   7  10
ENDBRANCH   1   7
BRANCH   4  14
ATOM     14  C   UNL     1      47.274   8.313  13.680  0.00  0.00    +0.000 C 
BRANCH  14  15
ATOM     15  N   UNL     1      48.644   7.956  14.031  0.00  0.00    +0.000 N 
ATOM     16  C   UNL     1      49.170   7.959  15.296  0.00  0.00    +0.000 A 
ATOM     17  N   UNL     1      50.472   8.128  15.282  0.00  0.00    +0.000 NA
ATOM     18  C   UNL     1      50.815   8.196  13.956  0.00  0.00    +0.000 A 
ATOM     19  C   UNL     1      52.057   8.476  13.369  0.00  0.00    +0.000 A 
ATOM     20  C   UNL     1      52.138   8.503  11.975  0.00  0.00    +0.000 A 
ATOM     21 CL   UNL     1      53.623   8.953  11.223  0.00  0.00    +0.000 Cl
ATOM     22  C   UNL     1      51.034   8.201  11.177  0.00  0.00    +0.000 A 
ATOM     23  C   UNL     1      49.785   7.929  11.746  0.00  0.00    +0.000 A 
ATOM     24  C   UNL     1      49.703   7.983  13.143  0.00  0.00    +0.000 A 
ENDBRANCH  14  15
ENDBRANCH   4  14
TORSDOF 6
ENDMDL
MODEL 9
REMARK VINA RESULT:    -5.084      3.784      5.461
REMARK INTER + INTRA:          -7.089
REMARK INTER:                  -6.686
REMARK INTRA:                  -0.403
REMARK UNBOUND:                -0.519
REMARK  Name = 
REMARK  6 active torsions:
REMARK  status: ('A' for Active; 'I' for Inactive)
REMARK    1  A    between atoms: N_1  and  C_2
REMARK    2  A    between atoms: C_2  and  C_3
REMARK    3  A    between atoms: C_3  and  O_4
REMARK    4  A    between atoms: C_3  and  C_5
REMARK    5  A    between atoms: C_8  and  C_9
REMARK    6  A    between atoms: C_9  and  N_10
REMARK                            x       y       z     vdW  Elec       q    Type
REMARK                         _______ _______ _______ _____ _____    ______ ____
ROOT
ATOM      1  C   UNL     1      44.800   5.039  11.703  0.00  0.00    +0.000 A 
ATOM      2  C   UNL     1      45.259   4.636  12.964  0.00  0.00    +0.000 A 
ATOM      3  C   UNL     1      46.447   5.145  13.481  0.00  0.00    +0.000 A 
ATOM      4  C   UNL     1      47.216   6.071  12.753  0.00  0.00    +0.000 A 
ATOM      5  C   UNL     1      46.750   6.483  11.494  0.00  0.00    +0.000 A 
ATOM      6  C   UNL     1      45.552   5.983  10.987  0.00  0.00    +0.000 A 
ENDROOT
BRANCH   1   7
ATOM      7  C   UNL     1      43.523   4.470  11.131  0.00  0.00    +0.000 C 
BRANCH   7   8
ATOM      8  O   UNL     1      42.405   5.119  11.751  0.00  0.00    +0.000 OA
ATOM      9  H   UNL     1      42.524   6.069  11.557  0.00  0.00    +0.000 HD
ENDBRANCH   7   8
BRANCH   7  10
ATOM     10  C   UNL     1      43.402   2.942  11.335  0.00  0.00    +0.000 C 
BRANCH  10  11
ATOM     11  N   UNL     1      44.180   2.216  10.315  0.00  0.00    +0.000 NA
ATOM     12  H   UNL     1      44.345   1.267  10.639  0.00  0.00    +0.000 HD
ATOM     13  H   UNL     1      45.107   2.643  10.230  0.00  0.00    +0.000 HD
ENDBRANCH  10  11
ENDBRANCH   7  10
ENDBRANCH   1   7
BRANCH   4  14
ATOM     14  C   UNL     1      48.478   6.654  13.317  0.00  0.00    +0.000 C 
BRANCH  14  15
ATOM     15  N   UNL     1      48.579   8.108  13.248  0.00  0.00    +0.000 N 
ATOM     16  C   UNL     1      47.580   8.992  13.561  0.00  0.00    +0.000 A 
ATOM     17  N   UNL     1      47.727  10.135  12.930  0.00  0.00    +0.000 NA
ATOM     18  C   UNL     1      48.887  10.006  12.211  0.00  0.00    +0.000 A 
ATOM     19  C   UNL     1      49.461  10.883  11.280  0.00  0.00    +0.000 A 
ATOM     20  C   UNL     1      50.656  10.505  10.665  0.00  0.00    +0.000 A 
ATOM     21 CL   UNL     1      51.329  11.508   9.435  0.00  0.00    +0.000 Cl
ATOM     22  C   UNL     1      51.305   9.317  11.006  0.00  0.00    +0.000 A 
ATOM     23  C   UNL     1      50.741   8.426  11.927  0.00  0.00    +0.000 A 
ATOM     24  C   UNL     1      49.503   8.784  12.476  0.00  0.00    +0.000 A 
ENDBRANCH  14  15
ENDBRANCH   4  14
TORSDOF 6
ENDMDL
