MODEL 1
REMARK VINA RESULT:    -7.321      0.000      0.000
REMARK INTER + INTRA:          -9.311
REMARK INTER:                  -8.819
REMARK INTRA:                  -0.492
REMARK UNBOUND:                -0.492
REMARK  Name = 
REMARK  5 active torsions:
REMARK  status: ('A' for Active; 'I' for Inactive)
REMARK    1  A    between atoms: C_1  and  C_2
REMARK    2  A    between atoms: N_8  and  C_9
REMARK    3  A    between atoms: C_9  and  C_10
REMARK    4  A    between atoms: C_17  and  C_18
REMARK    5  A    between atoms: C_18  and  N_19
REMARK                            x       y       z     vdW  Elec       q    Type
REMARK                         _______ _______ _______ _____ _____    ______ ____
ROOT
ATOM      1  C   UNL     1      47.933   7.366  11.507  0.00  0.00    +0.000 C 
ATOM      2  C   UNL     1      46.868   6.377  11.907  0.00  0.00    +0.000 A 
ATOM      3  C   UNL     1      46.090   5.794  10.884  0.00  0.00    +0.000 A 
ATOM      4  C   UNL     1      45.139   4.817  11.222  0.00  0.00    +0.000 A 
ATOM      5  C   UNL     1      44.909   4.448  12.547  0.00  0.00    +0.000 A 
ATOM      6  C   UNL     1      43.887   3.463  12.546  0.00  0.00    +0.000 A 
ATOM      7  C   UNL     1      43.536   3.227  11.237  0.00  0.00    +0.000 A 
ATOM      8  N   UNL     1      44.302   4.042  10.441  0.00  0.00    +0.000 N 
ATOM      9  C   UNL     1      45.673   5.055  13.562  0.00  0.00    +0.000 A 
ATOM     10  C   UNL     1      46.665   6.009  13.252  0.00  0.00    +0.000 A 
ENDROOT
BRANCH   8  11
ATOM     11  C   UNL     1      44.296   3.992   8.981  0.00  0.00    +0.000 C 
BRANCH  11  12
ATOM     12  C   UNL     1      45.337   3.099   8.381  0.00  0.00    +0.000 A 
ATOM     13  C   UNL     1      45.492   1.750   8.634  0.00  0.00    +0.000 A 
ATOM     14  N   UNL     1      46.461   0.989   8.083  0.00  0.00    +0.000 NA
ATOM     15  C   UNL     1      47.297   1.614   7.241  0.00  0.00    +0.000 A 
ATOM     16  N   UNL     1      47.234   2.907   6.895  0.00  0.00    +0.000 NA
ATOM     17  C   UNL     1      46.248   3.618   7.477  0.00  0.00    +0.000 A 
ENDBRANCH  11  12
ENDBRANCH   8  11
BRANCH  10  18
ATOM     18  C   UNL     1      47.504   6.546  14.393  0.00  0.00    +0.000 C 
BRANCH  18  19
ATOM     19  N   UNL     1      47.866   5.500  15.346  0.00  0.00    +0.000 NA
ATOM     20  H   UNL     1      47.942   5.916  16.273  0.00  0.00    +0.000 HD
ATOM     21  H   UNL     1      48.788   5.139  15.111  0.00  0.00    +0.000 HD
ENDBRANCH  18  19
ENDBRANCH  10  18
TORSDOF 4
ENDMDL
MODEL 2
REMARK VINA RESULT:    -6.663      1.723      1.978
REMARK INTER + INTRA:          -8.519
REMARK INTER:                  -8.011
REMARK INTRA:                  -0.508
REMARK UNBOUND:                -0.492
REMARK  Name = 
REMARK  5 active torsions:
REMARK  status: ('A' for Active; 'I' for Inactive)
REMARK    1  A    between atoms: C_1  and  C_2
REMARK    2  A    between atoms: N_8  and  C_9
REMARK    3  A    between atoms: C_9  and  C_10
REMARK    4  A    between atoms: C_17  and  C_18
REMARK    5  A    between atoms: C_18  and  N_19
REMARK                            x       y       z     vdW  Elec       q    Type
REMARK                         _______ _______ _______ _____ _____    ______ ____
ROOT
ATOM      1  C   UNL     1      44.701   8.874  11.098  0.00  0.00    +0.000 C 
ATOM      2  C   UNL     1      45.183   7.628  11.796  0.00  0.00    +0.000 A 
ATOM      3  C   UNL     1      44.714   6.384  11.323  0.00  0.00    +0.000 A 
ATOM      4  C   UNL     1      45.202   5.204  11.909  0.00  0.00    +0.000 A 
ATOM      5  C   UNL     1      46.096   5.234  12.979  0.00  0.00    +0.000 A 
ATOM      6  C   UNL     1      46.374   3.890  13.343  0.00  0.00    +0.000 A 
ATOM      7  C   UNL     1      45.679   3.072  12.482  0.00  0.00    +0.000 A 
ATOM      8  N   UNL     1      44.979   3.872  11.613  0.00  0.00    +0.000 N 
ATOM      9  C   UNL     1      46.537   6.481  13.459  0.00  0.00    +0.000 A 
ATOM     10  C   UNL     1      46.099   7.684  12.865  0.00  0.00    +0.000 A 
ENDROOT
BRANCH   8  11
ATOM     11  C   UNL     1      44.214   3.364  10.476  0.00  0.00    +0.000 C 
BRANCH  11  12
ATOM     12  C   UNL     1      45.023   3.096   9.246  0.00  0.00    +0.000 A 
ATOM     13  C   UNL     1      45.524   1.868   8.857  0.00  0.00    +0.000 A 
ATOM     14  N   UNL     1      46.267   1.679   7.746  0.00  0.00    +0.000 NA
ATOM     15  C   UNL     1      46.504   2.769   7.001  0.00  0.00    +0.000 A 
ATOM     16  N   UNL     1      46.053   4.004   7.257  0.00  0.00    +0.000 NA
ATOM     17  C   UNL     1      45.318   4.133   8.378  0.00  0.00    +0.000 A 
ENDBRANCH  11  12
ENDBRANCH   8  11
BRANCH  10  18
ATOM     18  C   UNL     1      46.692   8.979  13.382  0.00  0.00    +0.000 C 
BRANCH  18  19
ATOM     19  N   UNL     1      47.143   8.861  14.765  0.00  0.00    +0.000 NA
ATOM     20  H   UNL     1      46.370   8.514  15.332  0.00  0.00    +0.000 HD
ATOM     21  H   UNL     1      47.374   9.786  15.121  0.00  0.00    +0.000 HD
ENDBRANCH  18  19
ENDBRANCH  10  18
TORSDOF 4
ENDMDL
MODEL 3
REMARK VINA RESULT:    -6.608      1.996      5.854
REMARK INTER + INTRA:          -8.451
REMARK INTER:                  -8.038
REMARK INTRA:                  -0.413
REMARK UNBOUND:                -0.492
REMARK  Name = 
REMARK  5 active torsions:
REMARK  status: ('A' for Active; 'I' for Inactive)
REMARK    1  A    between atoms: C_1  and  C_2
REMARK    2  A    between atoms: N_8  and  C_9
REMARK    3  A    between atoms: C_9  and  C_10
REMARK    4  A    between atoms: C_17  and  C_18
REMARK    5  A    between atoms: C_18  and  N_19
REMARK                            x       y       z     vdW  Elec       q    Type
REMARK                         _______ _______ _______ _____ _____    ______ ____
ROOT
ATOM      1  C   UNL     1      47.004   4.110   6.671  0.00  0.00    +0.000 C 
ATOM      2  C   UNL     1      46.198   3.551   7.816  0.00  0.00    +0.000 A 
ATOM      3  C   UNL     1      45.528   4.463   8.659  0.00  0.00    +0.000 A 
ATOM      4  C   UNL     1      44.712   3.967   9.690  0.00  0.00    +0.000 A 
ATOM      5  C   UNL     1      44.591   2.599   9.932  0.00  0.00    +0.000 A 
ATOM      6  C   UNL     1      43.718   2.436  11.040  0.00  0.00    +0.000 A 
ATOM      7  C   UNL     1      43.302   3.687  11.431  0.00  0.00    +0.000 A 
ATOM      8  N   UNL     1      43.900   4.608  10.606  0.00  0.00    +0.000 N 
ATOM      9  C   UNL     1      45.284   1.699   9.101  0.00  0.00    +0.000 A 
ATOM     10  C   UNL     1      46.078   2.163   8.030  0.00  0.00    +0.000 A 
ENDROOT
BRANCH   8  11
ATOM     11  C   UNL     1      43.609   6.040  10.638  0.00  0.00    +0.000 C 
BRANCH  11  12
ATOM     12  C   UNL     1      44.537   6.849  11.489  0.00  0.00    +0.000 A 
ATOM     13  C   UNL     1      45.449   6.347  12.398  0.00  0.00    +0.000 A 
ATOM     14  N   UNL     1      46.253   7.119  13.158  0.00  0.00    +0.000 NA
ATOM     15  C   UNL     1      46.135   8.444  12.986  0.00  0.00    +0.000 A 
ATOM     16  N   UNL     1      45.311   9.050  12.121  0.00  0.00    +0.000 NA
ATOM     17  C   UNL     1      44.532   8.229  11.389  0.00  0.00    +0.000 A 
ENDBRANCH  11  12
ENDBRANCH   8  11
BRANCH  10  18
ATOM     18  C   UNL     1      46.716   1.127   7.129  0.00  0.00    +0.000 C 
BRANCH  18  19
ATOM     19  N   UNL     1      46.862  -0.164   7.796  0.00  0.00    +0.000 NA
ATOM     20  H   UNL     1      46.761  -0.903   7.101  0.00  0.00    +0.000 HD
ATOM     21  H   UNL     1      46.103  -0.284   8.462  0.00  0.00    +0.000 HD
ENDBRANCH  18  19
ENDBRANCH  10  18
TORSDOF 4
ENDMDL
MODEL 4
REMARK VINA RESULT:    -6.147      1.736      6.338
REMARK INTER + INTRA:          -7.897
REMARK INTER:                  -7.679
REMARK INTRA:                  -0.218
REMARK UNBOUND:                -0.492
REMARK  Name = 
REMARK  5 active torsions:
REMARK  status: ('A' for Active; 'I' for Inactive)
REMARK    1  A    between atoms: C_1  and  C_2
REMARK    2  A    between atoms: N_8  and  C_9
REMARK    3  A    between atoms: C_9  and  C_10
REMARK    4  A    between atoms: C_17  and  C_18
REMARK    5  A    between atoms: C_18  and  N_19
REMARK                            x       y       z     vdW  Elec       q    Type
REMARK                         _______ _______ _______ _____ _____    ______ ____
ROOT
ATOM      1  C   UNL     1      46.418   0.093   7.633  0.00  0.00    +0.000 C 
ATOM      2  C   UNL     1      46.207   1.569   7.852  0.00  0.00    +0.000 A 
ATOM      3  C   UNL     1      45.649   1.980   9.081  0.00  0.00    +0.000 A 
ATOM      4  C   UNL     1      45.508   3.354   9.341  0.00  0.00    +0.000 A 
ATOM      5  C   UNL     1      45.857   4.316   8.394  0.00  0.00    +0.000 A 
ATOM      6  C   UNL     1      45.578   5.590   8.956  0.00  0.00    +0.000 A 
ATOM      7  C   UNL     1      45.100   5.389  10.230  0.00  0.00    +0.000 A 
ATOM      8  N   UNL     1      45.067   4.036  10.460  0.00  0.00    +0.000 N 
ATOM      9  C   UNL     1      46.389   3.894   7.161  0.00  0.00    +0.000 A 
ATOM     10  C   UNL     1      46.583   2.523   6.886  0.00  0.00    +0.000 A 
ENDROOT
BRANCH   8  11
ATOM     11  C   UNL     1      44.726   3.437  11.748  0.00  0.00    +0.000 C 
BRANCH  11  12
ATOM     12  C   UNL     1      45.613   3.845  12.883  0.00  0.00    +0.000 A 
ATOM     13  C   UNL     1      45.577   5.056  13.545  0.00  0.00    +0.000 A 
ATOM     14  N   UNL     1      46.413   5.386  14.553  0.00  0.00    +0.000 NA
ATOM     15  C   UNL     1      47.310   4.454  14.905  0.00  0.00    +0.000 A 
ATOM     16  N   UNL     1      47.427   3.236  14.360  0.00  0.00    +0.000 NA
ATOM     17  C   UNL     1      46.567   2.962  13.359  0.00  0.00    +0.000 A 
ENDBRANCH  11  12
ENDBRANCH   8  11
BRANCH  10  18
ATOM     18  C   UNL     1      47.245   2.159   5.574  0.00  0.00    +0.000 C 
BRANCH  18  19
ATOM     19  N   UNL     1      48.658   1.835   5.744  0.00  0.00    +0.000 NA
ATOM     20  H   UNL     1      49.145   2.032   4.871  0.00  0.00    +0.000 HD
ATOM     21  H   UNL     1      48.754   0.836   5.913  0.00  0.00    +0.000 HD
ENDBRANCH  18  19
ENDBRANCH  10  18
TORSDOF 4
ENDMDL
MODEL 5
REMARK VINA RESULT:    -5.949      1.936      2.095
REMARK INTER + INTRA:          -7.658
REMARK INTER:                  -7.344
REMARK INTRA:                  -0.314
REMARK UNBOUND:                -0.492
REMARK  Name = 
REMARK  5 active torsions:
REMARK  status: ('A' for Active; 'I' for Inactive)
REMARK    1  A    between atoms: C_1  and  C_2
REMARK    2  A    between atoms: N_8  and  C_9
REMARK    3  A    between atoms: C_9  and  C_10
REMARK    4  A    between atoms: C_17  and  C_18
REMARK    5  A    between atoms: C_18  and  N_19
REMARK                            x       y       z     vdW  Elec       q    Type
REMARK                         _______ _______ _______ _____ _____    ______ ____
ROOT
ATOM      1  C   UNL     1      48.534   6.417  12.962  0.00  0.00    +0.000 C 
ATOM      2  C   UNL     1      47.086   6.528  12.561  0.00  0.00    +0.000 A 
ATOM      3  C   UNL     1      46.504   5.438  11.879  0.00  0.00    +0.000 A 
ATOM      4  C   UNL     1      45.138   5.485  11.556  0.00  0.00    +0.000 A 
ATOM      5  C   UNL     1      44.356   6.603  11.848  0.00  0.00    +0.000 A 
ATOM      6  C   UNL     1      43.041   6.339  11.381  0.00  0.00    +0.000 A 
ATOM      7  C   UNL     1      43.033   5.071  10.849  0.00  0.00    +0.000 A 
ATOM      8  N   UNL     1      44.301   4.557  10.965  0.00  0.00    +0.000 N 
ATOM      9  C   UNL     1      44.952   7.695  12.506  0.00  0.00    +0.000 A 
ATOM     10  C   UNL     1      46.312   7.662  12.881  0.00  0.00    +0.000 A 
ENDROOT
BRANCH   8  11
ATOM     11  C   UNL     1      44.658   3.184  10.615  0.00  0.00    +0.000 C 
BRANCH  11  12
ATOM     12  C   UNL     1      45.339   3.031   9.291  0.00  0.00    +0.000 A 
ATOM     13  C   UNL     1      45.797   1.847   8.746  0.00  0.00    +0.000 A 
ATOM     14  N   UNL     1      46.424   1.762   7.554  0.00  0.00    +0.000 NA
ATOM     15  C   UNL     1      46.587   2.915   6.889  0.00  0.00    +0.000 A 
ATOM     16  N   UNL     1      46.166   4.119   7.297  0.00  0.00    +0.000 NA
ATOM     17  C   UNL     1      45.547   4.143   8.494  0.00  0.00    +0.000 A 
ENDBRANCH  11  12
ENDBRANCH   8  11
BRANCH  10  18
ATOM     18  C   UNL     1      46.852   8.839  13.666  0.00  0.00    +0.000 C 
BRANCH  18  19
ATOM     19  N   UNL     1      47.013  10.027  12.832  0.00  0.00    +0.000 NA
ATOM     20  H   UNL     1      46.575  10.818  13.302  0.00  0.00    +0.000 HD
ATOM     21  H   UNL     1      46.511   9.892  11.958  0.00  0.00    +0.000 HD
ENDBRANCH  18  19
ENDBRANCH  10  18
TORSDOF 4
ENDMDL
MODEL 6
REMARK VINA RESULT:    -5.851      2.773      6.859
REMARK INTER + INTRA:          -7.540
REMARK INTER:                  -7.079
REMARK INTRA:                  -0.461
REMARK UNBOUND:                -0.492
REMARK  Name = 
REMARK  5 active torsions:
REMARK  status: ('A' for Active; 'I' for Inactive)
REMARK    1  A    between atoms: C_1  and  C_2
REMARK    2  A    between atoms: N_8  and  C_9
REMARK    3  A    between atoms: C_9  and  C_10
REMARK    4  A    between atoms: C_17  and  C_18
REMARK    5  A    between atoms: C_18  and  N_19
REMARK                            x       y       z     vdW  Elec       q    Type
REMARK                         _______ _______ _______ _____ _____    ______ ____
ROOT
ATOM      1  C   UNL     1      43.700   3.017  12.113  0.00  0.00    +0.000 C 
ATOM      2  C   UNL     1      44.804   4.017  12.346  0.00  0.00    +0.000 A 
ATOM      3  C   UNL     1      45.355   4.101  13.643  0.00  0.00    +0.000 A 
ATOM      4  C   UNL     1      46.432   4.973  13.871  0.00  0.00    +0.000 A 
ATOM      5  C   UNL     1      46.935   5.794  12.861  0.00  0.00    +0.000 A 
ATOM      6  C   UNL     1      47.996   6.556  13.418  0.00  0.00    +0.000 A 
ATOM      7  C   UNL     1      48.142   6.172  14.730  0.00  0.00    +0.000 A 
ATOM      8  N   UNL     1      47.200   5.209  14.996  0.00  0.00    +0.000 N 
ATOM      9  C   UNL     1      46.360   5.720  11.578  0.00  0.00    +0.000 A 
ATOM     10  C   UNL     1      45.305   4.824  11.306  0.00  0.00    +0.000 A 
ENDROOT
BRANCH   8  11
ATOM     11  C   UNL     1      47.121   4.474  16.256  0.00  0.00    +0.000 C 
BRANCH  11  12
ATOM     12  C   UNL     1      48.344   3.680  16.596  0.00  0.00    +0.000 A 
ATOM     13  C   UNL     1      49.344   4.067  17.467  0.00  0.00    +0.000 A 
ATOM     14  N   UNL     1      50.441   3.323  17.727  0.00  0.00    +0.000 NA
ATOM     15  C   UNL     1      50.522   2.146  17.090  0.00  0.00    +0.000 A 
ATOM     16  N   UNL     1      49.608   1.650  16.245  0.00  0.00    +0.000 NA
ATOM     17  C   UNL     1      48.535   2.435  16.023  0.00  0.00    +0.000 A 
ENDBRANCH  11  12
ENDBRANCH   8  11
BRANCH  10  18
ATOM     18  C   UNL     1      44.806   4.741   9.878  0.00  0.00    +0.000 C 
BRANCH  18  19
ATOM     19  N   UNL     1      45.718   5.389   8.940  0.00  0.00    +0.000 NA
ATOM     20  H   UNL     1      46.663   5.338   9.317  0.00  0.00    +0.000 HD
ATOM     21  H   UNL     1      45.482   6.377   8.873  0.00  0.00    +0.000 HD
ENDBRANCH  18  19
ENDBRANCH  10  18
TORSDOF 4
ENDMDL
MODEL 7
REMARK VINA RESULT:    -5.760      1.798      2.642
REMARK INTER + INTRA:          -7.430
REMARK INTER:                  -6.912
REMARK INTRA:                  -0.519
REMARK UNBOUND:                -0.492
REMARK  Name = 
REMARK  5 active torsions:
REMARK  status: ('A' for Active; 'I' for Inactive)
REMARK    1  A    between atoms: C_1  and  C_2
REMARK    2  A    between atoms: N_8  and  C_9
REMARK    3  A    between atoms: C_9  and  C_10
REMARK    4  A    between atoms: C_17  and  C_18
REMARK    5  A    between atoms: C_18  and  N_19
REMARK                            x       y       z     vdW  Elec       q    Type
REMARK                         _______ _______ _______ _____ _____    ______ ____
ROOT
ATOM      1  C   UNL     1      48.755   9.191  11.767  0.00  0.00    +0.000 C 
ATOM      2  C   UNL     1      48.196   7.989  12.485  0.00  0.00    +0.000 A 
ATOM      3  C   UNL     1      46.997   7.427  11.998  0.00  0.00    +0.000 A 
ATOM      4  C   UNL     1      46.492   6.265  12.604  0.00  0.00    +0.000 A 
ATOM      5  C   UNL     1      47.119   5.684  13.706  0.00  0.00    +0.000 A 
ATOM      6  C   UNL     1      46.355   4.548  14.084  0.00  0.00    +0.000 A 
ATOM      7  C   UNL     1      45.308   4.436  13.199  0.00  0.00    +0.000 A 
ATOM      8  N   UNL     1      45.400   5.472  12.303  0.00  0.00    +0.000 N 
ATOM      9  C   UNL     1      48.301   6.268  14.200  0.00  0.00    +0.000 A 
ATOM     10  C   UNL     1      48.857   7.411  13.587  0.00  0.00    +0.000 A 
ENDROOT
BRANCH   8  11
ATOM     11  C   UNL     1      44.529   5.622  11.139  0.00  0.00    +0.000 C 
BRANCH  11  12
ATOM     12  C   UNL     1      44.852   4.715   9.994  0.00  0.00    +0.000 A 
ATOM     13  C   UNL     1      44.315   3.460   9.777  0.00  0.00    +0.000 A 
ATOM     14  N   UNL     1      44.653   2.669   8.737  0.00  0.00    +0.000 NA
ATOM     15  C   UNL     1      45.560   3.168   7.884  0.00  0.00    +0.000 A 
ATOM     16  N   UNL     1      46.131   4.377   7.971  0.00  0.00    +0.000 NA
ATOM     17  C   UNL     1      45.756   5.123   9.029  0.00  0.00    +0.000 A 
ENDBRANCH  11  12
ENDBRANCH   8  11
BRANCH  10  18
ATOM     18  C   UNL     1      50.178   7.922  14.123  0.00  0.00    +0.000 C 
BRANCH  18  19
ATOM     19  N   UNL     1      49.997   8.834  15.249  0.00  0.00    +0.000 NA
ATOM     20  H   UNL     1      49.894   8.285  16.101  0.00  0.00    +0.000 HD
ATOM     21  H   UNL     1      49.128   9.349  15.125  0.00  0.00    +0.000 HD
ENDBRANCH  18  19
ENDBRANCH  10  18
TORSDOF 4
ENDMDL
MODEL 8
REMARK VINA RESULT:    -5.688      2.934      3.633
REMARK INTER + INTRA:          -7.343
REMARK INTER:                  -6.902
REMARK INTRA:                  -0.441
REMARK UNBOUND:                -0.492
REMARK  Name = 
REMARK  5 active torsions:
REMARK  status: ('A' for Active; 'I' for Inactive)
REMARK    1  A    between atoms: C_1  and  C_2
REMARK    2  A    between atoms: N_8  and  C_9
REMARK    3  A    between atoms: C_9  and  C_10
REMARK    4  A    between atoms: C_17  and  C_18
REMARK    5  A    between atoms: C_18  and  N_19
REMARK                            x       y       z     vdW  Elec       q    Type
REMARK                         _______ _______ _______ _____ _____    ______ ____
ROOT
ATOM      1  C   UNL     1      43.231   9.886  10.517  0.00  0.00    +0.000 C 
ATOM      2  C   UNL     1      44.256   9.069  11.262  0.00  0.00    +0.000 A 
ATOM      3  C   UNL     1      44.080   7.669  11.304  0.00  0.00    +0.000 A 
ATOM      4  C   UNL     1      45.057   6.877  11.930  0.00  0.00    +0.000 A 
ATOM      5  C   UNL     1      46.168   7.445  12.554  0.00  0.00    +0.000 A 
ATOM      6  C   UNL     1      46.942   6.385  13.097  0.00  0.00    +0.000 A 
ATOM      7  C   UNL     1      46.317   5.203  12.773  0.00  0.00    +0.000 A 
ATOM      8  N   UNL     1      45.183   5.507  12.061  0.00  0.00    +0.000 N 
ATOM      9  C   UNL     1      46.320   8.844  12.528  0.00  0.00    +0.000 A 
ATOM     10  C   UNL     1      45.378   9.664  11.871  0.00  0.00    +0.000 A 
ENDROOT
BRANCH   8  11
ATOM     11  C   UNL     1      44.318   4.505  11.442  0.00  0.00    +0.000 C 
BRANCH  11  12
ATOM     12  C   UNL     1      44.846   3.924  10.167  0.00  0.00    +0.000 A 
ATOM     13  C   UNL     1      44.881   2.582   9.842  0.00  0.00    +0.000 A 
ATOM     14  N   UNL     1      45.386   2.103   8.685  0.00  0.00    +0.000 NA
ATOM     15  C   UNL     1      45.864   3.015   7.826  0.00  0.00    +0.000 A 
ATOM     16  N   UNL     1      45.862   4.342   8.014  0.00  0.00    +0.000 NA
ATOM     17  C   UNL     1      45.346   4.762   9.186  0.00  0.00    +0.000 A 
ENDBRANCH  11  12
ENDBRANCH   8  11
BRANCH  10  18
ATOM     18  C   UNL     1      45.663  11.151  11.811  0.00  0.00    +0.000 C 
BRANCH  18  19
ATOM     19  N   UNL     1      47.026  11.430  11.368  0.00  0.00    +0.000 NA
ATOM     20  H   UNL     1      47.676  11.078  12.069  0.00  0.00    +0.000 HD
ATOM     21  H   UNL     1      47.163  12.437  11.322  0.00  0.00    +0.000 HD
ENDBRANCH  18  19
ENDBRANCH  10  18
TORSDOF 4
ENDMDL
MODEL 9
REMARK VINA RESULT:    -5.509      1.754      5.743
REMARK INTER + INTRA:          -7.128
REMARK INTER:                  -6.741
REMARK INTRA:                  -0.387
REMARK UNBOUND:                -0.492
REMARK  Name = 
REMARK  5 active torsions:
REMARK  status: ('A' for Active; 'I' for Inactive)
REMARK    1  A    between atoms: C_1  and  C_2
REMARK    2  A    between atoms: N_8  and  C_9
REMARK    3  A    between atoms: C_9  and  C_10
REMARK    4  A    between atoms: C_17  and  C_18
REMARK    5  A    between atoms: C_18  and  N_19
REMARK                            x       y       z     vdW  Elec       q    Type
REMARK                         _______ _______ _______ _____ _____    ______ ____
ROOT
ATOM      1  C   UNL     1      46.335   4.365   7.805  0.00  0.00    +0.000 C 
ATOM      2  C   UNL     1      45.572   4.188   9.093  0.00  0.00    +0.000 A 
ATOM      3  C   UNL     1      45.619   5.236  10.037  0.00  0.00    +0.000 A 
ATOM      4  C   UNL     1      44.860   5.128  11.215  0.00  0.00    +0.000 A 
ATOM      5  C   UNL     1      44.104   3.990  11.496  0.00  0.00    +0.000 A 
ATOM      6  C   UNL     1      43.480   4.191  12.755  0.00  0.00    +0.000 A 
ATOM      7  C   UNL     1      43.834   5.443  13.202  0.00  0.00    +0.000 A 
ATOM      8  N   UNL     1      44.661   6.008  12.263  0.00  0.00    +0.000 N 
ATOM      9  C   UNL     1      44.086   2.940  10.559  0.00  0.00    +0.000 A 
ATOM     10  C   UNL     1      44.803   3.035   9.347  0.00  0.00    +0.000 A 
ENDROOT
BRANCH   8  11
ATOM     11  C   UNL     1      45.150   7.383  12.330  0.00  0.00    +0.000 C 
BRANCH  11  12
ATOM     12  C   UNL     1      46.596   7.518  12.692  0.00  0.00    +0.000 A 
ATOM     13  C   UNL     1      47.396   6.522  13.217  0.00  0.00    +0.000 A 
ATOM     14  N   UNL     1      48.693   6.697  13.548  0.00  0.00    +0.000 NA
ATOM     15  C   UNL     1      49.198   7.921  13.332  0.00  0.00    +0.000 A 
ATOM     16  N   UNL     1      48.533   8.958  12.806  0.00  0.00    +0.000 NA
ATOM     17  C   UNL     1      47.243   8.726  12.496  0.00  0.00    +0.000 A 
ENDBRANCH  11  12
ENDBRANCH   8  11
BRANCH  10  18
ATOM     18  C   UNL     1      44.656   1.901   8.354  0.00  0.00    +0.000 C 
BRANCH  18  19
ATOM     19  N   UNL     1      45.794   0.987   8.394  0.00  0.00    +0.000 NA
ATOM     20  H   UNL     1      45.464   0.046   8.180  0.00  0.00    +0.000 HD
ATOM     21  H   UNL     1      46.167   0.957   9.340  0.00  0.00    +0.000 HD
ENDBRANCH  18  19
ENDBRANCH  10  18
TORSDOF 4
ENDMDL
