MODEL 1
REMARK VINA RESULT:    -9.133      0.000      0.000
REMARK INTER + INTRA:         -12.814
REMARK INTER:                 -11.803
REMARK INTRA:                  -1.011
REMARK UNBOUND:                -1.011
REMARK  Name = 
REMARK  6 active torsions:
REMARK  status: ('A' for Active; 'I' for Inactive)
REMARK    1  A    between atoms: C_1  and  O_2
REMARK    2  A    between atoms: O_2  and  C_3
REMARK    3  A    between atoms: C_7  and  C_8
REMARK    4  A    between atoms: C_12  and  C_13
REMARK    5  A    between atoms: C_13  and  N_14
REMARK    6  A    between atoms: C_18  and  C_19
REMARK                            x       y       z     vdW  Elec       q    Type
REMARK                         _______ _______ _______ _____ _____    ______ ____
ROOT
ATOM      1  C   UNL     1      43.937   4.838  11.307  0.00  0.00    +0.000 C 
ATOM      2  C   UNL     1      42.690   5.108  12.136  0.00  0.00    +0.000 C 
ATOM      3  C   UNL     1      43.042   6.012  11.006  0.00  0.00    +0.000 C 
ATOM      4  F   UNL     1      43.462   7.288  11.333  0.00  0.00    +0.000 F 
ENDROOT
BRANCH   1   5
ATOM      5  N   UNL     1      43.888   3.605  10.454  0.00  0.00    +0.000 N 
ATOM      6  C   UNL     1      44.856   3.350   9.462  0.00  0.00    +0.000 A 
ATOM      7  C   UNL     1      45.338   4.343   8.624  0.00  0.00    +0.000 A 
ATOM      8  C   UNL     1      46.215   4.008   7.592  0.00  0.00    +0.000 A 
ATOM      9  C   UNL     1      46.577   2.682   7.437  0.00  0.00    +0.000 A 
ATOM     10  N   UNL     1      46.122   1.721   8.266  0.00  0.00    +0.000 NA
ATOM     11  N   UNL     1      45.249   2.067   9.283  0.00  0.00    +0.000 NA
ATOM     12  H   UNL     1      43.797   2.729  10.970  0.00  0.00    +0.000 HD
BRANCH   9  13
ATOM     13  C   UNL     1      47.466   2.267   6.318  0.00  0.00    +0.000 C 
ATOM     14  N   UNL     1      47.369   2.989   5.148  0.00  0.00    +0.000 N 
ATOM     15  O   UNL     1      48.263   1.345   6.421  0.00  0.00    +0.000 OA
ATOM     16  H   UNL     1      46.748   3.786   5.074  0.00  0.00    +0.000 HD
ATOM     17  H   UNL     1      47.995   2.768   4.387  0.00  0.00    +0.000 HD
ENDBRANCH   9  13
ENDBRANCH   1   5
BRANCH   1  22
ATOM     18  C   UNL     1      46.984   6.667  12.511  0.00  0.00    +0.000 A 
ATOM     19  C   UNL     1      47.297   5.977  13.690  0.00  0.00    +0.000 A 
ATOM     20  C   UNL     1      46.670   4.766  13.993  0.00  0.00    +0.000 A 
ATOM     21  C   UNL     1      45.641   4.294  13.172  0.00  0.00    +0.000 A 
ATOM     22  C   UNL     1      45.279   4.989  12.010  0.00  0.00    +0.000 A 
ATOM     23  C   UNL     1      46.076   6.078  11.627  0.00  0.00    +0.000 A 
BRANCH  18  28
ATOM     24  C   UNL     1      46.551  10.339  11.823  0.00  0.00    +0.000 A 
ATOM     25  C   UNL     1      47.858  10.642  11.465  0.00  0.00    +0.000 A 
ATOM     26  N   UNL     1      48.890   9.765  11.505  0.00  0.00    +0.000 NA
ATOM     27  C   UNL     1      48.594   8.510  11.917  0.00  0.00    +0.000 A 
ATOM     28  C   UNL     1      47.321   8.081  12.297  0.00  0.00    +0.000 A 
ATOM     29  C   UNL     1      46.294   9.037  12.244  0.00  0.00    +0.000 A 
BRANCH  24  31
ATOM     30  C   UNL     1      44.283  10.934  11.476  0.00  0.00    +0.000 C 
ATOM     31  O   UNL     1      45.630  11.339  11.700  0.00  0.00    +0.000 OA
ENDBRANCH  24  31
ENDBRANCH  18  28
ENDBRANCH   1  22
TORSDOF 5
ENDMDL
MODEL 2
REMARK VINA RESULT:    -7.522      2.909      4.393
REMARK INTER + INTRA:         -10.732
REMARK INTER:                  -9.915
REMARK INTRA:                  -0.817
REMARK UNBOUND:                -1.011
REMARK  Name = 
REMARK  6 active torsions:
REMARK  status: ('A' for Active; 'I' for Inactive)
REMARK    1  A    between atoms: C_1  and  O_2
REMARK    2  A    between atoms: O_2  and  C_3
REMARK    3  A    between atoms: C_7  and  C_8
REMARK    4  A    between atoms: C_12  and  C_13
REMARK    5  A    between atoms: C_13  and  N_14
REMARK    6  A    between atoms: C_18  and  C_19
REMARK                            x       y       z     vdW  Elec       q    Type
REMARK                         _______ _______ _______ _____ _____    ______ ____
ROOT
ATOM      1  C   UNL     1      43.759   5.243  11.623  0.00  0.00    +0.000 C 
ATOM      2  C   UNL     1      42.519   5.504  12.467  0.00  0.00    +0.000 C 
ATOM      3  C   UNL     1      42.628   6.091  11.103  0.00  0.00    +0.000 C 
ATOM      4  F   UNL     1      42.788   7.463  11.023  0.00  0.00    +0.000 F 
ENDROOT
BRANCH   1   5
ATOM      5  N   UNL     1      43.931   3.830  11.150  0.00  0.00    +0.000 N 
ATOM      6  C   UNL     1      44.695   3.517  10.009  0.00  0.00    +0.000 A 
ATOM      7  C   UNL     1      44.641   4.275   8.850  0.00  0.00    +0.000 A 
ATOM      8  C   UNL     1      45.340   3.854   7.718  0.00  0.00    +0.000 A 
ATOM      9  C   UNL     1      46.068   2.680   7.790  0.00  0.00    +0.000 A 
ATOM     10  N   UNL     1      46.135   1.955   8.925  0.00  0.00    +0.000 NA
ATOM     11  N   UNL     1      45.433   2.382  10.039  0.00  0.00    +0.000 NA
ATOM     12  H   UNL     1      44.238   3.171  11.867  0.00  0.00    +0.000 HD
BRANCH   9  13
ATOM     13  C   UNL     1      46.785   2.161   6.593  0.00  0.00    +0.000 C 
ATOM     14  N   UNL     1      47.011   3.055   5.570  0.00  0.00    +0.000 N 
ATOM     15  O   UNL     1      47.176   1.005   6.514  0.00  0.00    +0.000 OA
ATOM     16  H   UNL     1      46.734   4.027   5.651  0.00  0.00    +0.000 HD
ATOM     17  H   UNL     1      47.541   2.750   4.765  0.00  0.00    +0.000 HD
ENDBRANCH   9  13
ENDBRANCH   1   5
BRANCH   1  22
ATOM     18  C   UNL     1      46.816   5.461  13.786  0.00  0.00    +0.000 A 
ATOM     19  C   UNL     1      47.748   6.056  12.924  0.00  0.00    +0.000 A 
ATOM     20  C   UNL     1      47.338   6.609  11.708  0.00  0.00    +0.000 A 
ATOM     21  C   UNL     1      46.011   6.469  11.295  0.00  0.00    +0.000 A 
ATOM     22  C   UNL     1      45.069   5.838  12.120  0.00  0.00    +0.000 A 
ATOM     23  C   UNL     1      45.469   5.493  13.420  0.00  0.00    +0.000 A 
BRANCH  18  28
ATOM     24  C   UNL     1      48.088   4.318  17.136  0.00  0.00    +0.000 A 
ATOM     25  C   UNL     1      48.344   2.989  16.823  0.00  0.00    +0.000 A 
ATOM     26  N   UNL     1      48.062   2.413  15.629  0.00  0.00    +0.000 NA
ATOM     27  C   UNL     1      47.502   3.214  14.694  0.00  0.00    +0.000 A 
ATOM     28  C   UNL     1      47.202   4.564  14.885  0.00  0.00    +0.000 A 
ATOM     29  C   UNL     1      47.507   5.104  16.145  0.00  0.00    +0.000 A 
BRANCH  24  31
ATOM     30  C   UNL     1      47.548   5.608  19.050  0.00  0.00    +0.000 C 
ATOM     31  O   UNL     1      48.458   4.740  18.380  0.00  0.00    +0.000 OA
ENDBRANCH  24  31
ENDBRANCH  18  28
ENDBRANCH   1  22
TORSDOF 5
ENDMDL
MODEL 3
REMARK VINA RESULT:    -7.233      4.002      8.127
REMARK INTER + INTRA:         -10.358
REMARK INTER:                  -9.296
REMARK INTRA:                  -1.062
REMARK UNBOUND:                -1.011
REMARK  Name = 
REMARK  6 active torsions:
REMARK  status: ('A' for Active; 'I' for Inactive)
REMARK    1  A    between atoms: C_1  and  O_2
REMARK    2  A    between atoms: O_2  and  C_3
REMARK    3  A    between atoms: C_7  and  C_8
REMARK    4  A    between atoms: C_12  and  C_13
REMARK    5  A    between atoms: C_13  and  N_14
REMARK    6  A    between atoms: C_18  and  C_19
REMARK                            x       y       z     vdW  Elec       q    Type
REMARK                         _______ _______ _______ _____ _____    ______ ____
ROOT
ATOM      1  C   UNL     1      49.119   7.906  12.519  0.00  0.00    +0.000 C 
ATOM      2  C   UNL     1      50.116   8.100  11.384  0.00  0.00    +0.000 C 
ATOM      3  C   UNL     1      50.081   9.066  12.517  0.00  0.00    +0.000 C 
ATOM      4  F   UNL     1      49.611  10.337  12.241  0.00  0.00    +0.000 F 
ENDROOT
BRANCH   1   5
ATOM      5  N   UNL     1      49.366   6.714  13.395  0.00  0.00    +0.000 N 
ATOM      6  C   UNL     1      48.963   6.689  14.744  0.00  0.00    +0.000 A 
ATOM      7  C   UNL     1      49.112   7.783  15.583  0.00  0.00    +0.000 A 
ATOM      8  C   UNL     1      48.792   7.663  16.936  0.00  0.00    +0.000 A 
ATOM      9  C   UNL     1      48.336   6.443  17.401  0.00  0.00    +0.000 A 
ATOM     10  N   UNL     1      48.174   5.386  16.580  0.00  0.00    +0.000 NA
ATOM     11  N   UNL     1      48.499   5.518  15.241  0.00  0.00    +0.000 NA
ATOM     12  H   UNL     1      49.054   5.823  13.006  0.00  0.00    +0.000 HD
BRANCH   9  13
ATOM     13  C   UNL     1      48.035   6.250  18.846  0.00  0.00    +0.000 C 
ATOM     14  N   UNL     1      46.866   5.588  19.152  0.00  0.00    +0.000 N 
ATOM     15  O   UNL     1      48.787   6.638  19.730  0.00  0.00    +0.000 OA
ATOM     16  H   UNL     1      46.266   5.219  18.424  0.00  0.00    +0.000 HD
ATOM     17  H   UNL     1      46.657   5.393  20.121  0.00  0.00    +0.000 HD
ENDBRANCH   9  13
ENDBRANCH   1   5
BRANCH   1  22
ATOM     18  C   UNL     1      45.608   6.741  11.894  0.00  0.00    +0.000 A 
ATOM     19  C   UNL     1      44.851   7.845  12.311  0.00  0.00    +0.000 A 
ATOM     20  C   UNL     1      45.469   9.068  12.581  0.00  0.00    +0.000 A 
ATOM     21  C   UNL     1      46.862   9.165  12.545  0.00  0.00    +0.000 A 
ATOM     22  C   UNL     1      47.645   8.062  12.174  0.00  0.00    +0.000 A 
ATOM     23  C   UNL     1      46.980   6.921  11.702  0.00  0.00    +0.000 A 
BRANCH  18  28
ATOM     24  C   UNL     1      44.257   3.435  10.715  0.00  0.00    +0.000 A 
ATOM     25  C   UNL     1      43.756   2.969  11.922  0.00  0.00    +0.000 A 
ATOM     26  N   UNL     1      43.891   3.608  13.109  0.00  0.00    +0.000 NA
ATOM     27  C   UNL     1      44.557   4.785  13.083  0.00  0.00    +0.000 A 
ATOM     28  C   UNL     1      45.102   5.361  11.935  0.00  0.00    +0.000 A 
ATOM     29  C   UNL     1      44.939   4.649  10.736  0.00  0.00    +0.000 A 
BRANCH  24  31
ATOM     30  C   UNL     1      45.136   2.035   9.016  0.00  0.00    +0.000 C 
ATOM     31  O   UNL     1      44.010   2.674   9.608  0.00  0.00    +0.000 OA
ENDBRANCH  24  31
ENDBRANCH  18  28
ENDBRANCH   1  22
TORSDOF 5
ENDMDL
MODEL 4
REMARK VINA RESULT:    -6.796      4.092      8.454
REMARK INTER + INTRA:          -9.794
REMARK INTER:                  -8.448
REMARK INTRA:                  -1.345
REMARK UNBOUND:                -1.011
REMARK  Name = 
REMARK  6 active torsions:
REMARK  status: ('A' for Active; 'I' for Inactive)
REMARK    1  A    between atoms: C_1  and  O_2
REMARK    2  A    between atoms: O_2  and  C_3
REMARK    3  A    between atoms: C_7  and  C_8
REMARK    4  A    between atoms: C_12  and  C_13
REMARK    5  A    between atoms: C_13  and  N_14
REMARK    6  A    between atoms: C_18  and  C_19
REMARK                            x       y       z     vdW  Elec       q    Type
REMARK                         _______ _______ _______ _____ _____    ______ ____
ROOT
ATOM      1  C   UNL     1      50.374   8.631  12.203  0.00  0.00    +0.000 C 
ATOM      2  C   UNL     1      51.331   8.542  11.022  0.00  0.00    +0.000 C 
ATOM      3  C   UNL     1      51.319   9.759  11.880  0.00  0.00    +0.000 C 
ATOM      4  F   UNL     1      50.823  10.919  11.313  0.00  0.00    +0.000 F 
ENDROOT
BRANCH   1   5
ATOM      5  N   UNL     1      50.665   7.696  13.338  0.00  0.00    +0.000 N 
ATOM      6  C   UNL     1      50.000   7.801  14.576  0.00  0.00    +0.000 A 
ATOM      7  C   UNL     1      49.746   9.023  15.178  0.00  0.00    +0.000 A 
ATOM      8  C   UNL     1      49.180   9.059  16.453  0.00  0.00    +0.000 A 
ATOM      9  C   UNL     1      48.891   7.861  17.081  0.00  0.00    +0.000 A 
ATOM     10  N   UNL     1      49.121   6.673  16.485  0.00  0.00    +0.000 NA
ATOM     11  N   UNL     1      49.687   6.653  15.222  0.00  0.00    +0.000 NA
ATOM     12  H   UNL     1      50.627   6.704  13.099  0.00  0.00    +0.000 HD
BRANCH   9  13
ATOM     13  C   UNL     1      48.337   7.846  18.463  0.00  0.00    +0.000 C 
ATOM     14  N   UNL     1      47.199   7.096  18.667  0.00  0.00    +0.000 N 
ATOM     15  O   UNL     1      48.865   8.449  19.387  0.00  0.00    +0.000 OA
ATOM     16  H   UNL     1      46.788   6.554  17.916  0.00  0.00    +0.000 HD
ATOM     17  H   UNL     1      46.827   7.021  19.603  0.00  0.00    +0.000 HD
ENDBRANCH   9  13
ENDBRANCH   1   5
BRANCH   1  22
ATOM     18  C   UNL     1      46.867   7.317  11.978  0.00  0.00    +0.000 A 
ATOM     19  C   UNL     1      46.103   8.479  12.158  0.00  0.00    +0.000 A 
ATOM     20  C   UNL     1      46.706   9.738  12.122  0.00  0.00    +0.000 A 
ATOM     21  C   UNL     1      48.096   9.839  12.018  0.00  0.00    +0.000 A 
ATOM     22  C   UNL     1      48.887   8.689  11.882  0.00  0.00    +0.000 A 
ATOM     23  C   UNL     1      48.229   7.463  11.703  0.00  0.00    +0.000 A 
BRANCH  18  28
ATOM     24  C   UNL     1      46.778   3.908  13.563  0.00  0.00    +0.000 A 
ATOM     25  C   UNL     1      45.808   3.326  12.759  0.00  0.00    +0.000 A 
ATOM     26  N   UNL     1      45.120   3.978  11.790  0.00  0.00    +0.000 NA
ATOM     27  C   UNL     1      45.429   5.283  11.610  0.00  0.00    +0.000 A 
ATOM     28  C   UNL     1      46.387   5.978  12.349  0.00  0.00    +0.000 A 
ATOM     29  C   UNL     1      47.061   5.253  13.345  0.00  0.00    +0.000 A 
BRANCH  24  31
ATOM     30  C   UNL     1      47.460   3.589  15.811  0.00  0.00    +0.000 C 
ATOM     31  O   UNL     1      47.390   3.098  14.476  0.00  0.00    +0.000 OA
ENDBRANCH  24  31
ENDBRANCH  18  28
ENDBRANCH   1  22
TORSDOF 5
ENDMDL
MODEL 5
REMARK VINA RESULT:    -6.463      6.011      8.443
REMARK INTER + INTRA:          -9.363
REMARK INTER:                  -8.683
REMARK INTRA:                  -0.680
REMARK UNBOUND:                -1.011
REMARK  Name = 
REMARK  6 active torsions:
REMARK  status: ('A' for Active; 'I' for Inactive)
REMARK    1  A    between atoms: C_1  and  O_2
REMARK    2  A    between atoms: O_2  and  C_3
REMARK    3  A    between atoms: C_7  and  C_8
REMARK    4  A    between atoms: C_12  and  C_13
REMARK    5  A    between atoms: C_13  and  N_14
REMARK    6  A    between atoms: C_18  and  C_19
REMARK                            x       y       z     vdW  Elec       q    Type
REMARK                         _______ _______ _______ _____ _____    ______ ____
ROOT
ATOM      1  C   UNL     1      48.471   5.088  17.646  0.00  0.00    +0.000 C 
ATOM      2  C   UNL     1      47.258   5.521  18.458  0.00  0.00    +0.000 C 
ATOM      3  C   UNL     1      47.262   4.197  17.776  0.00  0.00    +0.000 C 
ATOM      4  F   UNL     1      46.410   4.046  16.696  0.00  0.00    +0.000 F 
ENDROOT
BRANCH   1   5
ATOM      5  N   UNL     1      49.711   4.808  18.442  0.00  0.00    +0.000 N 
ATOM      6  C   UNL     1      50.599   3.772  18.092  0.00  0.00    +0.000 A 
ATOM      7  C   UNL     1      50.158   2.527  17.673  0.00  0.00    +0.000 A 
ATOM      8  C   UNL     1      51.084   1.508  17.443  0.00  0.00    +0.000 A 
ATOM      9  C   UNL     1      52.425   1.778  17.645  0.00  0.00    +0.000 A 
ATOM     10  N   UNL     1      52.854   2.996  18.034  0.00  0.00    +0.000 NA
ATOM     11  N   UNL     1      51.924   3.995  18.263  0.00  0.00    +0.000 NA
ATOM     12  H   UNL     1      50.304   5.621  18.614  0.00  0.00    +0.000 HD
BRANCH   9  13
ATOM     13  C   UNL     1      53.445   0.709  17.466  0.00  0.00    +0.000 C 
ATOM     14  N   UNL     1      53.285  -0.433  18.220  0.00  0.00    +0.000 N 
ATOM     15  O   UNL     1      54.376   0.817  16.680  0.00  0.00    +0.000 OA
ATOM     16  H   UNL     1      52.488  -0.549  18.834  0.00  0.00    +0.000 HD
ATOM     17  H   UNL     1      53.930  -1.200  18.085  0.00  0.00    +0.000 HD
ENDBRANCH   9  13
ENDBRANCH   1   5
BRANCH   1  22
ATOM     18  C   UNL     1      47.909   6.269  14.130  0.00  0.00    +0.000 A 
ATOM     19  C   UNL     1      48.440   7.566  14.164  0.00  0.00    +0.000 A 
ATOM     20  C   UNL     1      49.199   7.994  15.257  0.00  0.00    +0.000 A 
ATOM     21  C   UNL     1      49.334   7.165  16.374  0.00  0.00    +0.000 A 
ATOM     22  C   UNL     1      48.774   5.880  16.382  0.00  0.00    +0.000 A 
ATOM     23  C   UNL     1      48.210   5.408  15.188  0.00  0.00    +0.000 A 
BRANCH  18  28
ATOM     24  C   UNL     1      45.141   4.232  12.603  0.00  0.00    +0.000 A 
ATOM     25  C   UNL     1      45.114   4.819  11.346  0.00  0.00    +0.000 A 
ATOM     26  N   UNL     1      45.871   5.881  10.978  0.00  0.00    +0.000 NA
ATOM     27  C   UNL     1      46.709   6.375  11.918  0.00  0.00    +0.000 A 
ATOM     28  C   UNL     1      46.832   5.870  13.213  0.00  0.00    +0.000 A 
ATOM     29  C   UNL     1      46.015   4.775  13.541  0.00  0.00    +0.000 A 
BRANCH  24  31
ATOM     30  C   UNL     1      43.403   2.862  11.753  0.00  0.00    +0.000 C 
ATOM     31  O   UNL     1      44.327   3.153  12.797  0.00  0.00    +0.000 OA
ENDBRANCH  24  31
ENDBRANCH  18  28
ENDBRANCH   1  22
TORSDOF 5
ENDMDL
MODEL 6
REMARK VINA RESULT:    -6.325      4.565      6.866
REMARK INTER + INTRA:          -9.185
REMARK INTER:                  -9.180
REMARK INTRA:                  -0.005
REMARK UNBOUND:                -1.011
REMARK  Name = 
REMARK  6 active torsions:
REMARK  status: ('A' for Active; 'I' for Inactive)
REMARK    1  A    between atoms: C_1  and  O_2
REMARK    2  A    between atoms: O_2  and  C_3
REMARK    3  A    between atoms: C_7  and  C_8
REMARK    4  A    between atoms: C_12  and  C_13
REMARK    5  A    between atoms: C_13  and  N_14
REMARK    6  A    between atoms: C_18  and  C_19
REMARK                            x       y       z     vdW  Elec       q    Type
REMARK                         _______ _______ _______ _____ _____    ______ ____
ROOT
ATOM      1  C   UNL     1      47.791   7.963  13.125  0.00  0.00    +0.000 C 
ATOM      2  C   UNL     1      47.525   9.238  12.338  0.00  0.00    +0.000 C 
ATOM      3  C   UNL     1      48.085   8.043  11.649  0.00  0.00    +0.000 C 
ATOM      4  F   UNL     1      49.398   8.125  11.222  0.00  0.00    +0.000 F 
ENDROOT
BRANCH   1   5
ATOM      5  N   UNL     1      46.571   7.245  13.619  0.00  0.00    +0.000 N 
ATOM      6  C   UNL     1      46.029   6.142  12.932  0.00  0.00    +0.000 A 
ATOM      7  C   UNL     1      45.925   6.108  11.550  0.00  0.00    +0.000 A 
ATOM      8  C   UNL     1      45.282   5.034  10.933  0.00  0.00    +0.000 A 
ATOM      9  C   UNL     1      44.762   4.030  11.728  0.00  0.00    +0.000 A 
ATOM     10  N   UNL     1      44.882   4.055  13.071  0.00  0.00    +0.000 NA
ATOM     11  N   UNL     1      45.518   5.128  13.671  0.00  0.00    +0.000 NA
ATOM     12  H   UNL     1      46.609   6.957  14.598  0.00  0.00    +0.000 HD
BRANCH   9  13
ATOM     13  C   UNL     1      44.020   2.892  11.121  0.00  0.00    +0.000 C 
ATOM     14  N   UNL     1      44.570   2.326   9.991  0.00  0.00    +0.000 N 
ATOM     15  O   UNL     1      42.981   2.457  11.598  0.00  0.00    +0.000 OA
ATOM     16  H   UNL     1      45.456   2.649   9.621  0.00  0.00    +0.000 HD
ATOM     17  H   UNL     1      44.120   1.518   9.584  0.00  0.00    +0.000 HD
ENDBRANCH   9  13
ENDBRANCH   1   5
BRANCH   1  22
ATOM     18  C   UNL     1      49.790   6.733  16.052  0.00  0.00    +0.000 A 
ATOM     19  C   UNL     1      51.055   7.281  15.798  0.00  0.00    +0.000 A 
ATOM     20  C   UNL     1      51.224   8.248  14.803  0.00  0.00    +0.000 A 
ATOM     21  C   UNL     1      50.149   8.589  13.979  0.00  0.00    +0.000 A 
ATOM     22  C   UNL     1      48.884   8.021  14.184  0.00  0.00    +0.000 A 
ATOM     23  C   UNL     1      48.704   7.225  15.324  0.00  0.00    +0.000 A 
BRANCH  18  28
ATOM     24  C   UNL     1      50.568   3.467  17.746  0.00  0.00    +0.000 A 
ATOM     25  C   UNL     1      49.278   2.960  17.831  0.00  0.00    +0.000 A 
ATOM     26  N   UNL     1      48.162   3.630  17.452  0.00  0.00    +0.000 NA
ATOM     27  C   UNL     1      48.351   4.873  16.951  0.00  0.00    +0.000 A 
ATOM     28  C   UNL     1      49.595   5.489  16.810  0.00  0.00    +0.000 A 
ATOM     29  C   UNL     1      50.713   4.750  17.228  0.00  0.00    +0.000 A 
BRANCH  24  31
ATOM     30  C   UNL     1      51.732   1.426  17.433  0.00  0.00    +0.000 C 
ATOM     31  O   UNL     1      51.580   2.646  18.151  0.00  0.00    +0.000 OA
ENDBRANCH  24  31
ENDBRANCH  18  28
ENDBRANCH   1  22
TORSDOF 5
ENDMDL
MODEL 7
REMARK VINA RESULT:    -6.243      4.802      8.161
REMARK INTER + INTRA:          -9.080
REMARK INTER:                  -8.519
REMARK INTRA:                  -0.561
REMARK UNBOUND:                -1.011
REMARK  Name = 
REMARK  6 active torsions:
REMARK  status: ('A' for Active; 'I' for Inactive)
REMARK    1  A    between atoms: C_1  and  O_2
REMARK    2  A    between atoms: O_2  and  C_3
REMARK    3  A    between atoms: C_7  and  C_8
REMARK    4  A    between atoms: C_12  and  C_13
REMARK    5  A    between atoms: C_13  and  N_14
REMARK    6  A    between atoms: C_18  and  C_19
REMARK                            x       y       z     vdW  Elec       q    Type
REMARK                         _______ _______ _______ _____ _____    ______ ____
ROOT
ATOM      1  C   UNL     1      50.373   8.761  15.368  0.00  0.00    +0.000 C 
ATOM      2  C   UNL     1      51.023  10.118  15.595  0.00  0.00    +0.000 C 
ATOM      3  C   UNL     1      49.627   9.877  16.053  0.00  0.00    +0.000 C 
ATOM      4  F   UNL     1      48.622  10.540  15.372  0.00  0.00    +0.000 F 
ENDROOT
BRANCH   1   5
ATOM      5  N   UNL     1      50.949   7.629  16.165  0.00  0.00    +0.000 N 
ATOM      6  C   UNL     1      50.149   6.570  16.636  0.00  0.00    +0.000 A 
ATOM      7  C   UNL     1      48.888   6.776  17.173  0.00  0.00    +0.000 A 
ATOM      8  C   UNL     1      48.188   5.700  17.721  0.00  0.00    +0.000 A 
ATOM      9  C   UNL     1      48.782   4.452  17.712  0.00  0.00    +0.000 A 
ATOM     10  N   UNL     1      50.001   4.250  17.171  0.00  0.00    +0.000 NA
ATOM     11  N   UNL     1      50.686   5.327  16.636  0.00  0.00    +0.000 NA
ATOM     12  H   UNL     1      51.766   7.181  15.747  0.00  0.00    +0.000 HD
BRANCH   9  13
ATOM     13  C   UNL     1      48.099   3.285  18.333  0.00  0.00    +0.000 C 
ATOM     14  N   UNL     1      48.318   3.082  19.678  0.00  0.00    +0.000 N 
ATOM     15  O   UNL     1      47.362   2.543  17.698  0.00  0.00    +0.000 OA
ATOM     16  H   UNL     1      48.886   3.723  20.219  0.00  0.00    +0.000 HD
ATOM     17  H   UNL     1      47.828   2.331  20.143  0.00  0.00    +0.000 HD
ENDBRANCH   9  13
ENDBRANCH   1   5
BRANCH   1  22
ATOM     18  C   UNL     1      48.582   6.995  12.584  0.00  0.00    +0.000 A 
ATOM     19  C   UNL     1      48.753   7.881  11.512  0.00  0.00    +0.000 A 
ATOM     20  C   UNL     1      49.648   8.950  11.610  0.00  0.00    +0.000 A 
ATOM     21  C   UNL     1      50.292   9.206  12.823  0.00  0.00    +0.000 A 
ATOM     22  C   UNL     1      50.103   8.359  13.924  0.00  0.00    +0.000 A 
ATOM     23  C   UNL     1      49.372   7.179  13.721  0.00  0.00    +0.000 A 
BRANCH  18  28
ATOM     24  C   UNL     1      45.215   5.457  11.921  0.00  0.00    +0.000 A 
ATOM     25  C   UNL     1      45.077   4.732  13.097  0.00  0.00    +0.000 A 
ATOM     26  N   UNL     1      46.028   4.639  14.058  0.00  0.00    +0.000 NA
ATOM     27  C   UNL     1      47.177   5.318  13.832  0.00  0.00    +0.000 A 
ATOM     28  C   UNL     1      47.433   6.085  12.695  0.00  0.00    +0.000 A 
ATOM     29  C   UNL     1      46.414   6.136  11.729  0.00  0.00    +0.000 A 
BRANCH  24  31
ATOM     30  C   UNL     1      42.948   4.864  11.558  0.00  0.00    +0.000 C 
ATOM     31  O   UNL     1      44.146   5.461  11.071  0.00  0.00    +0.000 OA
ENDBRANCH  24  31
ENDBRANCH  18  28
ENDBRANCH   1  22
TORSDOF 5
ENDMDL
