MODEL 1
REMARK VINA RESULT:    -7.945      0.000      0.000
REMARK INTER + INTRA:         -14.038
REMARK INTER:                 -12.589
REMARK INTRA:                  -1.449
REMARK UNBOUND:                -1.449
REMARK  Name = 
REMARK  11 active torsions:
REMARK  status: ('A' for Active; 'I' for Inactive)
REMARK    1  A    between atoms: N_1  and  C_2
REMARK    2  A    between atoms: C_2  and  C_3
REMARK    3  A    between atoms: C_3  and  N_4
REMARK    4  A    between atoms: C_3  and  C_20
REMARK    5  A    between atoms: C_5  and  C_7
REMARK    6  A    between atoms: N_13  and  C_14
REMARK    7  A    between atoms: C_14  and  C_15
REMARK    8  A    between atoms: C_15  and  O_16
REMARK    9  A    between atoms: C_23  and  C_24
REMARK   10  A    between atoms: C_24  and  N_25
REMARK   11  A    between atoms: C_26  and  C_28
REMARK                            x       y       z     vdW  Elec       q    Type
REMARK                         _______ _______ _______ _____ _____    ______ ____
ROOT
ATOM      1  C   UNL     1      46.297   8.431  12.754  0.00  0.00    +0.000 C 
ENDROOT
BRANCH   1   2
ATOM      2  C   UNL     1      45.612   7.107  12.409  0.00  0.00    +0.000 A 
ATOM      3  C   UNL     1      46.187   5.893  12.808  0.00  0.00    +0.000 A 
ATOM      4  C   UNL     1      45.635   4.671  12.405  0.00  0.00    +0.000 A 
ATOM      5  C   UNL     1      44.495   4.633  11.592  0.00  0.00    +0.000 A 
ATOM      6  C   UNL     1      43.882   5.842  11.243  0.00  0.00    +0.000 A 
ATOM      7  C   UNL     1      44.432   7.064  11.646  0.00  0.00    +0.000 A 
BRANCH   5   8
ATOM      8  C   UNL     1      43.933   3.319  11.110  0.00  0.00    +0.000 C 
BRANCH   8   9
ATOM      9  N   UNL     1      44.829   2.665  10.190  0.00  0.00    +0.000 N 
ATOM     10  C   UNL     1      44.980   3.114   8.902  0.00  0.00    +0.000 C 
ATOM     11  O   UNL     1      44.339   4.061   8.452  0.00  0.00    +0.000 OA
ATOM     12  H   UNL     1      45.436   1.944  10.544  0.00  0.00    +0.000 HD
BRANCH  10  13
ATOM     13  C   UNL     1      45.954   2.395   8.107  0.00  0.00    +0.000 A 
ATOM     14  C   UNL     1      46.873   2.815   7.158  0.00  0.00    +0.000 A 
ATOM     15  C   UNL     1      47.587   1.681   6.698  0.00  0.00    +0.000 A 
ATOM     16  C   UNL     1      47.095   0.590   7.370  0.00  0.00    +0.000 A 
ATOM     17  N   UNL     1      46.111   1.026   8.218  0.00  0.00    +0.000 N 
ATOM     18  H   UNL     1      45.567   0.448   8.847  0.00  0.00    +0.000 HD
ENDBRANCH  10  13
ENDBRANCH   8   9
ENDBRANCH   5   8
ENDBRANCH   1   2
BRANCH   1  19
ATOM     19  N   UNL     1      46.826   8.373  14.108  0.00  0.00    +0.000 N 
ATOM     20  C   UNL     1      48.013   8.953  14.475  0.00  0.00    +0.000 C 
ATOM     21  O   UNL     1      48.735   9.530  13.666  0.00  0.00    +0.000 OA
ATOM     22  H   UNL     1      46.205   8.015  14.824  0.00  0.00    +0.000 HD
BRANCH  20  23
ATOM     23  C   UNL     1      48.408   8.820  15.884  0.00  0.00    +0.000 A 
ATOM     24  C   UNL     1      48.534   9.959  16.670  0.00  0.00    +0.000 A 
ATOM     25  S   UNL     1      49.020   9.638  18.271  0.00  0.00    +0.000 S 
ATOM     26  C   UNL     1      49.038   7.961  17.987  0.00  0.00    +0.000 A 
ATOM     27  N   UNL     1      49.354   7.091  18.980  0.00  0.00    +0.000 NA
ATOM     28  C   UNL     1      49.283   5.845  18.647  0.00  0.00    +0.000 A 
ATOM     29  N   UNL     1      48.937   5.370  17.397  0.00  0.00    +0.000 N 
ATOM     30  C   UNL     1      48.668   6.236  16.344  0.00  0.00    +0.000 A 
ATOM     31  O   UNL     1      48.445   5.835  15.203  0.00  0.00    +0.000 OA
ATOM     32  C   UNL     1      48.697   7.648  16.684  0.00  0.00    +0.000 A 
BRANCH  29  33
ATOM     33  C   UNL     1      48.923   3.932  17.138  0.00  0.00    +0.000 C 
BRANCH  33  34
ATOM     34  C   UNL     1      47.929   3.192  18.035  0.00  0.00    +0.000 C 
BRANCH  34  35
ATOM     35  O   UNL     1      46.620   3.246  17.475  0.00  0.00    +0.000 OA
ATOM     36  H   UNL     1      46.196   4.065  17.789  0.00  0.00    +0.000 HD
ENDBRANCH  34  35
ENDBRANCH  33  34
ENDBRANCH  29  33
ENDBRANCH  20  23
ENDBRANCH   1  19
BRANCH   1  37
ATOM     37  C   UNL     1      45.337   9.646  12.555  0.00  0.00    +0.000 C 
BRANCH  37  38
ATOM     38  N   UNL     1      46.016  10.907  12.222  0.00  0.00    +0.000 NA
ATOM     39  H   UNL     1      45.325  11.577  11.887  0.00  0.00    +0.000 HD
ATOM     40  H   UNL     1      46.662  10.750  11.447  0.00  0.00    +0.000 HD
ENDBRANCH  37  38
ENDBRANCH   1  37
TORSDOF 11
ENDMDL
MODEL 2
REMARK VINA RESULT:    -7.313      4.631      9.423
REMARK INTER + INTRA:         -13.038
REMARK INTER:                 -12.139
REMARK INTRA:                  -0.899
REMARK UNBOUND:                -1.449
REMARK  Name = 
REMARK  11 active torsions:
REMARK  status: ('A' for Active; 'I' for Inactive)
REMARK    1  A    between atoms: N_1  and  C_2
REMARK    2  A    between atoms: C_2  and  C_3
REMARK    3  A    between atoms: C_3  and  N_4
REMARK    4  A    between atoms: C_3  and  C_20
REMARK    5  A    between atoms: C_5  and  C_7
REMARK    6  A    between atoms: N_13  and  C_14
REMARK    7  A    between atoms: C_14  and  C_15
REMARK    8  A    between atoms: C_15  and  O_16
REMARK    9  A    between atoms: C_23  and  C_24
REMARK   10  A    between atoms: C_24  and  N_25
REMARK   11  A    between atoms: C_26  and  C_28
REMARK                            x       y       z     vdW  Elec       q    Type
REMARK                         _______ _______ _______ _____ _____    ______ ____
ROOT
ATOM      1  C   UNL     1      48.070   4.224  17.526  0.00  0.00    +0.000 C 
ENDROOT
BRANCH   1   2
ATOM      2  C   UNL     1      49.516   3.721  17.528  0.00  0.00    +0.000 A 
ATOM      3  C   UNL     1      49.791   2.373  17.259  0.00  0.00    +0.000 A 
ATOM      4  C   UNL     1      51.095   1.872  17.367  0.00  0.00    +0.000 A 
ATOM      5  C   UNL     1      52.154   2.706  17.747  0.00  0.00    +0.000 A 
ATOM      6  C   UNL     1      51.894   4.066  17.956  0.00  0.00    +0.000 A 
ATOM      7  C   UNL     1      50.592   4.567  17.847  0.00  0.00    +0.000 A 
BRANCH   5   8
ATOM      8  C   UNL     1      53.547   2.155  17.919  0.00  0.00    +0.000 C 
BRANCH   8   9
ATOM      9  N   UNL     1      53.534   0.877  18.584  0.00  0.00    +0.000 N 
ATOM     10  C   UNL     1      54.037  -0.247  17.978  0.00  0.00    +0.000 C 
ATOM     11  O   UNL     1      54.484  -0.237  16.833  0.00  0.00    +0.000 OA
ATOM     12  H   UNL     1      53.259   0.843  19.552  0.00  0.00    +0.000 HD
BRANCH  10  13
ATOM     13  C   UNL     1      54.009  -1.449  18.785  0.00  0.00    +0.000 A 
ATOM     14  C   UNL     1      55.017  -2.273  19.262  0.00  0.00    +0.000 A 
ATOM     15  C   UNL     1      54.421  -3.315  20.014  0.00  0.00    +0.000 A 
ATOM     16  C   UNL     1      53.063  -3.112  19.986  0.00  0.00    +0.000 A 
ATOM     17  N   UNL     1      52.821  -1.987  19.244  0.00  0.00    +0.000 N 
ATOM     18  H   UNL     1      51.912  -1.585  19.051  0.00  0.00    +0.000 HD
ENDBRANCH  10  13
ENDBRANCH   8   9
ENDBRANCH   5   8
ENDBRANCH   1   2
BRANCH   1  19
ATOM     19  N   UNL     1      47.845   5.071  16.365  0.00  0.00    +0.000 N 
ATOM     20  C   UNL     1      47.503   4.578  15.132  0.00  0.00    +0.000 C 
ATOM     21  O   UNL     1      47.402   3.374  14.916  0.00  0.00    +0.000 OA
ATOM     22  H   UNL     1      47.799   6.069  16.532  0.00  0.00    +0.000 HD
BRANCH  20  23
ATOM     23  C   UNL     1      47.294   5.562  14.060  0.00  0.00    +0.000 A 
ATOM     24  C   UNL     1      48.231   6.568  13.863  0.00  0.00    +0.000 A 
ATOM     25  S   UNL     1      47.833   7.638  12.598  0.00  0.00    +0.000 S 
ATOM     26  C   UNL     1      46.415   6.770  12.238  0.00  0.00    +0.000 A 
ATOM     27  N   UNL     1      45.606   7.153  11.217  0.00  0.00    +0.000 NA
ATOM     28  C   UNL     1      44.589   6.383  11.018  0.00  0.00    +0.000 A 
ATOM     29  N   UNL     1      44.283   5.257  11.756  0.00  0.00    +0.000 N 
ATOM     30  C   UNL     1      45.057   4.873  12.845  0.00  0.00    +0.000 A 
ATOM     31  O   UNL     1      44.752   3.928  13.568  0.00  0.00    +0.000 OA
ATOM     32  C   UNL     1      46.234   5.690  13.082  0.00  0.00    +0.000 A 
BRANCH  29  33
ATOM     33  C   UNL     1      43.081   4.483  11.448  0.00  0.00    +0.000 C 
BRANCH  33  34
ATOM     34  C   UNL     1      43.413   3.114  10.852  0.00  0.00    +0.000 C 
BRANCH  34  35
ATOM     35  O   UNL     1      42.981   2.075  11.726  0.00  0.00    +0.000 OA
ATOM     36  H   UNL     1      43.710   1.883  12.342  0.00  0.00    +0.000 HD
ENDBRANCH  34  35
ENDBRANCH  33  34
ENDBRANCH  29  33
ENDBRANCH  20  23
ENDBRANCH   1  19
BRANCH   1  37
ATOM     37  C   UNL     1      47.713   4.955  18.859  0.00  0.00    +0.000 C 
BRANCH  37  38
ATOM     38  N   UNL     1      46.363   5.536  18.887  0.00  0.00    +0.000 NA
ATOM     39  H   UNL     1      46.392   6.417  19.400  0.00  0.00    +0.000 HD
ATOM     40  H   UNL     1      45.739   4.920  19.410  0.00  0.00    +0.000 HD
ENDBRANCH  37  38
ENDBRANCH   1  37
TORSDOF 11
ENDMDL
MODEL 3
REMARK VINA RESULT:    -7.118      2.370      4.615
REMARK INTER + INTRA:         -12.728
REMARK INTER:                 -11.077
REMARK INTRA:                  -1.650
REMARK UNBOUND:                -1.449
REMARK  Name = 
REMARK  11 active torsions:
REMARK  status: ('A' for Active; 'I' for Inactive)
REMARK    1  A    between atoms: N_1  and  C_2
REMARK    2  A    between atoms: C_2  and  C_3
REMARK    3  A    between atoms: C_3  and  N_4
REMARK    4  A    between atoms: C_3  and  C_20
REMARK    5  A    between atoms: C_5  and  C_7
REMARK    6  A    between atoms: N_13  and  C_14
REMARK    7  A    between atoms: C_14  and  C_15
REMARK    8  A    between atoms: C_15  and  O_16
REMARK    9  A    between atoms: C_23  and  C_24
REMARK   10  A    between atoms: C_24  and  N_25
REMARK   11  A    between atoms: C_26  and  C_28
REMARK                            x       y       z     vdW  Elec       q    Type
REMARK                         _______ _______ _______ _____ _____    ______ ____
ROOT
ATOM      1  C   UNL     1      46.980   4.945  15.252  0.00  0.00    +0.000 C 
ENDROOT
BRANCH   1   2
ATOM      2  C   UNL     1      46.283   4.757  13.903  0.00  0.00    +0.000 A 
ATOM      3  C   UNL     1      45.713   5.857  13.247  0.00  0.00    +0.000 A 
ATOM      4  C   UNL     1      44.975   5.686  12.068  0.00  0.00    +0.000 A 
ATOM      5  C   UNL     1      44.788   4.412  11.519  0.00  0.00    +0.000 A 
ATOM      6  C   UNL     1      45.407   3.319  12.136  0.00  0.00    +0.000 A 
ATOM      7  C   UNL     1      46.146   3.489  13.313  0.00  0.00    +0.000 A 
BRANCH   5   8
ATOM      8  C   UNL     1      43.946   4.221  10.283  0.00  0.00    +0.000 C 
BRANCH   8   9
ATOM      9  N   UNL     1      44.636   3.442   9.286  0.00  0.00    +0.000 N 
ATOM     10  C   UNL     1      45.582   4.008   8.468  0.00  0.00    +0.000 C 
ATOM     11  O   UNL     1      45.862   5.204   8.510  0.00  0.00    +0.000 OA
ATOM     12  H   UNL     1      44.501   2.444   9.279  0.00  0.00    +0.000 HD
BRANCH  10  13
ATOM     13  C   UNL     1      46.234   3.095   7.552  0.00  0.00    +0.000 A 
ATOM     14  C   UNL     1      46.680   3.247   6.248  0.00  0.00    +0.000 A 
ATOM     15  C   UNL     1      47.255   2.021   5.831  0.00  0.00    +0.000 A 
ATOM     16  C   UNL     1      47.152   1.144   6.882  0.00  0.00    +0.000 A 
ATOM     17  N   UNL     1      46.536   1.796   7.916  0.00  0.00    +0.000 N 
ATOM     18  H   UNL     1      46.326   1.406   8.826  0.00  0.00    +0.000 HD
ENDBRANCH  10  13
ENDBRANCH   8   9
ENDBRANCH   5   8
ENDBRANCH   1   2
BRANCH   1  19
ATOM     19  N   UNL     1      48.208   5.702  15.071  0.00  0.00    +0.000 N 
ATOM     20  C   UNL     1      48.876   6.308  16.104  0.00  0.00    +0.000 C 
ATOM     21  O   UNL     1      48.454   6.284  17.257  0.00  0.00    +0.000 OA
ATOM     22  H   UNL     1      48.650   5.641  14.161  0.00  0.00    +0.000 HD
BRANCH  20  23
ATOM     23  C   UNL     1      50.113   7.025  15.764  0.00  0.00    +0.000 A 
ATOM     24  C   UNL     1      51.276   6.759  16.475  0.00  0.00    +0.000 A 
ATOM     25  S   UNL     1      52.614   7.689  15.975  0.00  0.00    +0.000 S 
ATOM     26  C   UNL     1      51.699   8.451  14.760  0.00  0.00    +0.000 A 
ATOM     27  N   UNL     1      52.266   9.364  13.932  0.00  0.00    +0.000 NA
ATOM     28  C   UNL     1      51.476   9.832  13.023  0.00  0.00    +0.000 A 
ATOM     29  N   UNL     1      50.150   9.486  12.862  0.00  0.00    +0.000 N 
ATOM     30  C   UNL     1      49.523   8.600  13.731  0.00  0.00    +0.000 A 
ATOM     31  O   UNL     1      48.323   8.347  13.660  0.00  0.00    +0.000 OA
ATOM     32  C   UNL     1      50.385   8.019  14.746  0.00  0.00    +0.000 A 
BRANCH  29  33
ATOM     33  C   UNL     1      49.351  10.111  11.810  0.00  0.00    +0.000 C 
BRANCH  33  34
ATOM     34  C   UNL     1      48.753  11.447  12.255  0.00  0.00    +0.000 C 
BRANCH  34  35
ATOM     35  O   UNL     1      47.493  11.241  12.886  0.00  0.00    +0.000 OA
ATOM     36  H   UNL     1      47.128  12.115  13.113  0.00  0.00    +0.000 HD
ENDBRANCH  34  35
ENDBRANCH  33  34
ENDBRANCH  29  33
ENDBRANCH  20  23
ENDBRANCH   1  19
BRANCH   1  37
ATOM     37  C   UNL     1      47.237   3.579  15.963  0.00  0.00    +0.000 C 
BRANCH  37  38
ATOM     38  N   UNL     1      46.743   3.514  17.347  0.00  0.00    +0.000 NA
ATOM     39  H   UNL     1      46.248   4.378  17.563  0.00  0.00    +0.000 HD
ATOM     40  H   UNL     1      47.535   3.468  17.988  0.00  0.00    +0.000 HD
ENDBRANCH  37  38
ENDBRANCH   1  37
TORSDOF 11
ENDMDL
MODEL 4
REMARK VINA RESULT:    -7.077      4.634      8.074
REMARK INTER + INTRA:         -12.664
REMARK INTER:                 -12.024
REMARK INTRA:                  -0.640
REMARK UNBOUND:                -1.449
REMARK  Name = 
REMARK  11 active torsions:
REMARK  status: ('A' for Active; 'I' for Inactive)
REMARK    1  A    between atoms: N_1  and  C_2
REMARK    2  A    between atoms: C_2  and  C_3
REMARK    3  A    between atoms: C_3  and  N_4
REMARK    4  A    between atoms: C_3  and  C_20
REMARK    5  A    between atoms: C_5  and  C_7
REMARK    6  A    between atoms: N_13  and  C_14
REMARK    7  A    between atoms: C_14  and  C_15
REMARK    8  A    between atoms: C_15  and  O_16
REMARK    9  A    between atoms: C_23  and  C_24
REMARK   10  A    between atoms: C_24  and  N_25
REMARK   11  A    between atoms: C_26  and  C_28
REMARK                            x       y       z     vdW  Elec       q    Type
REMARK                         _______ _______ _______ _____ _____    ______ ____
ROOT
ATOM      1  C   UNL     1      46.137   8.186  12.398  0.00  0.00    +0.000 C 
ENDROOT
BRANCH   1   2
ATOM      2  C   UNL     1      47.630   8.392  12.138  0.00  0.00    +0.000 A 
ATOM      3  C   UNL     1      48.134   9.681  11.916  0.00  0.00    +0.000 A 
ATOM      4  C   UNL     1      49.476   9.876  11.565  0.00  0.00    +0.000 A 
ATOM      5  C   UNL     1      50.346   8.788  11.426  0.00  0.00    +0.000 A 
ATOM      6  C   UNL     1      49.863   7.504  11.707  0.00  0.00    +0.000 A 
ATOM      7  C   UNL     1      48.522   7.308  12.059  0.00  0.00    +0.000 A 
BRANCH   5   8
ATOM      8  C   UNL     1      51.776   8.992  10.992  0.00  0.00    +0.000 C 
BRANCH   8   9
ATOM      9  N   UNL     1      52.287   7.843  10.291  0.00  0.00    +0.000 N 
ATOM     10  C   UNL     1      52.771   7.946   9.010  0.00  0.00    +0.000 C 
ATOM     11  O   UNL     1      52.757   9.002   8.381  0.00  0.00    +0.000 OA
ATOM     12  H   UNL     1      52.398   6.981  10.799  0.00  0.00    +0.000 HD
BRANCH  10  13
ATOM     13  C   UNL     1      53.303   6.722   8.450  0.00  0.00    +0.000 A 
ATOM     14  C   UNL     1      54.271   5.836   8.901  0.00  0.00    +0.000 A 
ATOM     15  C   UNL     1      54.392   4.791   7.952  0.00  0.00    +0.000 A 
ATOM     16  C   UNL     1      53.501   5.052   6.941  0.00  0.00    +0.000 A 
ATOM     17  N   UNL     1      52.848   6.217   7.246  0.00  0.00    +0.000 N 
ATOM     18  H   UNL     1      52.128   6.660   6.689  0.00  0.00    +0.000 HD
ENDBRANCH  10  13
ENDBRANCH   8   9
ENDBRANCH   5   8
ENDBRANCH   1   2
BRANCH   1  19
ATOM     19  N   UNL     1      45.765   6.817  12.076  0.00  0.00    +0.000 N 
ATOM     20  C   UNL     1      44.540   6.474  11.563  0.00  0.00    +0.000 C 
ATOM     21  O   UNL     1      43.654   7.303  11.379  0.00  0.00    +0.000 OA
ATOM     22  H   UNL     1      46.506   6.127  12.098  0.00  0.00    +0.000 HD
BRANCH  20  23
ATOM     23  C   UNL     1      44.318   5.050  11.275  0.00  0.00    +0.000 A 
ATOM     24  C   UNL     1      43.497   4.302  12.110  0.00  0.00    +0.000 A 
ATOM     25  S   UNL     1      43.362   2.666  11.654  0.00  0.00    +0.000 S 
ATOM     26  C   UNL     1      44.361   2.905  10.298  0.00  0.00    +0.000 A 
ATOM     27  N   UNL     1      44.634   1.883   9.447  0.00  0.00    +0.000 NA
ATOM     28  C   UNL     1      45.365   2.208   8.432  0.00  0.00    +0.000 A 
ATOM     29  N   UNL     1      45.871   3.468   8.183  0.00  0.00    +0.000 N 
ATOM     30  C   UNL     1      45.659   4.520   9.066  0.00  0.00    +0.000 A 
ATOM     31  O   UNL     1      46.174   5.625   8.908  0.00  0.00    +0.000 OA
ATOM     32  C   UNL     1      44.809   4.209  10.203  0.00  0.00    +0.000 A 
BRANCH  29  33
ATOM     33  C   UNL     1      46.712   3.701   7.011  0.00  0.00    +0.000 C 
BRANCH  33  34
ATOM     34  C   UNL     1      47.389   2.419   6.521  0.00  0.00    +0.000 C 
BRANCH  34  35
ATOM     35  O   UNL     1      48.797   2.610   6.417  0.00  0.00    +0.000 OA
ATOM     36  H   UNL     1      49.226   1.755   6.597  0.00  0.00    +0.000 HD
ENDBRANCH  34  35
ENDBRANCH  33  34
ENDBRANCH  29  33
ENDBRANCH  20  23
ENDBRANCH   1  19
BRANCH   1  37
ATOM     37  C   UNL     1      45.268   9.224  11.621  0.00  0.00    +0.000 C 
BRANCH  37  38
ATOM     38  N   UNL     1      44.388  10.038  12.473  0.00  0.00    +0.000 NA
ATOM     39  H   UNL     1      43.451  10.043  12.072  0.00  0.00    +0.000 HD
ATOM     40  H   UNL     1      44.709  11.006  12.467  0.00  0.00    +0.000 HD
ENDBRANCH  37  38
ENDBRANCH   1  37
TORSDOF 11
ENDMDL
MODEL 5
REMARK VINA RESULT:    -6.861      2.581      4.487
REMARK INTER + INTRA:         -12.321
REMARK INTER:                 -11.301
REMARK INTRA:                  -1.020
REMARK UNBOUND:                -1.449
REMARK  Name = 
REMARK  11 active torsions:
REMARK  status: ('A' for Active; 'I' for Inactive)
REMARK    1  A    between atoms: N_1  and  C_2
REMARK    2  A    between atoms: C_2  and  C_3
REMARK    3  A    between atoms: C_3  and  N_4
REMARK    4  A    between atoms: C_3  and  C_20
REMARK    5  A    between atoms: C_5  and  C_7
REMARK    6  A    between atoms: N_13  and  C_14
REMARK    7  A    between atoms: C_14  and  C_15
REMARK    8  A    between atoms: C_15  and  O_16
REMARK    9  A    between atoms: C_23  and  C_24
REMARK   10  A    between atoms: C_24  and  N_25
REMARK   11  A    between atoms: C_26  and  C_28
REMARK                            x       y       z     vdW  Elec       q    Type
REMARK                         _______ _______ _______ _____ _____    ______ ____
ROOT
ATOM      1  C   UNL     1      46.920   4.789  15.284  0.00  0.00    +0.000 C 
ENDROOT
BRANCH   1   2
ATOM      2  C   UNL     1      46.274   4.649  13.904  0.00  0.00    +0.000 A 
ATOM      3  C   UNL     1      45.778   5.781  13.242  0.00  0.00    +0.000 A 
ATOM      4  C   UNL     1      45.085   5.658  12.032  0.00  0.00    +0.000 A 
ATOM      5  C   UNL     1      44.868   4.401  11.455  0.00  0.00    +0.000 A 
ATOM      6  C   UNL     1      45.415   3.274  12.080  0.00  0.00    +0.000 A 
ATOM      7  C   UNL     1      46.110   3.397  13.289  0.00  0.00    +0.000 A 
BRANCH   5   8
ATOM      8  C   UNL     1      44.072   4.262  10.181  0.00  0.00    +0.000 C 
BRANCH   8   9
ATOM      9  N   UNL     1      44.785   3.497   9.191  0.00  0.00    +0.000 N 
ATOM     10  C   UNL     1      45.740   4.077   8.392  0.00  0.00    +0.000 C 
ATOM     11  O   UNL     1      46.008   5.276   8.447  0.00  0.00    +0.000 OA
ATOM     12  H   UNL     1      44.660   2.498   9.175  0.00  0.00    +0.000 HD
BRANCH  10  13
ATOM     13  C   UNL     1      46.414   3.177   7.481  0.00  0.00    +0.000 A 
ATOM     14  C   UNL     1      46.745   1.833   7.575  0.00  0.00    +0.000 A 
ATOM     15  C   UNL     1      47.397   1.451   6.377  0.00  0.00    +0.000 A 
ATOM     16  C   UNL     1      47.454   2.562   5.572  0.00  0.00    +0.000 A 
ATOM     17  N   UNL     1      46.860   3.599   6.242  0.00  0.00    +0.000 N 
ATOM     18  H   UNL     1      46.748   4.544   5.899  0.00  0.00    +0.000 HD
ENDBRANCH  10  13
ENDBRANCH   8   9
ENDBRANCH   5   8
ENDBRANCH   1   2
BRANCH   1  19
ATOM     19  N   UNL     1      47.779   5.962  15.309  0.00  0.00    +0.000 N 
ATOM     20  C   UNL     1      48.723   6.181  16.280  0.00  0.00    +0.000 C 
ATOM     21  O   UNL     1      48.877   5.412  17.225  0.00  0.00    +0.000 OA
ATOM     22  H   UNL     1      47.767   6.553  14.486  0.00  0.00    +0.000 HD
BRANCH  20  23
ATOM     23  C   UNL     1      49.525   7.406  16.161  0.00  0.00    +0.000 A 
ATOM     24  C   UNL     1      49.888   8.101  17.308  0.00  0.00    +0.000 A 
ATOM     25  S   UNL     1      50.795   9.510  16.998  0.00  0.00    +0.000 S 
ATOM     26  C   UNL     1      50.775   9.220  15.322  0.00  0.00    +0.000 A 
ATOM     27  N   UNL     1      51.408  10.059  14.464  0.00  0.00    +0.000 NA
ATOM     28  C   UNL     1      51.358   9.701  13.223  0.00  0.00    +0.000 A 
ATOM     29  N   UNL     1      50.715   8.578  12.742  0.00  0.00    +0.000 N 
ATOM     30  C   UNL     1      50.007   7.732  13.588  0.00  0.00    +0.000 A 
ATOM     31  O   UNL     1      49.354   6.778  13.168  0.00  0.00    +0.000 OA
ATOM     32  C   UNL     1      50.069   8.076  14.998  0.00  0.00    +0.000 A 
BRANCH  29  33
ATOM     33  C   UNL     1      50.705   8.297  11.308  0.00  0.00    +0.000 C 
BRANCH  33  34
ATOM     34  C   UNL     1      52.102   7.980  10.771  0.00  0.00    +0.000 C 
BRANCH  34  35
ATOM     35  O   UNL     1      52.261   6.574  10.604  0.00  0.00    +0.000 OA
ATOM     36  H   UNL     1      52.204   6.380   9.651  0.00  0.00    +0.000 HD
ENDBRANCH  34  35
ENDBRANCH  33  34
ENDBRANCH  29  33
ENDBRANCH  20  23
ENDBRANCH   1  19
BRANCH   1  37
ATOM     37  C   UNL     1      47.689   3.494  15.694  0.00  0.00    +0.000 C 
BRANCH  37  38
ATOM     38  N   UNL     1      47.275   2.927  16.986  0.00  0.00    +0.000 NA
ATOM     39  H   UNL     1      47.700   3.469  17.738  0.00  0.00    +0.000 HD
ATOM     40  H   UNL     1      47.643   1.979  17.074  0.00  0.00    +0.000 HD
ENDBRANCH  37  38
ENDBRANCH   1  37
TORSDOF 11
ENDMDL
MODEL 6
REMARK VINA RESULT:    -6.675      1.340      1.679
REMARK INTER + INTRA:         -12.025
REMARK INTER:                 -11.097
REMARK INTRA:                  -0.928
REMARK UNBOUND:                -1.449
REMARK  Name = 
REMARK  11 active torsions:
REMARK  status: ('A' for Active; 'I' for Inactive)
REMARK    1  A    between atoms: N_1  and  C_2
REMARK    2  A    between atoms: C_2  and  C_3
REMARK    3  A    between atoms: C_3  and  N_4
REMARK    4  A    between atoms: C_3  and  C_20
REMARK    5  A    between atoms: C_5  and  C_7
REMARK    6  A    between atoms: N_13  and  C_14
REMARK    7  A    between atoms: C_14  and  C_15
REMARK    8  A    between atoms: C_15  and  O_16
REMARK    9  A    between atoms: C_23  and  C_24
REMARK   10  A    between atoms: C_24  and  N_25
REMARK   11  A    between atoms: C_26  and  C_28
REMARK                            x       y       z     vdW  Elec       q    Type
REMARK                         _______ _______ _______ _____ _____    ______ ____
ROOT
ATOM      1  C   UNL     1      47.873   9.113  13.369  0.00  0.00    +0.000 C 
ENDROOT
BRANCH   1   2
ATOM      2  C   UNL     1      47.002   8.111  12.607  0.00  0.00    +0.000 A 
ATOM      3  C   UNL     1      45.613   8.099  12.797  0.00  0.00    +0.000 A 
ATOM      4  C   UNL     1      44.815   7.118  12.196  0.00  0.00    +0.000 A 
ATOM      5  C   UNL     1      45.386   6.124  11.391  0.00  0.00    +0.000 A 
ATOM      6  C   UNL     1      46.764   6.168  11.149  0.00  0.00    +0.000 A 
ATOM      7  C   UNL     1      47.562   7.149  11.748  0.00  0.00    +0.000 A 
BRANCH   5   8
ATOM      8  C   UNL     1      44.535   5.034  10.790  0.00  0.00    +0.000 C 
BRANCH   8   9
ATOM      9  N   UNL     1      45.326   4.104  10.025  0.00  0.00    +0.000 N 
ATOM     10  C   UNL     1      44.991   3.777   8.734  0.00  0.00    +0.000 C 
ATOM     11  O   UNL     1      43.987   4.219   8.179  0.00  0.00    +0.000 OA
ATOM     12  H   UNL     1      46.201   3.789  10.410  0.00  0.00    +0.000 HD
BRANCH  10  13
ATOM     13  C   UNL     1      45.906   2.874   8.068  0.00  0.00    +0.000 A 
ATOM     14  C   UNL     1      46.855   3.076   7.077  0.00  0.00    +0.000 A 
ATOM     15  C   UNL     1      47.480   1.835   6.802  0.00  0.00    +0.000 A 
ATOM     16  C   UNL     1      46.906   0.898   7.624  0.00  0.00    +0.000 A 
ATOM     17  N   UNL     1      45.958   1.530   8.385  0.00  0.00    +0.000 N 
ATOM     18  H   UNL     1      45.372   1.097   9.089  0.00  0.00    +0.000 HD
ENDBRANCH  10  13
ENDBRANCH   8   9
ENDBRANCH   5   8
ENDBRANCH   1   2
BRANCH   1  19
ATOM     19  N   UNL     1      47.669   8.953  14.800  0.00  0.00    +0.000 N 
ATOM     20  C   UNL     1      48.583   9.361  15.737  0.00  0.00    +0.000 C 
ATOM     21  O   UNL     1      49.662   9.857  15.425  0.00  0.00    +0.000 OA
ATOM     22  H   UNL     1      46.745   8.663  15.099  0.00  0.00    +0.000 HD
BRANCH  20  23
ATOM     23  C   UNL     1      48.228   9.144  17.147  0.00  0.00    +0.000 A 
ATOM     24  C   UNL     1      47.880  10.231  17.941  0.00  0.00    +0.000 A 
ATOM     25  S   UNL     1      47.520   9.815  19.553  0.00  0.00    +0.000 S 
ATOM     26  C   UNL     1      47.771   8.162  19.240  0.00  0.00    +0.000 A 
ATOM     27  N   UNL     1      47.598   7.236  20.217  0.00  0.00    +0.000 NA
ATOM     28  C   UNL     1      47.774   6.013  19.838  0.00  0.00    +0.000 A 
ATOM     29  N   UNL     1      48.125   5.615  18.563  0.00  0.00    +0.000 N 
ATOM     30  C   UNL     1      48.369   6.543  17.557  0.00  0.00    +0.000 A 
ATOM     31  O   UNL     1      48.769   6.214  16.442  0.00  0.00    +0.000 OA
ATOM     32  C   UNL     1      48.145   7.929  17.930  0.00  0.00    +0.000 A 
BRANCH  29  33
ATOM     33  C   UNL     1      48.324   4.198  18.267  0.00  0.00    +0.000 C 
BRANCH  33  34
ATOM     34  C   UNL     1      47.341   3.684  17.213  0.00  0.00    +0.000 C 
BRANCH  34  35
ATOM     35  O   UNL     1      46.425   2.763  17.797  0.00  0.00    +0.000 OA
ATOM     36  H   UNL     1      46.897   2.277  18.496  0.00  0.00    +0.000 HD
ENDBRANCH  34  35
ENDBRANCH  33  34
ENDBRANCH  29  33
ENDBRANCH  20  23
ENDBRANCH   1  19
BRANCH   1  37
ATOM     37  C   UNL     1      47.606  10.579  12.902  0.00  0.00    +0.000 C 
BRANCH  37  38
ATOM     38  N   UNL     1      48.195  10.916  11.598  0.00  0.00    +0.000 NA
ATOM     39  H   UNL     1      49.210  10.920  11.683  0.00  0.00    +0.000 HD
ATOM     40  H   UNL     1      47.925  11.866  11.339  0.00  0.00    +0.000 HD
ENDBRANCH  37  38
ENDBRANCH   1  37
TORSDOF 11
ENDMDL
MODEL 7
REMARK VINA RESULT:    -6.572      2.540      3.873
REMARK INTER + INTRA:         -11.863
REMARK INTER:                 -10.166
REMARK INTRA:                  -1.697
REMARK UNBOUND:                -1.449
REMARK  Name = 
REMARK  11 active torsions:
REMARK  status: ('A' for Active; 'I' for Inactive)
REMARK    1  A    between atoms: N_1  and  C_2
REMARK    2  A    between atoms: C_2  and  C_3
REMARK    3  A    between atoms: C_3  and  N_4
REMARK    4  A    between atoms: C_3  and  C_20
REMARK    5  A    between atoms: C_5  and  C_7
REMARK    6  A    between atoms: N_13  and  C_14
REMARK    7  A    between atoms: C_14  and  C_15
REMARK    8  A    between atoms: C_15  and  O_16
REMARK    9  A    between atoms: C_23  and  C_24
REMARK   10  A    between atoms: C_24  and  N_25
REMARK   11  A    between atoms: C_26  and  C_28
REMARK                            x       y       z     vdW  Elec       q    Type
REMARK                         _______ _______ _______ _____ _____    ______ ____
ROOT
ATOM      1  C   UNL     1      47.117   4.385  15.599  0.00  0.00    +0.000 C 
ENDROOT
BRANCH   1   2
ATOM      2  C   UNL     1      46.590   4.872  14.247  0.00  0.00    +0.000 A 
ATOM      3  C   UNL     1      45.394   4.354  13.731  0.00  0.00    +0.000 A 
ATOM      4  C   UNL     1      44.955   4.703  12.448  0.00  0.00    +0.000 A 
ATOM      5  C   UNL     1      45.703   5.577  11.649  0.00  0.00    +0.000 A 
ATOM      6  C   UNL     1      46.865   6.145  12.183  0.00  0.00    +0.000 A 
ATOM      7  C   UNL     1      47.303   5.797  13.466  0.00  0.00    +0.000 A 
BRANCH   5   8
ATOM      8  C   UNL     1      45.261   5.908  10.245  0.00  0.00    +0.000 C 
BRANCH   8   9
ATOM      9  N   UNL     1      45.900   5.059   9.273  0.00  0.00    +0.000 N 
ATOM     10  C   UNL     1      45.289   3.921   8.809  0.00  0.00    +0.000 C 
ATOM     11  O   UNL     1      44.193   3.544   9.220  0.00  0.00    +0.000 OA
ATOM     12  H   UNL     1      46.755   5.377   8.847  0.00  0.00    +0.000 HD
BRANCH  10  13
ATOM     13  C   UNL     1      46.023   3.195   7.794  0.00  0.00    +0.000 A 
ATOM     14  C   UNL     1      46.473   3.557   6.533  0.00  0.00    +0.000 A 
ATOM     15  C   UNL     1      47.151   2.448   5.969  0.00  0.00    +0.000 A 
ATOM     16  C   UNL     1      47.105   1.431   6.889  0.00  0.00    +0.000 A 
ATOM     17  N   UNL     1      46.424   1.886   7.987  0.00  0.00    +0.000 N 
ATOM     18  H   UNL     1      46.235   1.360   8.831  0.00  0.00    +0.000 HD
ENDBRANCH  10  13
ENDBRANCH   8   9
ENDBRANCH   5   8
ENDBRANCH   1   2
BRANCH   1  19
ATOM     19  N   UNL     1      47.966   5.407  16.193  0.00  0.00    +0.000 N 
ATOM     20  C   UNL     1      47.952   5.708  17.530  0.00  0.00    +0.000 C 
ATOM     21  O   UNL     1      47.185   5.159  18.316  0.00  0.00    +0.000 OA
ATOM     22  H   UNL     1      48.694   5.793  15.603  0.00  0.00    +0.000 HD
BRANCH  20  23
ATOM     23  C   UNL     1      48.879   6.756  17.983  0.00  0.00    +0.000 A 
ATOM     24  C   UNL     1      48.374   7.914  18.561  0.00  0.00    +0.000 A 
ATOM     25  S   UNL     1      49.574   9.037  19.009  0.00  0.00    +0.000 S 
ATOM     26  C   UNL     1      50.817   7.998  18.488  0.00  0.00    +0.000 A 
ATOM     27  N   UNL     1      52.120   8.355  18.616  0.00  0.00    +0.000 NA
ATOM     28  C   UNL     1      52.965   7.459  18.226  0.00  0.00    +0.000 A 
ATOM     29  N   UNL     1      52.636   6.226  17.700  0.00  0.00    +0.000 N 
ATOM     30  C   UNL     1      51.311   5.856  17.500  0.00  0.00    +0.000 A 
ATOM     31  O   UNL     1      50.998   4.801  16.951  0.00  0.00    +0.000 OA
ATOM     32  C   UNL     1      50.326   6.819  17.960  0.00  0.00    +0.000 A 
BRANCH  29  33
ATOM     33  C   UNL     1      53.688   5.309  17.267  0.00  0.00    +0.000 C 
BRANCH  33  34
ATOM     34  C   UNL     1      53.970   4.221  18.305  0.00  0.00    +0.000 C 
BRANCH  34  35
ATOM     35  O   UNL     1      53.273   3.024  17.970  0.00  0.00    +0.000 OA
ATOM     36  H   UNL     1      53.589   2.732  17.096  0.00  0.00    +0.000 HD
ENDBRANCH  34  35
ENDBRANCH  33  34
ENDBRANCH  29  33
ENDBRANCH  20  23
ENDBRANCH   1  19
BRANCH   1  37
ATOM     37  C   UNL     1      47.856   3.016  15.470  0.00  0.00    +0.000 C 
BRANCH  37  38
ATOM     38  N   UNL     1      48.768   2.712  16.583  0.00  0.00    +0.000 NA
ATOM     39  H   UNL     1      48.428   1.886  17.074  0.00  0.00    +0.000 HD
ATOM     40  H   UNL     1      48.745   3.477  17.259  0.00  0.00    +0.000 HD
ENDBRANCH  37  38
ENDBRANCH   1  37
TORSDOF 11
ENDMDL
MODEL 8
REMARK VINA RESULT:    -6.498      2.980      8.866
REMARK INTER + INTRA:         -11.746
REMARK INTER:                 -10.809
REMARK INTRA:                  -0.937
REMARK UNBOUND:                -1.449
REMARK  Name = 
REMARK  11 active torsions:
REMARK  status: ('A' for Active; 'I' for Inactive)
REMARK    1  A    between atoms: N_1  and  C_2
REMARK    2  A    between atoms: C_2  and  C_3
REMARK    3  A    between atoms: C_3  and  N_4
REMARK    4  A    between atoms: C_3  and  C_20
REMARK    5  A    between atoms: C_5  and  C_7
REMARK    6  A    between atoms: N_13  and  C_14
REMARK    7  A    between atoms: C_14  and  C_15
REMARK    8  A    between atoms: C_15  and  O_16
REMARK    9  A    between atoms: C_23  and  C_24
REMARK   10  A    between atoms: C_24  and  N_25
REMARK   11  A    between atoms: C_26  and  C_28
REMARK                            x       y       z     vdW  Elec       q    Type
REMARK                         _______ _______ _______ _____ _____    ______ ____
ROOT
ATOM      1  C   UNL     1      47.113   7.875  12.733  0.00  0.00    +0.000 C 
ENDROOT
BRANCH   1   2
ATOM      2  C   UNL     1      47.892   7.691  14.037  0.00  0.00    +0.000 A 
ATOM      3  C   UNL     1      48.388   6.428  14.388  0.00  0.00    +0.000 A 
ATOM      4  C   UNL     1      49.003   6.217  15.628  0.00  0.00    +0.000 A 
ATOM      5  C   UNL     1      49.136   7.264  16.549  0.00  0.00    +0.000 A 
ATOM      6  C   UNL     1      48.697   8.541  16.179  0.00  0.00    +0.000 A 
ATOM      7  C   UNL     1      48.084   8.752  14.938  0.00  0.00    +0.000 A 
BRANCH   5   8
ATOM      8  C   UNL     1      49.746   7.025  17.907  0.00  0.00    +0.000 C 
BRANCH   8   9
ATOM      9  N   UNL     1      50.662   5.913  17.889  0.00  0.00    +0.000 N 
ATOM     10  C   UNL     1      50.280   4.667  18.320  0.00  0.00    +0.000 C 
ATOM     11  O   UNL     1      49.162   4.441  18.780  0.00  0.00    +0.000 OA
ATOM     12  H   UNL     1      51.555   6.035  17.439  0.00  0.00    +0.000 HD
BRANCH  10  13
ATOM     13  C   UNL     1      51.285   3.634  18.193  0.00  0.00    +0.000 A 
ATOM     14  C   UNL     1      52.649   3.626  18.448  0.00  0.00    +0.000 A 
ATOM     15  C   UNL     1      53.147   2.333  18.156  0.00  0.00    +0.000 A 
ATOM     16  C   UNL     1      52.086   1.574  17.728  0.00  0.00    +0.000 A 
ATOM     17  N   UNL     1      50.967   2.363  17.752  0.00  0.00    +0.000 N 
ATOM     18  H   UNL     1      50.031   2.077  17.495  0.00  0.00    +0.000 HD
ENDBRANCH  10  13
ENDBRANCH   8   9
ENDBRANCH   5   8
ENDBRANCH   1   2
BRANCH   1  19
ATOM     19  N   UNL     1      46.453   6.630  12.374  0.00  0.00    +0.000 N 
ATOM     20  C   UNL     1      45.260   6.580  11.700  0.00  0.00    +0.000 C 
ATOM     21  O   UNL     1      44.644   7.596  11.388  0.00  0.00    +0.000 OA
ATOM     22  H   UNL     1      46.986   5.778  12.504  0.00  0.00    +0.000 HD
BRANCH  20  23
ATOM     23  C   UNL     1      44.725   5.246  11.396  0.00  0.00    +0.000 A 
ATOM     24  C   UNL     1      43.856   4.636  12.293  0.00  0.00    +0.000 A 
ATOM     25  S   UNL     1      43.346   3.085  11.806  0.00  0.00    +0.000 S 
ATOM     26  C   UNL     1      44.231   3.188  10.357  0.00  0.00    +0.000 A 
ATOM     27  N   UNL     1      44.204   2.177   9.453  0.00  0.00    +0.000 NA
ATOM     28  C   UNL     1      44.881   2.400   8.375  0.00  0.00    +0.000 A 
ATOM     29  N   UNL     1      45.605   3.545   8.109  0.00  0.00    +0.000 N 
ATOM     30  C   UNL     1      45.701   4.572   9.040  0.00  0.00    +0.000 A 
ATOM     31  O   UNL     1      46.412   5.559   8.860  0.00  0.00    +0.000 OA
ATOM     32  C   UNL     1      44.924   4.380  10.252  0.00  0.00    +0.000 A 
BRANCH  29  33
ATOM     33  C   UNL     1      46.355   3.664   6.860  0.00  0.00    +0.000 C 
BRANCH  33  34
ATOM     34  C   UNL     1      47.522   2.677   6.790  0.00  0.00    +0.000 C 
BRANCH  34  35
ATOM     35  O   UNL     1      48.199   2.797   5.543  0.00  0.00    +0.000 OA
ATOM     36  H   UNL     1      47.618   3.289   4.936  0.00  0.00    +0.000 HD
ENDBRANCH  34  35
ENDBRANCH  33  34
ENDBRANCH  29  33
ENDBRANCH  20  23
ENDBRANCH   1  19
BRANCH   1  37
ATOM     37  C   UNL     1      48.031   8.400  11.584  0.00  0.00    +0.000 C 
BRANCH  37  38
ATOM     38  N   UNL     1      48.198   9.861  11.561  0.00  0.00    +0.000 NA
ATOM     39  H   UNL     1      48.816  10.135  12.323  0.00  0.00    +0.000 HD
ATOM     40  H   UNL     1      47.299  10.308  11.745  0.00  0.00    +0.000 HD
ENDBRANCH  37  38
ENDBRANCH   1  37
TORSDOF 11
ENDMDL
MODEL 9
REMARK VINA RESULT:    -6.471      1.871      2.680
REMARK INTER + INTRA:         -11.702
REMARK INTER:                 -10.224
REMARK INTRA:                  -1.478
REMARK UNBOUND:                -1.449
REMARK  Name = 
REMARK  11 active torsions:
REMARK  status: ('A' for Active; 'I' for Inactive)
REMARK    1  A    between atoms: N_1  and  C_2
REMARK    2  A    between atoms: C_2  and  C_3
REMARK    3  A    between atoms: C_3  and  N_4
REMARK    4  A    between atoms: C_3  and  C_20
REMARK    5  A    between atoms: C_5  and  C_7
REMARK    6  A    between atoms: N_13  and  C_14
REMARK    7  A    between atoms: C_14  and  C_15
REMARK    8  A    between atoms: C_15  and  O_16
REMARK    9  A    between atoms: C_23  and  C_24
REMARK   10  A    between atoms: C_24  and  N_25
REMARK   11  A    between atoms: C_26  and  C_28
REMARK                            x       y       z     vdW  Elec       q    Type
REMARK                         _______ _______ _______ _____ _____    ______ ____
ROOT
ATOM      1  C   UNL     1      49.005   9.229  13.918  0.00  0.00    +0.000 C 
ENDROOT
BRANCH   1   2
ATOM      2  C   UNL     1      47.842   8.613  13.137  0.00  0.00    +0.000 A 
ATOM      3  C   UNL     1      46.548   9.135  13.274  0.00  0.00    +0.000 A 
ATOM      4  C   UNL     1      45.455   8.515  12.655  0.00  0.00    +0.000 A 
ATOM      5  C   UNL     1      45.629   7.358  11.885  0.00  0.00    +0.000 A 
ATOM      6  C   UNL     1      46.927   6.869  11.695  0.00  0.00    +0.000 A 
ATOM      7  C   UNL     1      48.020   7.489  12.312  0.00  0.00    +0.000 A 
BRANCH   5   8
ATOM      8  C   UNL     1      44.446   6.657  11.266  0.00  0.00    +0.000 C 
BRANCH   8   9
ATOM      9  N   UNL     1      44.858   5.689  10.282  0.00  0.00    +0.000 N 
ATOM     10  C   UNL     1      44.867   4.345  10.564  0.00  0.00    +0.000 C 
ATOM     11  O   UNL     1      44.567   3.899  11.669  0.00  0.00    +0.000 OA
ATOM     12  H   UNL     1      45.025   6.004   9.341  0.00  0.00    +0.000 HD
BRANCH  10  13
ATOM     13  C   UNL     1      45.250   3.486   9.463  0.00  0.00    +0.000 A 
ATOM     14  C   UNL     1      45.663   3.761   8.168  0.00  0.00    +0.000 A 
ATOM     15  C   UNL     1      45.922   2.532   7.514  0.00  0.00    +0.000 A 
ATOM     16  C   UNL     1      45.664   1.529   8.415  0.00  0.00    +0.000 A 
ATOM     17  N   UNL     1      45.260   2.109   9.588  0.00  0.00    +0.000 N 
ATOM     18  H   UNL     1      45.005   1.622  10.437  0.00  0.00    +0.000 HD
ENDBRANCH  10  13
ENDBRANCH   8   9
ENDBRANCH   5   8
ENDBRANCH   1   2
BRANCH   1  19
ATOM     19  N   UNL     1      49.076   8.635  15.244  0.00  0.00    +0.000 N 
ATOM     20  C   UNL     1      50.259   8.338  15.870  0.00  0.00    +0.000 C 
ATOM     21  O   UNL     1      51.347   8.518  15.329  0.00  0.00    +0.000 OA
ATOM     22  H   UNL     1      48.210   8.585  15.768  0.00  0.00    +0.000 HD
BRANCH  20  23
ATOM     23  C   UNL     1      50.169   7.753  17.215  0.00  0.00    +0.000 A 
ATOM     24  C   UNL     1      50.680   8.452  18.302  0.00  0.00    +0.000 A 
ATOM     25  S   UNL     1      50.518   7.630  19.785  0.00  0.00    +0.000 S 
ATOM     26  C   UNL     1      49.719   6.327  19.038  0.00  0.00    +0.000 A 
ATOM     27  N   UNL     1      49.277   5.272  19.768  0.00  0.00    +0.000 NA
ATOM     28  C   UNL     1      48.645   4.373  19.088  0.00  0.00    +0.000 A 
ATOM     29  N   UNL     1      48.417   4.415  17.727  0.00  0.00    +0.000 N 
ATOM     30  C   UNL     1      48.908   5.452  16.943  0.00  0.00    +0.000 A 
ATOM     31  O   UNL     1      48.793   5.463  15.719  0.00  0.00    +0.000 OA
ATOM     32  C   UNL     1      49.593   6.505  17.672  0.00  0.00    +0.000 A 
BRANCH  29  33
ATOM     33  C   UNL     1      47.711   3.318  17.068  0.00  0.00    +0.000 C 
BRANCH  33  34
ATOM     34  C   UNL     1      48.566   2.052  16.979  0.00  0.00    +0.000 C 
BRANCH  34  35
ATOM     35  O   UNL     1      49.222   1.984  15.717  0.00  0.00    +0.000 OA
ATOM     36  H   UNL     1      50.175   1.870  15.883  0.00  0.00    +0.000 HD
ENDBRANCH  34  35
ENDBRANCH  33  34
ENDBRANCH  29  33
ENDBRANCH  20  23
ENDBRANCH   1  19
BRANCH   1  37
ATOM     37  C   UNL     1      48.896  10.785  13.982  0.00  0.00    +0.000 C 
BRANCH  37  38
ATOM     38  N   UNL     1      48.666  11.322  15.332  0.00  0.00    +0.000 NA
ATOM     39  H   UNL     1      48.903  12.313  15.339  0.00  0.00    +0.000 HD
ATOM     40  H   UNL     1      49.302  10.870  15.989  0.00  0.00    +0.000 HD
ENDBRANCH  37  38
ENDBRANCH   1  37
TORSDOF 11
ENDMDL
