MODEL 1
REMARK VINA RESULT:    -9.501      0.000      0.000
REMARK INTER + INTRA:         -14.845
REMARK INTER:                 -13.945
REMARK INTRA:                  -0.900
REMARK UNBOUND:                -0.900
REMARK  Name = 
REMARK  9 active torsions:
REMARK  status: ('A' for Active; 'I' for Inactive)
REMARK    1  A    between atoms: N_1  and  C_2
REMARK    2  A    between atoms: C_2  and  C_3
REMARK    3  A    between atoms: C_2  and  C_19
REMARK    4  A    between atoms: C_3  and  C_4
REMARK    5  A    between atoms: C_7  and  C_8
REMARK    6  A    between atoms: C_8  and  N_9
REMARK    7  A    between atoms: N_9  and  C_10
REMARK    8  A    between atoms: C_13  and  O_14
REMARK    9  A    between atoms: C_19  and  C_21
REMARK                            x       y       z     vdW  Elec       q    Type
REMARK                         _______ _______ _______ _____ _____    ______ ____
ROOT
ATOM      1  C   UNL     1      47.202   5.261  14.383  0.00  0.00    +0.000 C 
ENDROOT
BRANCH   1   2
ATOM      2  C   UNL     1      46.398   5.119  13.108  0.00  0.00    +0.000 A 
ATOM      3  C   UNL     1      45.601   3.988  12.909  0.00  0.00    +0.000 A 
ATOM      4  C   UNL     1      44.959   3.781  11.689  0.00  0.00    +0.000 A 
ATOM      5  C   UNL     1      45.046   4.731  10.662  0.00  0.00    +0.000 A 
ATOM      6  C   UNL     1      45.793   5.894  10.881  0.00  0.00    +0.000 A 
ATOM      7  C   UNL     1      46.473   6.081  12.091  0.00  0.00    +0.000 A 
BRANCH   5   8
ATOM      8  C   UNL     1      44.372   4.469   9.334  0.00  0.00    +0.000 C 
BRANCH   8   9
ATOM      9  N   UNL     1      44.268   3.032   9.085  0.00  0.00    +0.000 NA
ATOM     10  H   UNL     1      43.286   2.780   8.991  0.00  0.00    +0.000 HD
BRANCH   9  11
ATOM     11  C   UNL     1      45.043   2.554   7.938  0.00  0.00    +0.000 C 
ATOM     12  C   UNL     1      45.856   3.698   7.310  0.00  0.00    +0.000 C 
ATOM     13  C   UNL     1      46.818   3.210   6.236  0.00  0.00    +0.000 C 
ATOM     14  C   UNL     1      47.737   2.118   6.772  0.00  0.00    +0.000 C 
ATOM     15  C   UNL     1      46.933   0.956   7.350  0.00  0.00    +0.000 C 
ATOM     16  C   UNL     1      45.976   1.435   8.437  0.00  0.00    +0.000 C 
BRANCH  14  17
ATOM     17  O   UNL     1      48.581   1.649   5.728  0.00  0.00    +0.000 OA
ATOM     18  H   UNL     1      48.109   1.761   4.885  0.00  0.00    +0.000 HD
ENDBRANCH  14  17
ENDBRANCH   9  11
ENDBRANCH   8   9
ENDBRANCH   5   8
ENDBRANCH   1   2
BRANCH   1  19
ATOM     19  C   UNL     1      47.040   4.069  15.348  0.00  0.00    +0.000 C 
BRANCH  19  20
ATOM     20  N   UNL     1      47.790   2.913  14.792  0.00  0.00    +0.000 NA
ATOM     21  H   UNL     1      47.146   2.130  14.666  0.00  0.00    +0.000 HD
ATOM     22  H   UNL     1      48.485   2.606  15.477  0.00  0.00    +0.000 HD
ENDBRANCH  19  20
BRANCH  19  23
ATOM     23  C   UNL     1      47.522   4.381  16.789  0.00  0.00    +0.000 C 
ATOM     24  O   UNL     1      46.752   4.245  17.735  0.00  0.00    +0.000 OA
BRANCH  23  25
ATOM     25  C   UNL     1      48.937   4.768  17.029  0.00  0.00    +0.000 A 
ATOM     26  C   UNL     1      49.294   6.110  17.047  0.00  0.00    +0.000 A 
ATOM     27  S   UNL     1      50.916   6.382  17.506  0.00  0.00    +0.000 S 
ATOM     28  C   UNL     1      51.215   4.713  17.641  0.00  0.00    +0.000 A 
ATOM     29  N   UNL     1      52.423   4.243  18.057  0.00  0.00    +0.000 NA
ATOM     30  C   UNL     1      52.476   2.960  18.187  0.00  0.00    +0.000 A 
ATOM     31  N   UNL     1      51.450   2.100  17.894  0.00  0.00    +0.000 N 
ATOM     32  C   UNL     1      50.324   2.524  17.223  0.00  0.00    +0.000 A 
ATOM     33  O   UNL     1      49.626   1.755  16.580  0.00  0.00    +0.000 OA
ATOM     34  C   UNL     1      50.112   3.960  17.279  0.00  0.00    +0.000 A 
ATOM     35  H   UNL     1      51.611   1.106  17.910  0.00  0.00    +0.000 HD
ENDBRANCH  23  25
ENDBRANCH  19  23
ENDBRANCH   1  19
TORSDOF 9
ENDMDL
MODEL 2
REMARK VINA RESULT:    -8.674      1.850      2.551
REMARK INTER + INTRA:         -13.631
REMARK INTER:                 -12.600
REMARK INTRA:                  -1.031
REMARK UNBOUND:                -0.900
REMARK  Name = 
REMARK  9 active torsions:
REMARK  status: ('A' for Active; 'I' for Inactive)
REMARK    1  A    between atoms: N_1  and  C_2
REMARK    2  A    between atoms: C_2  and  C_3
REMARK    3  A    between atoms: C_2  and  C_19
REMARK    4  A    between atoms: C_3  and  C_4
REMARK    5  A    between atoms: C_7  and  C_8
REMARK    6  A    between atoms: C_8  and  N_9
REMARK    7  A    between atoms: N_9  and  C_10
REMARK    8  A    between atoms: C_13  and  O_14
REMARK    9  A    between atoms: C_19  and  C_21
REMARK                            x       y       z     vdW  Elec       q    Type
REMARK                         _______ _______ _______ _____ _____    ______ ____
ROOT
ATOM      1  C   UNL     1      47.012   7.046  13.141  0.00  0.00    +0.000 C 
ENDROOT
BRANCH   1   2
ATOM      2  C   UNL     1      46.163   5.963  12.510  0.00  0.00    +0.000 A 
ATOM      3  C   UNL     1      46.103   4.695  13.095  0.00  0.00    +0.000 A 
ATOM      4  C   UNL     1      45.433   3.653  12.456  0.00  0.00    +0.000 A 
ATOM      5  C   UNL     1      44.753   3.869  11.250  0.00  0.00    +0.000 A 
ATOM      6  C   UNL     1      44.760   5.153  10.693  0.00  0.00    +0.000 A 
ATOM      7  C   UNL     1      45.469   6.190  11.313  0.00  0.00    +0.000 A 
BRANCH   5   8
ATOM      8  C   UNL     1      44.063   2.716  10.556  0.00  0.00    +0.000 C 
BRANCH   8   9
ATOM      9  N   UNL     1      44.214   2.825   9.106  0.00  0.00    +0.000 NA
ATOM     10  H   UNL     1      43.853   3.728   8.801  0.00  0.00    +0.000 HD
BRANCH   9  11
ATOM     11  C   UNL     1      45.577   2.615   8.616  0.00  0.00    +0.000 C 
ATOM     12  C   UNL     1      45.794   1.148   8.210  0.00  0.00    +0.000 C 
ATOM     13  C   UNL     1      47.132   0.924   7.521  0.00  0.00    +0.000 C 
ATOM     14  C   UNL     1      47.298   1.851   6.322  0.00  0.00    +0.000 C 
ATOM     15  C   UNL     1      47.136   3.313   6.731  0.00  0.00    +0.000 C 
ATOM     16  C   UNL     1      45.791   3.549   7.411  0.00  0.00    +0.000 C 
BRANCH  14  17
ATOM     17  O   UNL     1      48.580   1.653   5.740  0.00  0.00    +0.000 OA
ATOM     18  H   UNL     1      48.825   2.464   5.263  0.00  0.00    +0.000 HD
ENDBRANCH  14  17
ENDBRANCH   9  11
ENDBRANCH   8   9
ENDBRANCH   5   8
ENDBRANCH   1   2
BRANCH   1  19
ATOM     19  C   UNL     1      48.302   6.513  13.796  0.00  0.00    +0.000 C 
BRANCH  19  20
ATOM     20  N   UNL     1      49.402   6.607  12.802  0.00  0.00    +0.000 NA
ATOM     21  H   UNL     1      49.249   7.429  12.214  0.00  0.00    +0.000 HD
ATOM     22  H   UNL     1      49.358   5.796  12.178  0.00  0.00    +0.000 HD
ENDBRANCH  19  20
BRANCH  19  23
ATOM     23  C   UNL     1      48.685   7.270  15.095  0.00  0.00    +0.000 C 
ATOM     24  O   UNL     1      48.288   8.418  15.274  0.00  0.00    +0.000 OA
BRANCH  23  25
ATOM     25  C   UNL     1      49.466   6.577  16.153  0.00  0.00    +0.000 A 
ATOM     26  C   UNL     1      50.809   6.880  16.334  0.00  0.00    +0.000 A 
ATOM     27  S   UNL     1      51.505   6.124  17.696  0.00  0.00    +0.000 S 
ATOM     28  C   UNL     1      50.052   5.319  18.061  0.00  0.00    +0.000 A 
ATOM     29  N   UNL     1      49.940   4.527  19.163  0.00  0.00    +0.000 NA
ATOM     30  C   UNL     1      48.757   4.048  19.352  0.00  0.00    +0.000 A 
ATOM     31  N   UNL     1      47.688   4.246  18.517  0.00  0.00    +0.000 N 
ATOM     32  C   UNL     1      47.844   4.811  17.272  0.00  0.00    +0.000 A 
ATOM     33  O   UNL     1      47.047   4.611  16.367  0.00  0.00    +0.000 OA
ATOM     34  C   UNL     1      49.071   5.574  17.120  0.00  0.00    +0.000 A 
ATOM     35  H   UNL     1      46.832   3.741  18.673  0.00  0.00    +0.000 HD
ENDBRANCH  23  25
ENDBRANCH  19  23
ENDBRANCH   1  19
TORSDOF 9
ENDMDL
MODEL 3
REMARK VINA RESULT:    -8.606      1.401      2.255
REMARK INTER + INTRA:         -13.531
REMARK INTER:                 -12.892
REMARK INTRA:                  -0.639
REMARK UNBOUND:                -0.900
REMARK  Name = 
REMARK  9 active torsions:
REMARK  status: ('A' for Active; 'I' for Inactive)
REMARK    1  A    between atoms: N_1  and  C_2
REMARK    2  A    between atoms: C_2  and  C_3
REMARK    3  A    between atoms: C_2  and  C_19
REMARK    4  A    between atoms: C_3  and  C_4
REMARK    5  A    between atoms: C_7  and  C_8
REMARK    6  A    between atoms: C_8  and  N_9
REMARK    7  A    between atoms: N_9  and  C_10
REMARK    8  A    between atoms: C_13  and  O_14
REMARK    9  A    between atoms: C_19  and  C_21
REMARK                            x       y       z     vdW  Elec       q    Type
REMARK                         _______ _______ _______ _____ _____    ______ ____
ROOT
ATOM      1  C   UNL     1      47.285   5.263  14.564  0.00  0.00    +0.000 C 
ENDROOT
BRANCH   1   2
ATOM      2  C   UNL     1      46.587   4.980  13.251  0.00  0.00    +0.000 A 
ATOM      3  C   UNL     1      46.605   5.935  12.232  0.00  0.00    +0.000 A 
ATOM      4  C   UNL     1      45.859   5.744  11.070  0.00  0.00    +0.000 A 
ATOM      5  C   UNL     1      45.128   4.565  10.871  0.00  0.00    +0.000 A 
ATOM      6  C   UNL     1      45.158   3.579  11.864  0.00  0.00    +0.000 A 
ATOM      7  C   UNL     1      45.873   3.789  13.050  0.00  0.00    +0.000 A 
BRANCH   5   8
ATOM      8  C   UNL     1      44.298   4.394   9.620  0.00  0.00    +0.000 C 
BRANCH   8   9
ATOM      9  N   UNL     1      44.217   2.983   9.246  0.00  0.00    +0.000 NA
ATOM     10  H   UNL     1      43.239   2.727   9.120  0.00  0.00    +0.000 HD
BRANCH   9  11
ATOM     11  C   UNL     1      45.009   2.616   8.071  0.00  0.00    +0.000 C 
ATOM     12  C   UNL     1      45.878   3.795   7.605  0.00  0.00    +0.000 C 
ATOM     13  C   UNL     1      46.855   3.402   6.506  0.00  0.00    +0.000 C 
ATOM     14  C   UNL     1      47.721   2.223   6.932  0.00  0.00    +0.000 C 
ATOM     15  C   UNL     1      46.862   1.031   7.346  0.00  0.00    +0.000 C 
ATOM     16  C   UNL     1      45.889   1.412   8.457  0.00  0.00    +0.000 C 
BRANCH  14  17
ATOM     17  O   UNL     1      48.580   1.849   5.862  0.00  0.00    +0.000 OA
ATOM     18  H   UNL     1      49.358   2.432   5.880  0.00  0.00    +0.000 HD
ENDBRANCH  14  17
ENDBRANCH   9  11
ENDBRANCH   8   9
ENDBRANCH   5   8
ENDBRANCH   1   2
BRANCH   1  19
ATOM     19  C   UNL     1      47.130   4.130  15.599  0.00  0.00    +0.000 C 
BRANCH  19  20
ATOM     20  N   UNL     1      47.859   2.937  15.095  0.00  0.00    +0.000 NA
ATOM     21  H   UNL     1      47.450   2.651  14.203  0.00  0.00    +0.000 HD
ATOM     22  H   UNL     1      47.710   2.157  15.742  0.00  0.00    +0.000 HD
ENDBRANCH  19  20
BRANCH  19  23
ATOM     23  C   UNL     1      47.644   4.518  17.010  0.00  0.00    +0.000 C 
ATOM     24  O   UNL     1      46.842   4.731  17.916  0.00  0.00    +0.000 OA
BRANCH  23  25
ATOM     25  C   UNL     1      49.104   4.556  17.283  0.00  0.00    +0.000 A 
ATOM     26  C   UNL     1      49.712   3.502  17.951  0.00  0.00    +0.000 A 
ATOM     27  S   UNL     1      51.413   3.627  18.026  0.00  0.00    +0.000 S 
ATOM     28  C   UNL     1      51.394   5.123  17.218  0.00  0.00    +0.000 A 
ATOM     29  N   UNL     1      52.549   5.773  16.906  0.00  0.00    +0.000 NA
ATOM     30  C   UNL     1      52.380   6.855  16.224  0.00  0.00    +0.000 A 
ATOM     31  N   UNL     1      51.163   7.374  15.867  0.00  0.00    +0.000 N 
ATOM     32  C   UNL     1      49.989   6.887  16.397  0.00  0.00    +0.000 A 
ATOM     33  O   UNL     1      48.974   7.565  16.455  0.00  0.00    +0.000 OA
ATOM     34  C   UNL     1      50.104   5.550  16.954  0.00  0.00    +0.000 A 
ATOM     35  H   UNL     1      51.114   8.284  15.439  0.00  0.00    +0.000 HD
ENDBRANCH  23  25
ENDBRANCH  19  23
ENDBRANCH   1  19
TORSDOF 9
ENDMDL
MODEL 4
REMARK VINA RESULT:    -8.535      2.402      3.334
REMARK INTER + INTRA:         -13.426
REMARK INTER:                 -12.209
REMARK INTRA:                  -1.217
REMARK UNBOUND:                -0.900
REMARK  Name = 
REMARK  9 active torsions:
REMARK  status: ('A' for Active; 'I' for Inactive)
REMARK    1  A    between atoms: N_1  and  C_2
REMARK    2  A    between atoms: C_2  and  C_3
REMARK    3  A    between atoms: C_2  and  C_19
REMARK    4  A    between atoms: C_3  and  C_4
REMARK    5  A    between atoms: C_7  and  C_8
REMARK    6  A    between atoms: C_8  and  N_9
REMARK    7  A    between atoms: N_9  and  C_10
REMARK    8  A    between atoms: C_13  and  O_14
REMARK    9  A    between atoms: C_19  and  C_21
REMARK                            x       y       z     vdW  Elec       q    Type
REMARK                         _______ _______ _______ _____ _____    ______ ____
ROOT
ATOM      1  C   UNL     1      46.181   7.979  13.345  0.00  0.00    +0.000 C 
ENDROOT
BRANCH   1   2
ATOM      2  C   UNL     1      45.670   6.902  12.413  0.00  0.00    +0.000 A 
ATOM      3  C   UNL     1      46.259   6.731  11.157  0.00  0.00    +0.000 A 
ATOM      4  C   UNL     1      45.716   5.834  10.238  0.00  0.00    +0.000 A 
ATOM      5  C   UNL     1      44.612   5.040  10.576  0.00  0.00    +0.000 A 
ATOM      6  C   UNL     1      44.059   5.165  11.855  0.00  0.00    +0.000 A 
ATOM      7  C   UNL     1      44.577   6.097  12.763  0.00  0.00    +0.000 A 
BRANCH   5   8
ATOM      8  C   UNL     1      44.018   4.100   9.552  0.00  0.00    +0.000 C 
BRANCH   8   9
ATOM      9  N   UNL     1      44.770   2.847   9.509  0.00  0.00    +0.000 NA
ATOM     10  H   UNL     1      44.174   2.089   9.836  0.00  0.00    +0.000 HD
BRANCH   9  11
ATOM     11  C   UNL     1      45.350   2.528   8.203  0.00  0.00    +0.000 C 
ATOM     12  C   UNL     1      46.166   3.713   7.660  0.00  0.00    +0.000 C 
ATOM     13  C   UNL     1      46.940   3.360   6.398  0.00  0.00    +0.000 C 
ATOM     14  C   UNL     1      47.829   2.141   6.618  0.00  0.00    +0.000 C 
ATOM     15  C   UNL     1      47.014   0.947   7.107  0.00  0.00    +0.000 C 
ATOM     16  C   UNL     1      46.246   1.287   8.379  0.00  0.00    +0.000 C 
BRANCH  14  17
ATOM     17  O   UNL     1      48.491   1.809   5.404  0.00  0.00    +0.000 OA
ATOM     18  H   UNL     1      47.816   1.673   4.718  0.00  0.00    +0.000 HD
ENDBRANCH  14  17
ENDBRANCH   9  11
ENDBRANCH   8   9
ENDBRANCH   5   8
ENDBRANCH   1   2
BRANCH   1  19
ATOM     19  C   UNL     1      47.609   8.457  13.010  0.00  0.00    +0.000 C 
BRANCH  19  20
ATOM     20  N   UNL     1      47.849   9.741  13.719  0.00  0.00    +0.000 NA
ATOM     21  H   UNL     1      47.693  10.513  13.067  0.00  0.00    +0.000 HD
ATOM     22  H   UNL     1      48.833   9.791  13.993  0.00  0.00    +0.000 HD
ENDBRANCH  19  20
BRANCH  19  23
ATOM     23  C   UNL     1      48.702   7.422  13.385  0.00  0.00    +0.000 C 
ATOM     24  O   UNL     1      49.483   7.020  12.527  0.00  0.00    +0.000 OA
BRANCH  23  25
ATOM     25  C   UNL     1      48.850   6.979  14.796  0.00  0.00    +0.000 A 
ATOM     26  C   UNL     1      49.667   7.692  15.664  0.00  0.00    +0.000 A 
ATOM     27  S   UNL     1      49.586   7.150  17.281  0.00  0.00    +0.000 S 
ATOM     28  C   UNL     1      48.501   5.907  16.869  0.00  0.00    +0.000 A 
ATOM     29  N   UNL     1      47.979   5.081  17.817  0.00  0.00    +0.000 NA
ATOM     30  C   UNL     1      47.111   4.240  17.366  0.00  0.00    +0.000 A 
ATOM     31  N   UNL     1      46.752   4.114  16.049  0.00  0.00    +0.000 N 
ATOM     32  C   UNL     1      47.455   4.745  15.048  0.00  0.00    +0.000 A 
ATOM     33  O   UNL     1      47.454   4.333  13.898  0.00  0.00    +0.000 OA
ATOM     34  C   UNL     1      48.255   5.868  15.507  0.00  0.00    +0.000 A 
ATOM     35  H   UNL     1      46.156   3.354  15.764  0.00  0.00    +0.000 HD
ENDBRANCH  23  25
ENDBRANCH  19  23
ENDBRANCH   1  19
TORSDOF 9
ENDMDL
MODEL 5
REMARK VINA RESULT:    -8.203      2.008      2.551
REMARK INTER + INTRA:         -12.940
REMARK INTER:                 -11.874
REMARK INTRA:                  -1.066
REMARK UNBOUND:                -0.900
REMARK  Name = 
REMARK  9 active torsions:
REMARK  status: ('A' for Active; 'I' for Inactive)
REMARK    1  A    between atoms: N_1  and  C_2
REMARK    2  A    between atoms: C_2  and  C_3
REMARK    3  A    between atoms: C_2  and  C_19
REMARK    4  A    between atoms: C_3  and  C_4
REMARK    5  A    between atoms: C_7  and  C_8
REMARK    6  A    between atoms: C_8  and  N_9
REMARK    7  A    between atoms: N_9  and  C_10
REMARK    8  A    between atoms: C_13  and  O_14
REMARK    9  A    between atoms: C_19  and  C_21
REMARK                            x       y       z     vdW  Elec       q    Type
REMARK                         _______ _______ _______ _____ _____    ______ ____
ROOT
ATOM      1  C   UNL     1      47.215   7.082  13.152  0.00  0.00    +0.000 C 
ENDROOT
BRANCH   1   2
ATOM      2  C   UNL     1      46.315   6.029  12.542  0.00  0.00    +0.000 A 
ATOM      3  C   UNL     1      46.233   4.760  13.123  0.00  0.00    +0.000 A 
ATOM      4  C   UNL     1      45.512   3.742  12.501  0.00  0.00    +0.000 A 
ATOM      5  C   UNL     1      44.803   3.985  11.317  0.00  0.00    +0.000 A 
ATOM      6  C   UNL     1      44.832   5.271  10.767  0.00  0.00    +0.000 A 
ATOM      7  C   UNL     1      45.591   6.283  11.368  0.00  0.00    +0.000 A 
BRANCH   5   8
ATOM      8  C   UNL     1      44.057   2.858  10.640  0.00  0.00    +0.000 C 
BRANCH   8   9
ATOM      9  N   UNL     1      44.211   2.939   9.188  0.00  0.00    +0.000 NA
ATOM     10  H   UNL     1      43.883   3.849   8.869  0.00  0.00    +0.000 HD
BRANCH   9  11
ATOM     11  C   UNL     1      45.566   2.672   8.702  0.00  0.00    +0.000 C 
ATOM     12  C   UNL     1      45.717   1.201   8.282  0.00  0.00    +0.000 C 
ATOM     13  C   UNL     1      47.048   0.923   7.596  0.00  0.00    +0.000 C 
ATOM     14  C   UNL     1      47.262   1.854   6.408  0.00  0.00    +0.000 C 
ATOM     15  C   UNL     1      47.164   3.318   6.831  0.00  0.00    +0.000 C 
ATOM     16  C   UNL     1      45.827   3.608   7.508  0.00  0.00    +0.000 C 
BRANCH  14  17
ATOM     17  O   UNL     1      48.536   1.604   5.829  0.00  0.00    +0.000 OA
ATOM     18  H   UNL     1      48.991   0.940   6.374  0.00  0.00    +0.000 HD
ENDBRANCH  14  17
ENDBRANCH   9  11
ENDBRANCH   8   9
ENDBRANCH   5   8
ENDBRANCH   1   2
BRANCH   1  19
ATOM     19  C   UNL     1      48.520   6.509  13.740  0.00  0.00    +0.000 C 
BRANCH  19  20
ATOM     20  N   UNL     1      49.657   7.008  12.924  0.00  0.00    +0.000 NA
ATOM     21  H   UNL     1      49.311   7.274  12.000  0.00  0.00    +0.000 HD
ATOM     22  H   UNL     1      50.320   6.243  12.773  0.00  0.00    +0.000 HD
ENDBRANCH  19  20
BRANCH  19  23
ATOM     23  C   UNL     1      48.728   6.874  15.234  0.00  0.00    +0.000 C 
ATOM     24  O   UNL     1      48.640   8.044  15.596  0.00  0.00    +0.000 OA
BRANCH  23  25
ATOM     25  C   UNL     1      48.958   5.799  16.233  0.00  0.00    +0.000 A 
ATOM     26  C   UNL     1      47.913   4.966  16.609  0.00  0.00    +0.000 A 
ATOM     27  S   UNL     1      48.390   3.684  17.630  0.00  0.00    +0.000 S 
ATOM     28  C   UNL     1      50.001   4.229  17.654  0.00  0.00    +0.000 A 
ATOM     29  N   UNL     1      50.970   3.541  18.317  0.00  0.00    +0.000 NA
ATOM     30  C   UNL     1      52.156   4.031  18.179  0.00  0.00    +0.000 A 
ATOM     31  N   UNL     1      52.456   5.172  17.481  0.00  0.00    +0.000 N 
ATOM     32  C   UNL     1      51.470   6.023  17.035  0.00  0.00    +0.000 A 
ATOM     33  O   UNL     1      51.687   7.205  16.816  0.00  0.00    +0.000 OA
ATOM     34  C   UNL     1      50.157   5.407  16.945  0.00  0.00    +0.000 A 
ATOM     35  H   UNL     1      53.388   5.552  17.521  0.00  0.00    +0.000 HD
ENDBRANCH  23  25
ENDBRANCH  19  23
ENDBRANCH   1  19
TORSDOF 9
ENDMDL
MODEL 6
REMARK VINA RESULT:    -8.090      2.731      3.464
REMARK INTER + INTRA:         -12.773
REMARK INTER:                 -11.661
REMARK INTRA:                  -1.113
REMARK UNBOUND:                -0.900
REMARK  Name = 
REMARK  9 active torsions:
REMARK  status: ('A' for Active; 'I' for Inactive)
REMARK    1  A    between atoms: N_1  and  C_2
REMARK    2  A    between atoms: C_2  and  C_3
REMARK    3  A    between atoms: C_2  and  C_19
REMARK    4  A    between atoms: C_3  and  C_4
REMARK    5  A    between atoms: C_7  and  C_8
REMARK    6  A    between atoms: C_8  and  N_9
REMARK    7  A    between atoms: N_9  and  C_10
REMARK    8  A    between atoms: C_13  and  O_14
REMARK    9  A    between atoms: C_19  and  C_21
REMARK                            x       y       z     vdW  Elec       q    Type
REMARK                         _______ _______ _______ _____ _____    ______ ____
ROOT
ATOM      1  C   UNL     1      47.384   7.275  13.573  0.00  0.00    +0.000 C 
ENDROOT
BRANCH   1   2
ATOM      2  C   UNL     1      46.520   6.264  12.850  0.00  0.00    +0.000 A 
ATOM      3  C   UNL     1      46.300   5.004  13.414  0.00  0.00    +0.000 A 
ATOM      4  C   UNL     1      45.618   4.020  12.702  0.00  0.00    +0.000 A 
ATOM      5  C   UNL     1      45.083   4.290  11.435  0.00  0.00    +0.000 A 
ATOM      6  C   UNL     1      45.248   5.570  10.894  0.00  0.00    +0.000 A 
ATOM      7  C   UNL     1      45.971   6.546  11.591  0.00  0.00    +0.000 A 
BRANCH   5   8
ATOM      8  C   UNL     1      44.378   3.197  10.665  0.00  0.00    +0.000 C 
BRANCH   8   9
ATOM      9  N   UNL     1      44.038   3.655   9.319  0.00  0.00    +0.000 NA
ATOM     10  H   UNL     1      44.145   4.666   9.274  0.00  0.00    +0.000 HD
BRANCH   9  11
ATOM     11  C   UNL     1      44.788   3.002   8.244  0.00  0.00    +0.000 C 
ATOM     12  C   UNL     1      45.807   3.969   7.620  0.00  0.00    +0.000 C 
ATOM     13  C   UNL     1      46.736   3.280   6.630  0.00  0.00    +0.000 C 
ATOM     14  C   UNL     1      47.437   2.087   7.269  0.00  0.00    +0.000 C 
ATOM     15  C   UNL     1      46.427   1.098   7.844  0.00  0.00    +0.000 C 
ATOM     16  C   UNL     1      45.500   1.777   8.848  0.00  0.00    +0.000 C 
BRANCH  14  17
ATOM     17  O   UNL     1      48.251   1.437   6.301  0.00  0.00    +0.000 OA
ATOM     18  H   UNL     1      49.112   1.246   6.709  0.00  0.00    +0.000 HD
ENDBRANCH  14  17
ENDBRANCH   9  11
ENDBRANCH   8   9
ENDBRANCH   5   8
ENDBRANCH   1   2
BRANCH   1  19
ATOM     19  C   UNL     1      48.694   6.680  14.127  0.00  0.00    +0.000 C 
BRANCH  19  20
ATOM     20  N   UNL     1      49.788   6.990  13.170  0.00  0.00    +0.000 NA
ATOM     21  H   UNL     1      49.498   6.706  12.232  0.00  0.00    +0.000 HD
ATOM     22  H   UNL     1      50.605   6.420  13.402  0.00  0.00    +0.000 HD
ENDBRANCH  19  20
BRANCH  19  23
ATOM     23  C   UNL     1      49.052   7.205  15.543  0.00  0.00    +0.000 C 
ATOM     24  O   UNL     1      49.604   8.294  15.670  0.00  0.00    +0.000 OA
BRANCH  23  25
ATOM     25  C   UNL     1      48.659   6.424  16.744  0.00  0.00    +0.000 A 
ATOM     26  C   UNL     1      48.651   5.036  16.696  0.00  0.00    +0.000 A 
ATOM     27  S   UNL     1      48.344   4.299  18.205  0.00  0.00    +0.000 S 
ATOM     28  C   UNL     1      48.153   5.809  18.966  0.00  0.00    +0.000 A 
ATOM     29  N   UNL     1      47.920   5.902  20.303  0.00  0.00    +0.000 NA
ATOM     30  C   UNL     1      47.877   7.112  20.750  0.00  0.00    +0.000 A 
ATOM     31  N   UNL     1      47.997   8.238  19.977  0.00  0.00    +0.000 N 
ATOM     32  C   UNL     1      47.963   8.173  18.602  0.00  0.00    +0.000 A 
ATOM     33  O   UNL     1      47.633   9.131  17.918  0.00  0.00    +0.000 OA
ATOM     34  C   UNL     1      48.259   6.856  18.066  0.00  0.00    +0.000 A 
ATOM     35  H   UNL     1      47.834   9.144  20.385  0.00  0.00    +0.000 HD
ENDBRANCH  23  25
ENDBRANCH  19  23
ENDBRANCH   1  19
TORSDOF 9
ENDMDL
MODEL 7
REMARK VINA RESULT:    -7.681      1.776      2.200
REMARK INTER + INTRA:         -12.173
REMARK INTER:                 -10.932
REMARK INTRA:                  -1.241
REMARK UNBOUND:                -0.900
REMARK  Name = 
REMARK  9 active torsions:
REMARK  status: ('A' for Active; 'I' for Inactive)
REMARK    1  A    between atoms: N_1  and  C_2
REMARK    2  A    between atoms: C_2  and  C_3
REMARK    3  A    between atoms: C_2  and  C_19
REMARK    4  A    between atoms: C_3  and  C_4
REMARK    5  A    between atoms: C_7  and  C_8
REMARK    6  A    between atoms: C_8  and  N_9
REMARK    7  A    between atoms: N_9  and  C_10
REMARK    8  A    between atoms: C_13  and  O_14
REMARK    9  A    between atoms: C_19  and  C_21
REMARK                            x       y       z     vdW  Elec       q    Type
REMARK                         _______ _______ _______ _____ _____    ______ ____
ROOT
ATOM      1  C   UNL     1      46.241   4.939  14.735  0.00  0.00    +0.000 C 
ENDROOT
BRANCH   1   2
ATOM      2  C   UNL     1      45.669   4.831  13.338  0.00  0.00    +0.000 A 
ATOM      3  C   UNL     1      45.164   3.610  12.883  0.00  0.00    +0.000 A 
ATOM      4  C   UNL     1      44.756   3.463  11.559  0.00  0.00    +0.000 A 
ATOM      5  C   UNL     1      44.783   4.549  10.674  0.00  0.00    +0.000 A 
ATOM      6  C   UNL     1      45.230   5.789  11.143  0.00  0.00    +0.000 A 
ATOM      7  C   UNL     1      45.681   5.926  12.462  0.00  0.00    +0.000 A 
BRANCH   5   8
ATOM      8  C   UNL     1      44.370   4.357   9.232  0.00  0.00    +0.000 C 
BRANCH   8   9
ATOM      9  N   UNL     1      44.235   2.935   8.921  0.00  0.00    +0.000 NA
ATOM     10  H   UNL     1      43.252   2.721   8.759  0.00  0.00    +0.000 HD
BRANCH   9  11
ATOM     11  C   UNL     1      45.061   2.473   7.804  0.00  0.00    +0.000 C 
ATOM     12  C   UNL     1      45.795   3.650   7.141  0.00  0.00    +0.000 C 
ATOM     13  C   UNL     1      46.808   3.194   6.100  0.00  0.00    +0.000 C 
ATOM     14  C   UNL     1      47.798   2.198   6.691  0.00  0.00    +0.000 C 
ATOM     15  C   UNL     1      47.075   1.002   7.305  0.00  0.00    +0.000 C 
ATOM     16  C   UNL     1      46.068   1.448   8.360  0.00  0.00    +0.000 C 
BRANCH  14  17
ATOM     17  O   UNL     1      48.691   1.753   5.678  0.00  0.00    +0.000 OA
ATOM     18  H   UNL     1      48.691   2.413   4.964  0.00  0.00    +0.000 HD
ENDBRANCH  14  17
ENDBRANCH   9  11
ENDBRANCH   8   9
ENDBRANCH   5   8
ENDBRANCH   1   2
BRANCH   1  19
ATOM     19  C   UNL     1      47.754   4.649  14.805  0.00  0.00    +0.000 C 
BRANCH  19  20
ATOM     20  N   UNL     1      48.483   5.916  14.543  0.00  0.00    +0.000 NA
ATOM     21  H   UNL     1      47.809   6.683  14.494  0.00  0.00    +0.000 HD
ATOM     22  H   UNL     1      48.924   5.863  13.621  0.00  0.00    +0.000 HD
ENDBRANCH  19  20
BRANCH  19  23
ATOM     23  C   UNL     1      48.197   4.043  16.163  0.00  0.00    +0.000 C 
ATOM     24  O   UNL     1      48.553   2.869  16.222  0.00  0.00    +0.000 OA
BRANCH  23  25
ATOM     25  C   UNL     1      48.264   4.904  17.372  0.00  0.00    +0.000 A 
ATOM     26  C   UNL     1      47.136   5.077  18.163  0.00  0.00    +0.000 A 
ATOM     27  S   UNL     1      47.432   5.952  19.598  0.00  0.00    +0.000 S 
ATOM     28  C   UNL     1      49.066   6.181  19.187  0.00  0.00    +0.000 A 
ATOM     29  N   UNL     1      49.924   6.823  20.027  0.00  0.00    +0.000 NA
ATOM     30  C   UNL     1      51.147   6.850  19.616  0.00  0.00    +0.000 A 
ATOM     31  N   UNL     1      51.584   6.339  18.422  0.00  0.00    +0.000 N 
ATOM     32  C   UNL     1      50.701   5.933  17.447  0.00  0.00    +0.000 A 
ATOM     33  O   UNL     1      51.013   5.893  16.267  0.00  0.00    +0.000 OA
ATOM     34  C   UNL     1      49.364   5.653  17.943  0.00  0.00    +0.000 A 
ATOM     35  H   UNL     1      52.531   6.507  18.123  0.00  0.00    +0.000 HD
ENDBRANCH  23  25
ENDBRANCH  19  23
ENDBRANCH   1  19
TORSDOF 9
ENDMDL
MODEL 8
REMARK VINA RESULT:    -7.494      3.224      9.298
REMARK INTER + INTRA:         -11.898
REMARK INTER:                 -10.740
REMARK INTRA:                  -1.158
REMARK UNBOUND:                -0.900
REMARK  Name = 
REMARK  9 active torsions:
REMARK  status: ('A' for Active; 'I' for Inactive)
REMARK    1  A    between atoms: N_1  and  C_2
REMARK    2  A    between atoms: C_2  and  C_3
REMARK    3  A    between atoms: C_2  and  C_19
REMARK    4  A    between atoms: C_3  and  C_4
REMARK    5  A    between atoms: C_7  and  C_8
REMARK    6  A    between atoms: C_8  and  N_9
REMARK    7  A    between atoms: N_9  and  C_10
REMARK    8  A    between atoms: C_13  and  O_14
REMARK    9  A    between atoms: C_19  and  C_21
REMARK                            x       y       z     vdW  Elec       q    Type
REMARK                         _______ _______ _______ _____ _____    ______ ____
ROOT
ATOM      1  C   UNL     1      46.545   6.455  12.302  0.00  0.00    +0.000 C 
ENDROOT
BRANCH   1   2
ATOM      2  C   UNL     1      47.106   6.045  13.646  0.00  0.00    +0.000 A 
ATOM      3  C   UNL     1      48.036   6.862  14.293  0.00  0.00    +0.000 A 
ATOM      4  C   UNL     1      48.658   6.436  15.466  0.00  0.00    +0.000 A 
ATOM      5  C   UNL     1      48.318   5.211  16.054  0.00  0.00    +0.000 A 
ATOM      6  C   UNL     1      47.341   4.418  15.442  0.00  0.00    +0.000 A 
ATOM      7  C   UNL     1      46.747   4.826  14.241  0.00  0.00    +0.000 A 
BRANCH   5   8
ATOM      8  C   UNL     1      49.030   4.752  17.306  0.00  0.00    +0.000 C 
BRANCH   8   9
ATOM      9  N   UNL     1      50.437   4.474  17.023  0.00  0.00    +0.000 NA
ATOM     10  H   UNL     1      50.977   5.329  17.146  0.00  0.00    +0.000 HD
BRANCH   9  11
ATOM     11  C   UNL     1      51.012   3.376  17.804  0.00  0.00    +0.000 C 
ATOM     12  C   UNL     1      50.817   2.031  17.085  0.00  0.00    +0.000 C 
ATOM     13  C   UNL     1      51.561   0.892  17.766  0.00  0.00    +0.000 C 
ATOM     14  C   UNL     1      53.042   1.216  17.924  0.00  0.00    +0.000 C 
ATOM     15  C   UNL     1      53.241   2.525  18.684  0.00  0.00    +0.000 C 
ATOM     16  C   UNL     1      52.509   3.675  18.000  0.00  0.00    +0.000 C 
BRANCH  14  17
ATOM     17  O   UNL     1      53.692   0.155  18.613  0.00  0.00    +0.000 OA
ATOM     18  H   UNL     1      54.106  -0.426  17.952  0.00  0.00    +0.000 HD
ENDBRANCH  14  17
ENDBRANCH   9  11
ENDBRANCH   8   9
ENDBRANCH   5   8
ENDBRANCH   1   2
BRANCH   1  19
ATOM     19  C   UNL     1      45.194   7.193  12.398  0.00  0.00    +0.000 C 
BRANCH  19  20
ATOM     20  N   UNL     1      45.401   8.601  11.969  0.00  0.00    +0.000 NA
ATOM     21  H   UNL     1      44.497   9.008  11.721  0.00  0.00    +0.000 HD
ATOM     22  H   UNL     1      45.964   8.610  11.115  0.00  0.00    +0.000 HD
ENDBRANCH  19  20
BRANCH  19  23
ATOM     23  C   UNL     1      44.075   6.532  11.553  0.00  0.00    +0.000 C 
ATOM     24  O   UNL     1      43.218   7.230  11.018  0.00  0.00    +0.000 OA
BRANCH  23  25
ATOM     25  C   UNL     1      44.086   5.063  11.329  0.00  0.00    +0.000 A 
ATOM     26  C   UNL     1      43.533   4.213  12.278  0.00  0.00    +0.000 A 
ATOM     27  S   UNL     1      43.474   2.580  11.785  0.00  0.00    +0.000 S 
ATOM     28  C   UNL     1      44.238   2.940  10.309  0.00  0.00    +0.000 A 
ATOM     29  N   UNL     1      44.453   1.978   9.370  0.00  0.00    +0.000 NA
ATOM     30  C   UNL     1      44.968   2.416   8.271  0.00  0.00    +0.000 A 
ATOM     31  N   UNL     1      45.335   3.716   8.041  0.00  0.00    +0.000 N 
ATOM     32  C   UNL     1      45.378   4.642   9.059  0.00  0.00    +0.000 A 
ATOM     33  O   UNL     1      46.085   5.637   8.999  0.00  0.00    +0.000 OA
ATOM     34  C   UNL     1      44.590   4.276  10.223  0.00  0.00    +0.000 A 
ATOM     35  H   UNL     1      45.839   3.952   7.202  0.00  0.00    +0.000 HD
ENDBRANCH  23  25
ENDBRANCH  19  23
ENDBRANCH   1  19
TORSDOF 9
ENDMDL
MODEL 9
REMARK VINA RESULT:    -7.284      2.909      3.339
REMARK INTER + INTRA:         -11.591
REMARK INTER:                 -10.605
REMARK INTRA:                  -0.987
REMARK UNBOUND:                -0.900
REMARK  Name = 
REMARK  9 active torsions:
REMARK  status: ('A' for Active; 'I' for Inactive)
REMARK    1  A    between atoms: N_1  and  C_2
REMARK    2  A    between atoms: C_2  and  C_3
REMARK    3  A    between atoms: C_2  and  C_19
REMARK    4  A    between atoms: C_3  and  C_4
REMARK    5  A    between atoms: C_7  and  C_8
REMARK    6  A    between atoms: C_8  and  N_9
REMARK    7  A    between atoms: N_9  and  C_10
REMARK    8  A    between atoms: C_13  and  O_14
REMARK    9  A    between atoms: C_19  and  C_21
REMARK                            x       y       z     vdW  Elec       q    Type
REMARK                         _______ _______ _______ _____ _____    ______ ____
ROOT
ATOM      1  C   UNL     1      48.169   6.768  14.303  0.00  0.00    +0.000 C 
ENDROOT
BRANCH   1   2
ATOM      2  C   UNL     1      47.162   6.298  13.276  0.00  0.00    +0.000 A 
ATOM      3  C   UNL     1      46.239   5.303  13.608  0.00  0.00    +0.000 A 
ATOM      4  C   UNL     1      45.394   4.769  12.637  0.00  0.00    +0.000 A 
ATOM      5  C   UNL     1      45.406   5.262  11.325  0.00  0.00    +0.000 A 
ATOM      6  C   UNL     1      46.285   6.302  11.005  0.00  0.00    +0.000 A 
ATOM      7  C   UNL     1      47.164   6.809  11.970  0.00  0.00    +0.000 A 
BRANCH   5   8
ATOM      8  C   UNL     1      44.506   4.643  10.279  0.00  0.00    +0.000 C 
BRANCH   8   9
ATOM      9  N   UNL     1      45.034   4.890   8.938  0.00  0.00    +0.000 NA
ATOM     10  H   UNL     1      45.904   5.413   9.013  0.00  0.00    +0.000 HD
BRANCH   9  11
ATOM     11  C   UNL     1      45.215   3.688   8.123  0.00  0.00    +0.000 C 
ATOM     12  C   UNL     1      46.539   3.748   7.343  0.00  0.00    +0.000 C 
ATOM     13  C   UNL     1      46.858   2.441   6.631  0.00  0.00    +0.000 C 
ATOM     14  C   UNL     1      46.851   1.267   7.603  0.00  0.00    +0.000 C 
ATOM     15  C   UNL     1      45.518   1.172   8.342  0.00  0.00    +0.000 C 
ATOM     16  C   UNL     1      45.197   2.473   9.069  0.00  0.00    +0.000 C 
BRANCH  14  17
ATOM     17  O   UNL     1      47.097   0.059   6.894  0.00  0.00    +0.000 OA
ATOM     18  H   UNL     1      47.453  -0.593   7.521  0.00  0.00    +0.000 HD
ENDBRANCH  14  17
ENDBRANCH   9  11
ENDBRANCH   8   9
ENDBRANCH   5   8
ENDBRANCH   1   2
BRANCH   1  19
ATOM     19  C   UNL     1      48.444   8.285  14.246  0.00  0.00    +0.000 C 
BRANCH  19  20
ATOM     20  N   UNL     1      47.172   9.000  14.526  0.00  0.00    +0.000 NA
ATOM     21  H   UNL     1      47.299   9.994  14.326  0.00  0.00    +0.000 HD
ATOM     22  H   UNL     1      46.965   8.933  15.526  0.00  0.00    +0.000 HD
ENDBRANCH  19  20
BRANCH  19  23
ATOM     23  C   UNL     1      49.548   8.743  15.234  0.00  0.00    +0.000 C 
ATOM     24  O   UNL     1      49.239   9.333  16.266  0.00  0.00    +0.000 OA
BRANCH  23  25
ATOM     25  C   UNL     1      50.969   8.401  14.968  0.00  0.00    +0.000 A 
ATOM     26  C   UNL     1      51.691   9.121  14.025  0.00  0.00    +0.000 A 
ATOM     27  S   UNL     1      53.347   8.711  13.970  0.00  0.00    +0.000 S 
ATOM     28  C   UNL     1      53.149   7.516  15.164  0.00  0.00    +0.000 A 
ATOM     29  N   UNL     1      54.209   6.803  15.633  0.00  0.00    +0.000 NA
ATOM     30  C   UNL     1      53.917   5.990  16.592  0.00  0.00    +0.000 A 
ATOM     31  N   UNL     1      52.657   5.788  17.092  0.00  0.00    +0.000 N 
ATOM     32  C   UNL     1      51.542   6.292  16.459  0.00  0.00    +0.000 A 
ATOM     33  O   UNL     1      50.436   5.794  16.604  0.00  0.00    +0.000 OA
ATOM     34  C   UNL     1      51.826   7.390  15.551  0.00  0.00    +0.000 A 
ATOM     35  H   UNL     1      52.496   5.051  17.758  0.00  0.00    +0.000 HD
ENDBRANCH  23  25
ENDBRANCH  19  23
ENDBRANCH   1  19
TORSDOF 9
ENDMDL
