MODEL 1
REMARK VINA RESULT:    -7.927      0.000      0.000
REMARK INTER + INTRA:         -11.868
REMARK INTER:                 -10.707
REMARK INTRA:                  -1.161
REMARK UNBOUND:                -1.161
REMARK  Name = 
REMARK  6 active torsions:
REMARK  status: ('A' for Active; 'I' for Inactive)
REMARK    1  A    between atoms: C_2  and  C_3
REMARK    2  A    between atoms: C_8  and  C_9
REMARK    3  A    between atoms: C_9  and  C_10
REMARK    4  A    between atoms: C_13  and  C_14
REMARK    5  A    between atoms: C_14  and  N_15
REMARK    6  A    between atoms: C_16  and  C_18
REMARK                            x       y       z     vdW  Elec       q    Type
REMARK                         _______ _______ _______ _____ _____    ______ ____
ROOT
ATOM      1  C   UNL     1      47.631   8.539  13.798  0.00  0.00    +0.000 C 
ENDROOT
BRANCH   1   5
ATOM      2  C   UNL     1      45.089   6.358  11.041  0.00  0.00    +0.000 A 
ATOM      3  C   UNL     1      46.353   5.853  11.391  0.00  0.00    +0.000 A 
ATOM      4  C   UNL     1      47.205   6.572  12.243  0.00  0.00    +0.000 A 
ATOM      5  C   UNL     1      46.814   7.817  12.752  0.00  0.00    +0.000 A 
ATOM      6  C   UNL     1      45.607   8.370  12.304  0.00  0.00    +0.000 A 
ATOM      7  C   UNL     1      44.749   7.646  11.467  0.00  0.00    +0.000 A 
BRANCH   2   8
ATOM      8  C   UNL     1      44.094   5.498  10.282  0.00  0.00    +0.000 C 
BRANCH   8  14
ATOM      9  C   UNL     1      44.616   3.004   9.836  0.00  0.00    +0.000 A 
ATOM     10  C   UNL     1      45.316   2.063   9.062  0.00  0.00    +0.000 A 
ATOM     11  C   UNL     1      46.072   2.475   7.965  0.00  0.00    +0.000 A 
ATOM     12  C   UNL     1      46.090   3.823   7.677  0.00  0.00    +0.000 A 
ATOM     13  N   UNL     1      45.456   4.760   8.412  0.00  0.00    +0.000 NA
ATOM     14  C   UNL     1      44.731   4.362   9.498  0.00  0.00    +0.000 A 
BRANCH   9  16
ATOM     15  N   UNL     1      43.069   2.175  11.740  0.00  0.00    +0.000 NA
ATOM     16  C   UNL     1      43.785   2.495  10.884  0.00  0.00    +0.000 C 
ENDBRANCH   9  16
ENDBRANCH   8  14
ENDBRANCH   2   8
ENDBRANCH   1   5
BRANCH   1  17
ATOM     17  N   UNL     1      47.897   7.733  14.960  0.00  0.00    +0.000 N 
ATOM     18  C   UNL     1      49.084   7.059  15.103  0.00  0.00    +0.000 C 
ATOM     19  O   UNL     1      49.994   7.146  14.283  0.00  0.00    +0.000 OA
ATOM     20  H   UNL     1      47.087   7.414  15.487  0.00  0.00    +0.000 HD
BRANCH  18  21
ATOM     21  C   UNL     1      49.235   6.270  16.331  0.00  0.00    +0.000 A 
ATOM     22  C   UNL     1      50.186   6.627  17.278  0.00  0.00    +0.000 A 
ATOM     23  S   UNL     1      50.205   5.605  18.644  0.00  0.00    +0.000 S 
ATOM     24  C   UNL     1      48.973   4.626  17.998  0.00  0.00    +0.000 A 
ATOM     25  N   UNL     1      48.532   3.524  18.664  0.00  0.00    +0.000 NA
ATOM     26  C   UNL     1      47.609   2.864  18.047  0.00  0.00    +0.000 A 
ATOM     27  N   UNL     1      47.077   3.212  16.833  0.00  0.00    +0.000 N 
ATOM     28  C   UNL     1      47.470   4.332  16.137  0.00  0.00    +0.000 A 
ATOM     29  O   UNL     1      46.936   4.642  15.078  0.00  0.00    +0.000 OA
ATOM     30  C   UNL     1      48.527   5.092  16.773  0.00  0.00    +0.000 A 
ATOM     31  H   UNL     1      46.343   2.663  16.411  0.00  0.00    +0.000 HD
ENDBRANCH  18  21
ENDBRANCH   1  17
TORSDOF 6
ENDMDL
MODEL 2
REMARK VINA RESULT:    -7.305      2.336      3.033
REMARK INTER + INTRA:         -11.028
REMARK INTER:                  -9.903
REMARK INTRA:                  -1.125
REMARK UNBOUND:                -1.161
REMARK  Name = 
REMARK  6 active torsions:
REMARK  status: ('A' for Active; 'I' for Inactive)
REMARK    1  A    between atoms: C_2  and  C_3
REMARK    2  A    between atoms: C_8  and  C_9
REMARK    3  A    between atoms: C_9  and  C_10
REMARK    4  A    between atoms: C_13  and  C_14
REMARK    5  A    between atoms: C_14  and  N_15
REMARK    6  A    between atoms: C_16  and  C_18
REMARK                            x       y       z     vdW  Elec       q    Type
REMARK                         _______ _______ _______ _____ _____    ______ ____
ROOT
ATOM      1  C   UNL     1      48.676   6.648  14.227  0.00  0.00    +0.000 C 
ENDROOT
BRANCH   1   5
ATOM      2  C   UNL     1      45.434   5.925  11.437  0.00  0.00    +0.000 A 
ATOM      3  C   UNL     1      46.373   6.940  11.185  0.00  0.00    +0.000 A 
ATOM      4  C   UNL     1      47.398   7.216  12.103  0.00  0.00    +0.000 A 
ATOM      5  C   UNL     1      47.496   6.491  13.297  0.00  0.00    +0.000 A 
ATOM      6  C   UNL     1      46.487   5.566  13.598  0.00  0.00    +0.000 A 
ATOM      7  C   UNL     1      45.473   5.278  12.676  0.00  0.00    +0.000 A 
BRANCH   2   8
ATOM      8  C   UNL     1      44.449   5.497  10.363  0.00  0.00    +0.000 C 
BRANCH   8  14
ATOM      9  C   UNL     1      44.672   2.982   9.798  0.00  0.00    +0.000 A 
ATOM     10  C   UNL     1      45.238   2.005   8.963  0.00  0.00    +0.000 A 
ATOM     11  C   UNL     1      46.003   2.378   7.858  0.00  0.00    +0.000 A 
ATOM     12  C   UNL     1      46.165   3.726   7.626  0.00  0.00    +0.000 A 
ATOM     13  N   UNL     1      45.663   4.695   8.419  0.00  0.00    +0.000 NA
ATOM     14  C   UNL     1      44.930   4.333   9.512  0.00  0.00    +0.000 A 
BRANCH   9  16
ATOM     15  N   UNL     1      43.053   2.205  11.664  0.00  0.00    +0.000 NA
ATOM     16  C   UNL     1      43.819   2.524  10.852  0.00  0.00    +0.000 C 
ENDBRANCH   9  16
ENDBRANCH   8  14
ENDBRANCH   2   8
ENDBRANCH   1   5
BRANCH   1  17
ATOM     17  N   UNL     1      48.291   6.776  15.608  0.00  0.00    +0.000 N 
ATOM     18  C   UNL     1      49.087   6.290  16.617  0.00  0.00    +0.000 C 
ATOM     19  O   UNL     1      50.180   5.774  16.403  0.00  0.00    +0.000 OA
ATOM     20  H   UNL     1      47.302   6.921  15.793  0.00  0.00    +0.000 HD
BRANCH  18  21
ATOM     21  C   UNL     1      48.586   6.480  17.982  0.00  0.00    +0.000 A 
ATOM     22  C   UNL     1      48.478   5.396  18.844  0.00  0.00    +0.000 A 
ATOM     23  S   UNL     1      47.893   5.810  20.392  0.00  0.00    +0.000 S 
ATOM     24  C   UNL     1      47.722   7.445  19.951  0.00  0.00    +0.000 A 
ATOM     25  N   UNL     1      47.220   8.358  20.826  0.00  0.00    +0.000 NA
ATOM     26  C   UNL     1      47.128   9.555  20.350  0.00  0.00    +0.000 A 
ATOM     27  N   UNL     1      47.504   9.926  19.086  0.00  0.00    +0.000 N 
ATOM     28  C   UNL     1      48.043   9.044  18.177  0.00  0.00    +0.000 A 
ATOM     29  O   UNL     1      48.417   9.420  17.072  0.00  0.00    +0.000 OA
ATOM     30  C   UNL     1      48.140   7.679  18.652  0.00  0.00    +0.000 A 
ATOM     31  H   UNL     1      47.423  10.884  18.780  0.00  0.00    +0.000 HD
ENDBRANCH  18  21
ENDBRANCH   1  17
TORSDOF 6
ENDMDL
MODEL 3
REMARK VINA RESULT:    -7.224      3.175      8.056
REMARK INTER + INTRA:         -10.918
REMARK INTER:                  -9.802
REMARK INTRA:                  -1.116
REMARK UNBOUND:                -1.161
REMARK  Name = 
REMARK  6 active torsions:
REMARK  status: ('A' for Active; 'I' for Inactive)
REMARK    1  A    between atoms: C_2  and  C_3
REMARK    2  A    between atoms: C_8  and  C_9
REMARK    3  A    between atoms: C_9  and  C_10
REMARK    4  A    between atoms: C_13  and  C_14
REMARK    5  A    between atoms: C_14  and  N_15
REMARK    6  A    between atoms: C_16  and  C_18
REMARK                            x       y       z     vdW  Elec       q    Type
REMARK                         _______ _______ _______ _____ _____    ______ ____
ROOT
ATOM      1  C   UNL     1      48.440   7.040  13.462  0.00  0.00    +0.000 C 
ENDROOT
BRANCH   1   5
ATOM      2  C   UNL     1      49.286   5.327  17.357  0.00  0.00    +0.000 A 
ATOM      3  C   UNL     1      48.085   5.023  16.694  0.00  0.00    +0.000 A 
ATOM      4  C   UNL     1      47.777   5.608  15.457  0.00  0.00    +0.000 A 
ATOM      5  C   UNL     1      48.659   6.519  14.863  0.00  0.00    +0.000 A 
ATOM      6  C   UNL     1      49.796   6.910  15.584  0.00  0.00    +0.000 A 
ATOM      7  C   UNL     1      50.112   6.315  16.811  0.00  0.00    +0.000 A 
BRANCH   2   8
ATOM      8  C   UNL     1      49.707   4.552  18.593  0.00  0.00    +0.000 C 
BRANCH   8  14
ATOM      9  C   UNL     1      51.138   2.622  17.632  0.00  0.00    +0.000 A 
ATOM     10  C   UNL     1      52.378   1.963  17.622  0.00  0.00    +0.000 A 
ATOM     11  C   UNL     1      53.453   2.470  18.353  0.00  0.00    +0.000 A 
ATOM     12  C   UNL     1      53.244   3.632  19.063  0.00  0.00    +0.000 A 
ATOM     13  N   UNL     1      52.061   4.279  19.122  0.00  0.00    +0.000 NA
ATOM     14  C   UNL     1      51.003   3.774  18.423  0.00  0.00    +0.000 A 
BRANCH   9  16
ATOM     15  N   UNL     1      49.347   1.686  16.012  0.00  0.00    +0.000 NA
ATOM     16  C   UNL     1      50.115   2.096  16.781  0.00  0.00    +0.000 C 
ENDBRANCH   9  16
ENDBRANCH   8  14
ENDBRANCH   2   8
ENDBRANCH   1   5
BRANCH   1  17
ATOM     17  N   UNL     1      47.644   6.157  12.652  0.00  0.00    +0.000 N 
ATOM     18  C   UNL     1      46.607   6.633  11.888  0.00  0.00    +0.000 C 
ATOM     19  O   UNL     1      46.337   7.828  11.814  0.00  0.00    +0.000 OA
ATOM     20  H   UNL     1      47.649   5.173  12.911  0.00  0.00    +0.000 HD
BRANCH  18  21
ATOM     21  C   UNL     1      45.869   5.634  11.106  0.00  0.00    +0.000 A 
ATOM     22  C   UNL     1      45.916   5.658   9.718  0.00  0.00    +0.000 A 
ATOM     23  S   UNL     1      45.012   4.412   8.983  0.00  0.00    +0.000 S 
ATOM     24  C   UNL     1      44.491   3.824  10.492  0.00  0.00    +0.000 A 
ATOM     25  N   UNL     1      43.640   2.766  10.576  0.00  0.00    +0.000 NA
ATOM     26  C   UNL     1      43.313   2.440  11.782  0.00  0.00    +0.000 A 
ATOM     27  N   UNL     1      43.769   3.066  12.912  0.00  0.00    +0.000 N 
ATOM     28  C   UNL     1      44.652   4.120  12.878  0.00  0.00    +0.000 A 
ATOM     29  O   UNL     1      45.082   4.624  13.911  0.00  0.00    +0.000 OA
ATOM     30  C   UNL     1      45.029   4.545  11.545  0.00  0.00    +0.000 A 
ATOM     31  H   UNL     1      43.490   2.752  13.829  0.00  0.00    +0.000 HD
ENDBRANCH  18  21
ENDBRANCH   1  17
TORSDOF 6
ENDMDL
MODEL 4
REMARK VINA RESULT:    -7.199      1.395      1.817
REMARK INTER + INTRA:         -10.885
REMARK INTER:                  -9.744
REMARK INTRA:                  -1.141
REMARK UNBOUND:                -1.161
REMARK  Name = 
REMARK  6 active torsions:
REMARK  status: ('A' for Active; 'I' for Inactive)
REMARK    1  A    between atoms: C_2  and  C_3
REMARK    2  A    between atoms: C_8  and  C_9
REMARK    3  A    between atoms: C_9  and  C_10
REMARK    4  A    between atoms: C_13  and  C_14
REMARK    5  A    between atoms: C_14  and  N_15
REMARK    6  A    between atoms: C_16  and  C_18
REMARK                            x       y       z     vdW  Elec       q    Type
REMARK                         _______ _______ _______ _____ _____    ______ ____
ROOT
ATOM      1  C   UNL     1      49.254   7.082  13.748  0.00  0.00    +0.000 C 
ENDROOT
BRANCH   1   5
ATOM      2  C   UNL     1      45.669   6.032  11.544  0.00  0.00    +0.000 A 
ATOM      3  C   UNL     1      46.265   7.292  11.369  0.00  0.00    +0.000 A 
ATOM      4  C   UNL     1      47.396   7.663  12.112  0.00  0.00    +0.000 A 
ATOM      5  C   UNL     1      47.946   6.784  13.053  0.00  0.00    +0.000 A 
ATOM      6  C   UNL     1      47.277   5.580  13.310  0.00  0.00    +0.000 A 
ATOM      7  C   UNL     1      46.157   5.202  12.559  0.00  0.00    +0.000 A 
BRANCH   2   8
ATOM      8  C   UNL     1      44.570   5.558  10.609  0.00  0.00    +0.000 C 
BRANCH   8  14
ATOM      9  C   UNL     1      44.675   3.077   9.882  0.00  0.00    +0.000 A 
ATOM     10  C   UNL     1      45.191   2.131   8.981  0.00  0.00    +0.000 A 
ATOM     11  C   UNL     1      45.965   2.540   7.895  0.00  0.00    +0.000 A 
ATOM     12  C   UNL     1      46.187   3.892   7.748  0.00  0.00    +0.000 A 
ATOM     13  N   UNL     1      45.734   4.829   8.606  0.00  0.00    +0.000 NA
ATOM     14  C   UNL     1      44.992   4.430   9.680  0.00  0.00    +0.000 A 
BRANCH   9  16
ATOM     15  N   UNL     1      43.029   2.219  11.688  0.00  0.00    +0.000 NA
ATOM     16  C   UNL     1      43.809   2.591  10.912  0.00  0.00    +0.000 C 
ENDBRANCH   9  16
ENDBRANCH   8  14
ENDBRANCH   2   8
ENDBRANCH   1   5
BRANCH   1  17
ATOM     17  N   UNL     1      49.168   6.973  15.181  0.00  0.00    +0.000 N 
ATOM     18  C   UNL     1      50.276   7.137  15.975  0.00  0.00    +0.000 C 
ATOM     19  O   UNL     1      51.376   7.433  15.519  0.00  0.00    +0.000 OA
ATOM     20  H   UNL     1      48.373   6.457  15.551  0.00  0.00    +0.000 HD
BRANCH  18  21
ATOM     21  C   UNL     1      50.060   7.000  17.420  0.00  0.00    +0.000 A 
ATOM     22  C   UNL     1      50.325   8.067  18.270  0.00  0.00    +0.000 A 
ATOM     23  S   UNL     1      50.000   7.729  19.910  0.00  0.00    +0.000 S 
ATOM     24  C   UNL     1      49.536   6.133  19.547  0.00  0.00    +0.000 A 
ATOM     25  N   UNL     1      49.168   5.269  20.532  0.00  0.00    +0.000 NA
ATOM     26  C   UNL     1      48.860   4.086  20.114  0.00  0.00    +0.000 A 
ATOM     27  N   UNL     1      48.873   3.693  18.801  0.00  0.00    +0.000 N 
ATOM     28  C   UNL     1      49.209   4.538  17.770  0.00  0.00    +0.000 A 
ATOM     29  O   UNL     1      49.159   4.168  16.602  0.00  0.00    +0.000 OA
ATOM     30  C   UNL     1      49.592   5.872  18.189  0.00  0.00    +0.000 A 
ATOM     31  H   UNL     1      48.603   2.757  18.537  0.00  0.00    +0.000 HD
ENDBRANCH  18  21
ENDBRANCH   1  17
TORSDOF 6
ENDMDL
MODEL 5
REMARK VINA RESULT:    -7.004      3.312      8.074
REMARK INTER + INTRA:         -10.621
REMARK INTER:                  -9.735
REMARK INTRA:                  -0.886
REMARK UNBOUND:                -1.161
REMARK  Name = 
REMARK  6 active torsions:
REMARK  status: ('A' for Active; 'I' for Inactive)
REMARK    1  A    between atoms: C_2  and  C_3
REMARK    2  A    between atoms: C_8  and  C_9
REMARK    3  A    between atoms: C_9  and  C_10
REMARK    4  A    between atoms: C_13  and  C_14
REMARK    5  A    between atoms: C_14  and  N_15
REMARK    6  A    between atoms: C_16  and  C_18
REMARK                            x       y       z     vdW  Elec       q    Type
REMARK                         _______ _______ _______ _____ _____    ______ ____
ROOT
ATOM      1  C   UNL     1      48.998   7.987  15.275  0.00  0.00    +0.000 C 
ENDROOT
BRANCH   1   5
ATOM      2  C   UNL     1      50.667   4.995  17.937  0.00  0.00    +0.000 A 
ATOM      3  C   UNL     1      51.499   5.701  17.052  0.00  0.00    +0.000 A 
ATOM      4  C   UNL     1      50.966   6.636  16.152  0.00  0.00    +0.000 A 
ATOM      5  C   UNL     1      49.587   6.874  16.110  0.00  0.00    +0.000 A 
ATOM      6  C   UNL     1      48.751   6.082  16.909  0.00  0.00    +0.000 A 
ATOM      7  C   UNL     1      49.283   5.160  17.818  0.00  0.00    +0.000 A 
BRANCH   2   8
ATOM      8  C   UNL     1      51.259   4.133  19.037  0.00  0.00    +0.000 C 
BRANCH   8  14
ATOM      9  C   UNL     1      51.979   2.060  17.666  0.00  0.00    +0.000 A 
ATOM     10  C   UNL     1      53.001   1.150  17.350  0.00  0.00    +0.000 A 
ATOM     11  C   UNL     1      54.284   1.321  17.869  0.00  0.00    +0.000 A 
ATOM     12  C   UNL     1      54.497   2.411  18.685  0.00  0.00    +0.000 A 
ATOM     13  N   UNL     1      53.536   3.291  19.036  0.00  0.00    +0.000 NA
ATOM     14  C   UNL     1      52.276   3.114  18.545  0.00  0.00    +0.000 A 
BRANCH   9  16
ATOM     15  N   UNL     1      49.742   1.732  16.403  0.00  0.00    +0.000 NA
ATOM     16  C   UNL     1      50.717   1.874  17.017  0.00  0.00    +0.000 C 
ENDBRANCH   9  16
ENDBRANCH   8  14
ENDBRANCH   2   8
ENDBRANCH   1   5
BRANCH   1  17
ATOM     17  N   UNL     1      47.822   7.584  14.549  0.00  0.00    +0.000 N 
ATOM     18  C   UNL     1      47.912   6.784  13.437  0.00  0.00    +0.000 C 
ATOM     19  O   UNL     1      48.980   6.332  13.034  0.00  0.00    +0.000 OA
ATOM     20  H   UNL     1      46.992   8.158  14.673  0.00  0.00    +0.000 HD
BRANCH  18  21
ATOM     21  C   UNL     1      46.643   6.443  12.783  0.00  0.00    +0.000 A 
ATOM     22  C   UNL     1      45.875   7.435  12.186  0.00  0.00    +0.000 A 
ATOM     23  S   UNL     1      44.445   6.850  11.465  0.00  0.00    +0.000 S 
ATOM     24  C   UNL     1      44.780   5.257  11.963  0.00  0.00    +0.000 A 
ATOM     25  N   UNL     1      43.913   4.243  11.695  0.00  0.00    +0.000 NA
ATOM     26  C   UNL     1      44.285   3.092  12.149  0.00  0.00    +0.000 A 
ATOM     27  N   UNL     1      45.450   2.861  12.833  0.00  0.00    +0.000 N 
ATOM     28  C   UNL     1      46.369   3.848  13.101  0.00  0.00    +0.000 A 
ATOM     29  O   UNL     1      47.426   3.596  13.670  0.00  0.00    +0.000 OA
ATOM     30  C   UNL     1      45.984   5.167  12.638  0.00  0.00    +0.000 A 
ATOM     31  H   UNL     1      45.692   1.933  13.146  0.00  0.00    +0.000 HD
ENDBRANCH  18  21
ENDBRANCH   1  17
TORSDOF 6
ENDMDL
MODEL 6
REMARK VINA RESULT:    -6.991      4.224      9.141
REMARK INTER + INTRA:         -10.603
REMARK INTER:                 -10.044
REMARK INTRA:                  -0.559
REMARK UNBOUND:                -1.161
REMARK  Name = 
REMARK  6 active torsions:
REMARK  status: ('A' for Active; 'I' for Inactive)
REMARK    1  A    between atoms: C_2  and  C_3
REMARK    2  A    between atoms: C_8  and  C_9
REMARK    3  A    between atoms: C_9  and  C_10
REMARK    4  A    between atoms: C_13  and  C_14
REMARK    5  A    between atoms: C_14  and  N_15
REMARK    6  A    between atoms: C_16  and  C_18
REMARK                            x       y       z     vdW  Elec       q    Type
REMARK                         _______ _______ _______ _____ _____    ______ ____
ROOT
ATOM      1  C   UNL     1      47.216   3.393  16.810  0.00  0.00    +0.000 C 
ENDROOT
BRANCH   1   5
ATOM      2  C   UNL     1      51.407   3.424  17.928  0.00  0.00    +0.000 A 
ATOM      3  C   UNL     1      50.649   4.606  17.985  0.00  0.00    +0.000 A 
ATOM      4  C   UNL     1      49.306   4.620  17.580  0.00  0.00    +0.000 A 
ATOM      5  C   UNL     1      48.697   3.455  17.097  0.00  0.00    +0.000 A 
ATOM      6  C   UNL     1      49.490   2.312  16.928  0.00  0.00    +0.000 A 
ATOM      7  C   UNL     1      50.826   2.292  17.347  0.00  0.00    +0.000 A 
BRANCH   2   8
ATOM      8  C   UNL     1      52.793   3.361  18.544  0.00  0.00    +0.000 C 
BRANCH   8  14
ATOM      9  C   UNL     1      54.748   2.390  17.155  0.00  0.00    +0.000 A 
ATOM     10  C   UNL     1      55.411   1.242  16.691  0.00  0.00    +0.000 A 
ATOM     11  C   UNL     1      55.009  -0.024  17.114  0.00  0.00    +0.000 A 
ATOM     12  C   UNL     1      53.955  -0.092  17.999  0.00  0.00    +0.000 A 
ATOM     13  N   UNL     1      53.273   0.983  18.445  0.00  0.00    +0.000 NA
ATOM     14  C   UNL     1      53.653   2.223  18.018  0.00  0.00    +0.000 A 
BRANCH   9  16
ATOM     15  N   UNL     1      55.648   4.727  16.495  0.00  0.00    +0.000 NA
ATOM     16  C   UNL     1      55.281   3.657  16.755  0.00  0.00    +0.000 C 
ENDBRANCH   9  16
ENDBRANCH   8  14
ENDBRANCH   2   8
ENDBRANCH   1   5
BRANCH   1  17
ATOM     17  N   UNL     1      46.788   4.375  15.848  0.00  0.00    +0.000 N 
ATOM     18  C   UNL     1      46.855   4.126  14.499  0.00  0.00    +0.000 C 
ATOM     19  O   UNL     1      47.229   3.049  14.045  0.00  0.00    +0.000 OA
ATOM     20  H   UNL     1      46.757   5.340  16.166  0.00  0.00    +0.000 HD
BRANCH  18  21
ATOM     21  C   UNL     1      46.390   5.205  13.620  0.00  0.00    +0.000 A 
ATOM     22  C   UNL     1      47.187   6.322  13.404  0.00  0.00    +0.000 A 
ATOM     23  S   UNL     1      46.491   7.462  12.343  0.00  0.00    +0.000 S 
ATOM     24  C   UNL     1      45.083   6.524  12.170  0.00  0.00    +0.000 A 
ATOM     25  N   UNL     1      44.043   6.955  11.406  0.00  0.00    +0.000 NA
ATOM     26  C   UNL     1      43.032   6.151  11.381  0.00  0.00    +0.000 A 
ATOM     27  N   UNL     1      42.972   4.950  12.037  0.00  0.00    +0.000 N 
ATOM     28  C   UNL     1      44.008   4.460  12.796  0.00  0.00    +0.000 A 
ATOM     29  O   UNL     1      43.941   3.357  13.328  0.00  0.00    +0.000 OA
ATOM     30  C   UNL     1      45.157   5.339  12.882  0.00  0.00    +0.000 A 
ATOM     31  H   UNL     1      42.158   4.358  11.962  0.00  0.00    +0.000 HD
ENDBRANCH  18  21
ENDBRANCH   1  17
TORSDOF 6
ENDMDL
MODEL 7
REMARK VINA RESULT:    -6.749      2.202      3.151
REMARK INTER + INTRA:         -10.277
REMARK INTER:                  -9.420
REMARK INTRA:                  -0.857
REMARK UNBOUND:                -1.161
REMARK  Name = 
REMARK  6 active torsions:
REMARK  status: ('A' for Active; 'I' for Inactive)
REMARK    1  A    between atoms: C_2  and  C_3
REMARK    2  A    between atoms: C_8  and  C_9
REMARK    3  A    between atoms: C_9  and  C_10
REMARK    4  A    between atoms: C_13  and  C_14
REMARK    5  A    between atoms: C_14  and  N_15
REMARK    6  A    between atoms: C_16  and  C_18
REMARK                            x       y       z     vdW  Elec       q    Type
REMARK                         _______ _______ _______ _____ _____    ______ ____
ROOT
ATOM      1  C   UNL     1      48.794   7.974  15.795  0.00  0.00    +0.000 C 
ENDROOT
BRANCH   1   5
ATOM      2  C   UNL     1      46.572   7.016  12.194  0.00  0.00    +0.000 A 
ATOM      3  C   UNL     1      47.453   6.076  12.755  0.00  0.00    +0.000 A 
ATOM      4  C   UNL     1      48.213   6.390  13.891  0.00  0.00    +0.000 A 
ATOM      5  C   UNL     1      48.118   7.656  14.481  0.00  0.00    +0.000 A 
ATOM      6  C   UNL     1      47.332   8.628  13.847  0.00  0.00    +0.000 A 
ATOM      7  C   UNL     1      46.560   8.311  12.723  0.00  0.00    +0.000 A 
BRANCH   2   8
ATOM      8  C   UNL     1      45.611   6.615  11.090  0.00  0.00    +0.000 C 
BRANCH   8  14
ATOM      9  C   UNL     1      44.702   4.296  10.388  0.00  0.00    +0.000 A 
ATOM     10  C   UNL     1      43.948   3.165  10.745  0.00  0.00    +0.000 A 
ATOM     11  C   UNL     1      43.432   3.039  12.034  0.00  0.00    +0.000 A 
ATOM     12  C   UNL     1      43.700   4.055  12.926  0.00  0.00    +0.000 A 
ATOM     13  N   UNL     1      44.394   5.169  12.615  0.00  0.00    +0.000 NA
ATOM     14  C   UNL     1      44.884   5.304  11.348  0.00  0.00    +0.000 A 
BRANCH   9  16
ATOM     15  N   UNL     1      45.799   4.400   8.045  0.00  0.00    +0.000 NA
ATOM     16  C   UNL     1      45.281   4.307   9.079  0.00  0.00    +0.000 C 
ENDBRANCH   9  16
ENDBRANCH   8  14
ENDBRANCH   2   8
ENDBRANCH   1   5
BRANCH   1  17
ATOM     17  N   UNL     1      49.786   7.000  16.166  0.00  0.00    +0.000 N 
ATOM     18  C   UNL     1      49.753   6.382  17.392  0.00  0.00    +0.000 C 
ATOM     19  O   UNL     1      48.858   6.584  18.208  0.00  0.00    +0.000 OA
ATOM     20  H   UNL     1      50.667   7.031  15.658  0.00  0.00    +0.000 HD
BRANCH  18  21
ATOM     21  C   UNL     1      50.820   5.410  17.654  0.00  0.00    +0.000 A 
ATOM     22  C   UNL     1      52.058   5.838  18.118  0.00  0.00    +0.000 A 
ATOM     23  S   UNL     1      53.165   4.568  18.380  0.00  0.00    +0.000 S 
ATOM     24  C   UNL     1      52.045   3.406  17.841  0.00  0.00    +0.000 A 
ATOM     25  N   UNL     1      52.379   2.089  17.776  0.00  0.00    +0.000 NA
ATOM     26  C   UNL     1      51.439   1.323  17.330  0.00  0.00    +0.000 A 
ATOM     27  N   UNL     1      50.192   1.752  16.958  0.00  0.00    +0.000 N 
ATOM     28  C   UNL     1      49.800   3.068  17.035  0.00  0.00    +0.000 A 
ATOM     29  O   UNL     1      48.659   3.410  16.743  0.00  0.00    +0.000 OA
ATOM     30  C   UNL     1      50.830   3.975  17.501  0.00  0.00    +0.000 A 
ATOM     31  H   UNL     1      49.494   1.100  16.635  0.00  0.00    +0.000 HD
ENDBRANCH  18  21
ENDBRANCH   1  17
TORSDOF 6
ENDMDL
MODEL 8
REMARK VINA RESULT:    -6.652      3.588      8.959
REMARK INTER + INTRA:         -10.146
REMARK INTER:                  -9.115
REMARK INTRA:                  -1.032
REMARK UNBOUND:                -1.161
REMARK  Name = 
REMARK  6 active torsions:
REMARK  status: ('A' for Active; 'I' for Inactive)
REMARK    1  A    between atoms: C_2  and  C_3
REMARK    2  A    between atoms: C_8  and  C_9
REMARK    3  A    between atoms: C_9  and  C_10
REMARK    4  A    between atoms: C_13  and  C_14
REMARK    5  A    between atoms: C_14  and  N_15
REMARK    6  A    between atoms: C_16  and  C_18
REMARK                            x       y       z     vdW  Elec       q    Type
REMARK                         _______ _______ _______ _____ _____    ______ ____
ROOT
ATOM      1  C   UNL     1      47.143   3.337  16.992  0.00  0.00    +0.000 C 
ENDROOT
BRANCH   1   5
ATOM      2  C   UNL     1      50.966   4.358  18.769  0.00  0.00    +0.000 A 
ATOM      3  C   UNL     1      50.882   3.342  17.803  0.00  0.00    +0.000 A 
ATOM      4  C   UNL     1      49.645   2.968  17.255  0.00  0.00    +0.000 A 
ATOM      5  C   UNL     1      48.466   3.596  17.674  0.00  0.00    +0.000 A 
ATOM      6  C   UNL     1      48.541   4.522  18.723  0.00  0.00    +0.000 A 
ATOM      7  C   UNL     1      49.776   4.907  19.258  0.00  0.00    +0.000 A 
BRANCH   2   8
ATOM      8  C   UNL     1      52.315   4.894  19.216  0.00  0.00    +0.000 C 
BRANCH   8  14
ATOM      9  C   UNL     1      54.345   3.813  18.030  0.00  0.00    +0.000 A 
ATOM     10  C   UNL     1      55.325   3.923  17.030  0.00  0.00    +0.000 A 
ATOM     11  C   UNL     1      55.317   5.004  16.150  0.00  0.00    +0.000 A 
ATOM     12  C   UNL     1      54.314   5.937  16.302  0.00  0.00    +0.000 A 
ATOM     13  N   UNL     1      53.372   5.883  17.267  0.00  0.00    +0.000 NA
ATOM     14  C   UNL     1      53.390   4.836  18.141  0.00  0.00    +0.000 A 
BRANCH   9  16
ATOM     15  N   UNL     1      54.295   1.702  19.530  0.00  0.00    +0.000 NA
ATOM     16  C   UNL     1      54.361   2.626  18.830  0.00  0.00    +0.000 C 
ENDBRANCH   9  16
ENDBRANCH   8  14
ENDBRANCH   2   8
ENDBRANCH   1   5
BRANCH   1  17
ATOM     17  N   UNL     1      46.805   4.342  16.018  0.00  0.00    +0.000 N 
ATOM     18  C   UNL     1      47.005   4.129  14.676  0.00  0.00    +0.000 C 
ATOM     19  O   UNL     1      47.428   3.065  14.234  0.00  0.00    +0.000 OA
ATOM     20  H   UNL     1      46.738   5.299  16.357  0.00  0.00    +0.000 HD
BRANCH  18  21
ATOM     21  C   UNL     1      46.623   5.230  13.784  0.00  0.00    +0.000 A 
ATOM     22  C   UNL     1      47.468   6.319  13.617  0.00  0.00    +0.000 A 
ATOM     23  S   UNL     1      46.865   7.490  12.532  0.00  0.00    +0.000 S 
ATOM     24  C   UNL     1      45.435   6.602  12.282  0.00  0.00    +0.000 A 
ATOM     25  N   UNL     1      44.449   7.075  11.472  0.00  0.00    +0.000 NA
ATOM     26  C   UNL     1      43.414   6.308  11.391  0.00  0.00    +0.000 A 
ATOM     27  N   UNL     1      43.279   5.105  12.034  0.00  0.00    +0.000 N 
ATOM     28  C   UNL     1      44.259   4.574  12.839  0.00  0.00    +0.000 A 
ATOM     29  O   UNL     1      44.127   3.471  13.358  0.00  0.00    +0.000 OA
ATOM     30  C   UNL     1      45.432   5.411  12.988  0.00  0.00    +0.000 A 
ATOM     31  H   UNL     1      42.450   4.543  11.915  0.00  0.00    +0.000 HD
ENDBRANCH  18  21
ENDBRANCH   1  17
TORSDOF 6
ENDMDL
MODEL 9
REMARK VINA RESULT:    -6.497      3.019      8.196
REMARK INTER + INTRA:          -9.937
REMARK INTER:                  -8.759
REMARK INTRA:                  -1.178
REMARK UNBOUND:                -1.161
REMARK  Name = 
REMARK  6 active torsions:
REMARK  status: ('A' for Active; 'I' for Inactive)
REMARK    1  A    between atoms: C_2  and  C_3
REMARK    2  A    between atoms: C_8  and  C_9
REMARK    3  A    between atoms: C_9  and  C_10
REMARK    4  A    between atoms: C_13  and  C_14
REMARK    5  A    between atoms: C_14  and  N_15
REMARK    6  A    between atoms: C_16  and  C_18
REMARK                            x       y       z     vdW  Elec       q    Type
REMARK                         _______ _______ _______ _____ _____    ______ ____
ROOT
ATOM      1  C   UNL     1      47.020   7.967  11.841  0.00  0.00    +0.000 C 
ENDROOT
BRANCH   1   5
ATOM      2  C   UNL     1      49.219   7.871  15.579  0.00  0.00    +0.000 A 
ATOM      3  C   UNL     1      48.246   8.860  15.354  0.00  0.00    +0.000 A 
ATOM      4  C   UNL     1      47.562   8.932  14.131  0.00  0.00    +0.000 A 
ATOM      5  C   UNL     1      47.847   8.024  13.104  0.00  0.00    +0.000 A 
ATOM      6  C   UNL     1      48.901   7.119  13.290  0.00  0.00    +0.000 A 
ATOM      7  C   UNL     1      49.573   7.036  14.515  0.00  0.00    +0.000 A 
BRANCH   2   8
ATOM      8  C   UNL     1      49.816   7.672  16.961  0.00  0.00    +0.000 C 
BRANCH   8  14
ATOM      9  C   UNL     1      50.759   5.314  17.455  0.00  0.00    +0.000 A 
ATOM     10  C   UNL     1      50.500   4.009  17.905  0.00  0.00    +0.000 A 
ATOM     11  C   UNL     1      49.242   3.670  18.400  0.00  0.00    +0.000 A 
ATOM     12  C   UNL     1      48.285   4.661  18.433  0.00  0.00    +0.000 A 
ATOM     13  N   UNL     1      48.485   5.918  17.984  0.00  0.00    +0.000 NA
ATOM     14  C   UNL     1      49.710   6.247  17.481  0.00  0.00    +0.000 A 
BRANCH   9  16
ATOM     15  N   UNL     1      53.203   5.892  16.822  0.00  0.00    +0.000 NA
ATOM     16  C   UNL     1      52.101   5.611  17.055  0.00  0.00    +0.000 C 
ENDBRANCH   9  16
ENDBRANCH   8  14
ENDBRANCH   2   8
ENDBRANCH   1   5
BRANCH   1  17
ATOM     17  N   UNL     1      46.452   6.667  11.599  0.00  0.00    +0.000 N 
ATOM     18  C   UNL     1      45.094   6.493  11.490  0.00  0.00    +0.000 C 
ATOM     19  O   UNL     1      44.303   7.430  11.541  0.00  0.00    +0.000 OA
ATOM     20  H   UNL     1      47.030   5.866  11.840  0.00  0.00    +0.000 HD
BRANCH  18  21
ATOM     21  C   UNL     1      44.637   5.121  11.243  0.00  0.00    +0.000 A 
ATOM     22  C   UNL     1      43.847   4.468  12.181  0.00  0.00    +0.000 A 
ATOM     23  S   UNL     1      43.400   2.889  11.716  0.00  0.00    +0.000 S 
ATOM     24  C   UNL     1      44.282   3.006  10.266  0.00  0.00    +0.000 A 
ATOM     25  N   UNL     1      44.350   1.959   9.401  0.00  0.00    +0.000 NA
ATOM     26  C   UNL     1      45.070   2.181   8.352  0.00  0.00    +0.000 A 
ATOM     27  N   UNL     1      45.716   3.359   8.082  0.00  0.00    +0.000 N 
ATOM     28  C   UNL     1      45.652   4.454   8.912  0.00  0.00    +0.000 A 
ATOM     29  O   UNL     1      46.199   5.511   8.615  0.00  0.00    +0.000 OA
ATOM     30  C   UNL     1      44.880   4.246  10.121  0.00  0.00    +0.000 A 
ATOM     31  H   UNL     1      46.249   3.477   7.234  0.00  0.00    +0.000 HD
ENDBRANCH  18  21
ENDBRANCH   1  17
TORSDOF 6
ENDMDL
