MODEL 1
REMARK VINA RESULT:    -7.076      0.000      0.000
REMARK INTER + INTRA:          -9.508
REMARK INTER:                  -8.937
REMARK INTRA:                  -0.571
REMARK UNBOUND:                -0.571
REMARK  Name = 
REMARK  5 active torsions:
REMARK  status: ('A' for Active; 'I' for Inactive)
REMARK    1  A    between atoms: N_1  and  C_2
REMARK    2  A    between atoms: C_2  and  C_3
REMARK    3  A    between atoms: C_6  and  O_7
REMARK    4  A    between atoms: O_7  and  C_8
REMARK    5  A    between atoms: C_8  and  C_9
REMARK                            x       y       z     vdW  Elec       q    Type
REMARK                         _______ _______ _______ _____ _____    ______ ____
ROOT
ATOM      1  C   UNL     1      46.557   2.265   7.584  0.00  0.00    +0.000 A 
ATOM      2  C   UNL     1      45.722   1.400   8.305  0.00  0.00    +0.000 A 
ATOM      3  C   UNL     1      44.781   1.896   9.210  0.00  0.00    +0.000 A 
ATOM      4  C   UNL     1      44.646   3.272   9.393  0.00  0.00    +0.000 A 
ATOM      5  C   UNL     1      45.495   4.133   8.696  0.00  0.00    +0.000 A 
ATOM      6  F   UNL     1      45.396   5.462   8.866  0.00  0.00    +0.000 F 
ATOM      7  C   UNL     1      46.441   3.644   7.796  0.00  0.00    +0.000 A 
ENDROOT
BRANCH   1   8
ATOM      8  C   UNL     1      47.567   1.705   6.618  0.00  0.00    +0.000 C 
BRANCH   8   9
ATOM      9  N   UNL     1      48.647   2.654   6.372  0.00  0.00    +0.000 NA
ATOM     10  H   UNL     1      48.824   3.186   7.221  0.00  0.00    +0.000 HD
ATOM     11  H   UNL     1      48.346   3.324   5.667  0.00  0.00    +0.000 HD
ENDBRANCH   8   9
ENDBRANCH   1   8
BRANCH   4  12
ATOM     12  O   UNL     1      43.731   3.853  10.231  0.00  0.00    +0.000 OA
BRANCH  12  13
ATOM     13  C   UNL     1      43.808   3.429  11.598  0.00  0.00    +0.000 C 
BRANCH  13  14
ATOM     14  C   UNL     1      44.990   4.044  12.307  0.00  0.00    +0.000 A 
ATOM     15  C   UNL     1      45.136   5.427  12.403  0.00  0.00    +0.000 A 
ATOM     16  C   UNL     1      46.198   5.942  13.138  0.00  0.00    +0.000 A 
ATOM     17  C   UNL     1      47.077   5.071  13.767  0.00  0.00    +0.000 A 
ATOM     18  C   UNL     1      46.859   3.711  13.633  0.00  0.00    +0.000 A 
ATOM     19  N   UNL     1      45.838   3.181  12.927  0.00  0.00    +0.000 NA
ENDBRANCH  13  14
ENDBRANCH  12  13
ENDBRANCH   4  12
TORSDOF 5
ENDMDL
MODEL 2
REMARK VINA RESULT:    -6.828      1.535      5.499
REMARK INTER + INTRA:          -9.196
REMARK INTER:                  -8.708
REMARK INTRA:                  -0.488
REMARK UNBOUND:                -0.571
REMARK  Name = 
REMARK  5 active torsions:
REMARK  status: ('A' for Active; 'I' for Inactive)
REMARK    1  A    between atoms: N_1  and  C_2
REMARK    2  A    between atoms: C_2  and  C_3
REMARK    3  A    between atoms: C_6  and  O_7
REMARK    4  A    between atoms: O_7  and  C_8
REMARK    5  A    between atoms: C_8  and  C_9
REMARK                            x       y       z     vdW  Elec       q    Type
REMARK                         _______ _______ _______ _____ _____    ______ ____
ROOT
ATOM      1  C   UNL     1      46.421   5.498  12.908  0.00  0.00    +0.000 A 
ATOM      2  C   UNL     1      45.632   4.367  13.166  0.00  0.00    +0.000 A 
ATOM      3  C   UNL     1      44.879   3.769  12.155  0.00  0.00    +0.000 A 
ATOM      4  C   UNL     1      44.916   4.283  10.858  0.00  0.00    +0.000 A 
ATOM      5  C   UNL     1      45.679   5.425  10.606  0.00  0.00    +0.000 A 
ATOM      6  F   UNL     1      45.721   5.948   9.370  0.00  0.00    +0.000 F 
ATOM      7  C   UNL     1      46.429   6.031  11.613  0.00  0.00    +0.000 A 
ENDROOT
BRANCH   1   8
ATOM      8  C   UNL     1      47.220   6.127  14.018  0.00  0.00    +0.000 C 
BRANCH   8   9
ATOM      9  N   UNL     1      47.570   5.148  15.040  0.00  0.00    +0.000 NA
ATOM     10  H   UNL     1      48.390   5.472  15.548  0.00  0.00    +0.000 HD
ATOM     11  H   UNL     1      47.837   4.276  14.586  0.00  0.00    +0.000 HD
ENDBRANCH   8   9
ENDBRANCH   1   8
BRANCH   4  12
ATOM     12  O   UNL     1      44.239   3.746   9.795  0.00  0.00    +0.000 OA
BRANCH  12  13
ATOM     13  C   UNL     1      44.563   2.383   9.498  0.00  0.00    +0.000 C 
BRANCH  13  14
ATOM     14  C   UNL     1      45.527   2.277   8.341  0.00  0.00    +0.000 A 
ATOM     15  C   UNL     1      45.705   3.334   7.449  0.00  0.00    +0.000 A 
ATOM     16  C   UNL     1      46.664   3.218   6.451  0.00  0.00    +0.000 A 
ATOM     17  C   UNL     1      47.430   2.062   6.372  0.00  0.00    +0.000 A 
ATOM     18  C   UNL     1      47.200   1.062   7.301  0.00  0.00    +0.000 A 
ATOM     19  N   UNL     1      46.277   1.145   8.281  0.00  0.00    +0.000 NA
ENDBRANCH  13  14
ENDBRANCH  12  13
ENDBRANCH   4  12
TORSDOF 5
ENDMDL
MODEL 3
REMARK VINA RESULT:    -6.715      1.651      2.334
REMARK INTER + INTRA:          -9.052
REMARK INTER:                  -8.721
REMARK INTRA:                  -0.331
REMARK UNBOUND:                -0.571
REMARK  Name = 
REMARK  5 active torsions:
REMARK  status: ('A' for Active; 'I' for Inactive)
REMARK    1  A    between atoms: N_1  and  C_2
REMARK    2  A    between atoms: C_2  and  C_3
REMARK    3  A    between atoms: C_6  and  O_7
REMARK    4  A    between atoms: O_7  and  C_8
REMARK    5  A    between atoms: C_8  and  C_9
REMARK                            x       y       z     vdW  Elec       q    Type
REMARK                         _______ _______ _______ _____ _____    ______ ____
ROOT
ATOM      1  C   UNL     1      46.657   2.340   7.625  0.00  0.00    +0.000 A 
ATOM      2  C   UNL     1      46.562   3.739   7.584  0.00  0.00    +0.000 A 
ATOM      3  C   UNL     1      45.592   4.416   8.325  0.00  0.00    +0.000 A 
ATOM      4  C   UNL     1      44.709   3.704   9.138  0.00  0.00    +0.000 A 
ATOM      5  C   UNL     1      44.785   2.310   9.158  0.00  0.00    +0.000 A 
ATOM      6  F   UNL     1      43.938   1.599   9.921  0.00  0.00    +0.000 F 
ATOM      7  C   UNL     1      45.747   1.627   8.415  0.00  0.00    +0.000 A 
ENDROOT
BRANCH   1   8
ATOM      8  C   UNL     1      47.708   1.633   6.812  0.00  0.00    +0.000 C 
BRANCH   8   9
ATOM      9  N   UNL     1      48.653   2.579   6.231  0.00  0.00    +0.000 NA
ATOM     10  H   UNL     1      48.212   3.494   6.163  0.00  0.00    +0.000 HD
ATOM     11  H   UNL     1      48.869   2.290   5.278  0.00  0.00    +0.000 HD
ENDBRANCH   8   9
ENDBRANCH   1   8
BRANCH   4  12
ATOM     12  O   UNL     1      43.748   4.281   9.926  0.00  0.00    +0.000 OA
BRANCH  12  13
ATOM     13  C   UNL     1      43.998   4.211  11.334  0.00  0.00    +0.000 C 
BRANCH  13  14
ATOM     14  C   UNL     1      44.828   5.378  11.813  0.00  0.00    +0.000 A 
ATOM     15  C   UNL     1      45.998   5.181  12.545  0.00  0.00    +0.000 A 
ATOM     16  C   UNL     1      46.770   6.285  12.890  0.00  0.00    +0.000 A 
ATOM     17  C   UNL     1      46.365   7.551  12.489  0.00  0.00    +0.000 A 
ATOM     18  C   UNL     1      45.197   7.663  11.756  0.00  0.00    +0.000 A 
ATOM     19  N   UNL     1      44.427   6.612  11.406  0.00  0.00    +0.000 NA
ENDBRANCH  13  14
ENDBRANCH  12  13
ENDBRANCH   4  12
TORSDOF 5
ENDMDL
MODEL 4
REMARK VINA RESULT:    -6.170      2.555      5.972
REMARK INTER + INTRA:          -8.364
REMARK INTER:                  -8.017
REMARK INTRA:                  -0.346
REMARK UNBOUND:                -0.571
REMARK  Name = 
REMARK  5 active torsions:
REMARK  status: ('A' for Active; 'I' for Inactive)
REMARK    1  A    between atoms: N_1  and  C_2
REMARK    2  A    between atoms: C_2  and  C_3
REMARK    3  A    between atoms: C_6  and  O_7
REMARK    4  A    between atoms: O_7  and  C_8
REMARK    5  A    between atoms: C_8  and  C_9
REMARK                            x       y       z     vdW  Elec       q    Type
REMARK                         _______ _______ _______ _____ _____    ______ ____
ROOT
ATOM      1  C   UNL     1      45.539   7.638  12.201  0.00  0.00    +0.000 A 
ATOM      2  C   UNL     1      44.540   7.322  11.269  0.00  0.00    +0.000 A 
ATOM      3  C   UNL     1      44.276   5.997  10.918  0.00  0.00    +0.000 A 
ATOM      4  C   UNL     1      44.997   4.960  11.511  0.00  0.00    +0.000 A 
ATOM      5  C   UNL     1      46.011   5.275  12.418  0.00  0.00    +0.000 A 
ATOM      6  F   UNL     1      46.730   4.296  12.992  0.00  0.00    +0.000 F 
ATOM      7  C   UNL     1      46.284   6.597  12.768  0.00  0.00    +0.000 A 
ENDROOT
BRANCH   1   8
ATOM      8  C   UNL     1      45.808   9.076  12.559  0.00  0.00    +0.000 C 
BRANCH   8   9
ATOM      9  N   UNL     1      44.567   9.826  12.704  0.00  0.00    +0.000 NA
ATOM     10  H   UNL     1      44.614  10.392  13.549  0.00  0.00    +0.000 HD
ATOM     11  H   UNL     1      43.797   9.172  12.836  0.00  0.00    +0.000 HD
ENDBRANCH   8   9
ENDBRANCH   1   8
BRANCH   4  12
ATOM     12  O   UNL     1      44.788   3.630  11.257  0.00  0.00    +0.000 OA
BRANCH  12  13
ATOM     13  C   UNL     1      44.212   3.343   9.977  0.00  0.00    +0.000 C 
BRANCH  13  14
ATOM     14  C   UNL     1      45.271   3.042   8.944  0.00  0.00    +0.000 A 
ATOM     15  C   UNL     1      45.717   1.739   8.724  0.00  0.00    +0.000 A 
ATOM     16  C   UNL     1      46.632   1.504   7.705  0.00  0.00    +0.000 A 
ATOM     17  C   UNL     1      47.069   2.565   6.923  0.00  0.00    +0.000 A 
ATOM     18  C   UNL     1      46.571   3.827   7.197  0.00  0.00    +0.000 A 
ATOM     19  N   UNL     1      45.683   4.087   8.179  0.00  0.00    +0.000 NA
ENDBRANCH  13  14
ENDBRANCH  12  13
ENDBRANCH   4  12
TORSDOF 5
ENDMDL
MODEL 5
REMARK VINA RESULT:    -6.127      2.232      5.757
REMARK INTER + INTRA:          -8.310
REMARK INTER:                  -8.064
REMARK INTRA:                  -0.246
REMARK UNBOUND:                -0.571
REMARK  Name = 
REMARK  5 active torsions:
REMARK  status: ('A' for Active; 'I' for Inactive)
REMARK    1  A    between atoms: N_1  and  C_2
REMARK    2  A    between atoms: C_2  and  C_3
REMARK    3  A    between atoms: C_6  and  O_7
REMARK    4  A    between atoms: O_7  and  C_8
REMARK    5  A    between atoms: C_8  and  C_9
REMARK                            x       y       z     vdW  Elec       q    Type
REMARK                         _______ _______ _______ _____ _____    ______ ____
ROOT
ATOM      1  C   UNL     1      45.410   6.201  12.234  0.00  0.00    +0.000 A 
ATOM      2  C   UNL     1      45.925   6.244  10.931  0.00  0.00    +0.000 A 
ATOM      3  C   UNL     1      45.507   5.331   9.961  0.00  0.00    +0.000 A 
ATOM      4  C   UNL     1      44.547   4.368  10.276  0.00  0.00    +0.000 A 
ATOM      5  C   UNL     1      44.054   4.307  11.580  0.00  0.00    +0.000 A 
ATOM      6  F   UNL     1      43.140   3.381  11.914  0.00  0.00    +0.000 F 
ATOM      7  C   UNL     1      44.472   5.212  12.555  0.00  0.00    +0.000 A 
ENDROOT
BRANCH   1   8
ATOM      8  C   UNL     1      45.882   7.195  13.263  0.00  0.00    +0.000 C 
BRANCH   8   9
ATOM      9  N   UNL     1      46.100   8.508  12.669  0.00  0.00    +0.000 NA
ATOM     10  H   UNL     1      46.724   8.415  11.871  0.00  0.00    +0.000 HD
ATOM     11  H   UNL     1      46.579   9.102  13.344  0.00  0.00    +0.000 HD
ENDBRANCH   8   9
ENDBRANCH   1   8
BRANCH   4  12
ATOM     12  O   UNL     1      44.051   3.453   9.385  0.00  0.00    +0.000 OA
BRANCH  12  13
ATOM     13  C   UNL     1      44.760   2.210   9.337  0.00  0.00    +0.000 C 
BRANCH  13  14
ATOM     14  C   UNL     1      45.700   2.149   8.156  0.00  0.00    +0.000 A 
ATOM     15  C   UNL     1      45.769   3.192   7.233  0.00  0.00    +0.000 A 
ATOM     16  C   UNL     1      46.708   3.124   6.211  0.00  0.00    +0.000 A 
ATOM     17  C   UNL     1      47.562   2.031   6.141  0.00  0.00    +0.000 A 
ATOM     18  C   UNL     1      47.438   1.042   7.102  0.00  0.00    +0.000 A 
ATOM     19  N   UNL     1      46.536   1.079   8.105  0.00  0.00    +0.000 NA
ENDBRANCH  13  14
ENDBRANCH  12  13
ENDBRANCH   4  12
TORSDOF 5
ENDMDL
MODEL 6
REMARK VINA RESULT:    -5.590      4.564      5.949
REMARK INTER + INTRA:          -7.632
REMARK INTER:                  -7.131
REMARK INTRA:                  -0.501
REMARK UNBOUND:                -0.571
REMARK  Name = 
REMARK  5 active torsions:
REMARK  status: ('A' for Active; 'I' for Inactive)
REMARK    1  A    between atoms: N_1  and  C_2
REMARK    2  A    between atoms: C_2  and  C_3
REMARK    3  A    between atoms: C_6  and  O_7
REMARK    4  A    between atoms: O_7  and  C_8
REMARK    5  A    between atoms: C_8  and  C_9
REMARK                            x       y       z     vdW  Elec       q    Type
REMARK                         _______ _______ _______ _____ _____    ______ ____
ROOT
ATOM      1  C   UNL     1      44.320   5.198  12.219  0.00  0.00    +0.000 A 
ATOM      2  C   UNL     1      44.862   6.478  12.401  0.00  0.00    +0.000 A 
ATOM      3  C   UNL     1      46.118   6.651  12.987  0.00  0.00    +0.000 A 
ATOM      4  C   UNL     1      46.863   5.541  13.384  0.00  0.00    +0.000 A 
ATOM      5  C   UNL     1      46.312   4.268  13.228  0.00  0.00    +0.000 A 
ATOM      6  F   UNL     1      47.003   3.182  13.615  0.00  0.00    +0.000 F 
ATOM      7  C   UNL     1      45.056   4.088  12.650  0.00  0.00    +0.000 A 
ENDROOT
BRANCH   1   8
ATOM      8  C   UNL     1      42.961   5.038  11.589  0.00  0.00    +0.000 C 
BRANCH   8   9
ATOM      9  N   UNL     1      42.171   6.256  11.720  0.00  0.00    +0.000 NA
ATOM     10  H   UNL     1      41.627   6.395  10.872  0.00  0.00    +0.000 HD
ATOM     11  H   UNL     1      42.800   7.054  11.795  0.00  0.00    +0.000 HD
ENDBRANCH   8   9
ENDBRANCH   1   8
BRANCH   4  12
ATOM     12  O   UNL     1      48.115   5.608  13.935  0.00  0.00    +0.000 OA
BRANCH  12  13
ATOM     13  C   UNL     1      48.164   6.155  15.258  0.00  0.00    +0.000 C 
BRANCH  13  14
ATOM     14  C   UNL     1      48.375   5.082  16.299  0.00  0.00    +0.000 A 
ATOM     15  C   UNL     1      47.323   4.271  16.724  0.00  0.00    +0.000 A 
ATOM     16  C   UNL     1      47.586   3.243  17.622  0.00  0.00    +0.000 A 
ATOM     17  C   UNL     1      48.887   3.041  18.063  0.00  0.00    +0.000 A 
ATOM     18  C   UNL     1      49.878   3.881  17.587  0.00  0.00    +0.000 A 
ATOM     19  N   UNL     1      49.654   4.887  16.716  0.00  0.00    +0.000 NA
ENDBRANCH  13  14
ENDBRANCH  12  13
ENDBRANCH   4  12
TORSDOF 5
ENDMDL
MODEL 7
REMARK VINA RESULT:    -5.316      3.702      5.548
REMARK INTER + INTRA:          -7.286
REMARK INTER:                  -6.911
REMARK INTRA:                  -0.375
REMARK UNBOUND:                -0.571
REMARK  Name = 
REMARK  5 active torsions:
REMARK  status: ('A' for Active; 'I' for Inactive)
REMARK    1  A    between atoms: N_1  and  C_2
REMARK    2  A    between atoms: C_2  and  C_3
REMARK    3  A    between atoms: C_6  and  O_7
REMARK    4  A    between atoms: O_7  and  C_8
REMARK    5  A    between atoms: C_8  and  C_9
REMARK                            x       y       z     vdW  Elec       q    Type
REMARK                         _______ _______ _______ _____ _____    ______ ____
ROOT
ATOM      1  C   UNL     1      45.064   4.259  11.631  0.00  0.00    +0.000 A 
ATOM      2  C   UNL     1      45.588   3.226  12.423  0.00  0.00    +0.000 A 
ATOM      3  C   UNL     1      46.486   3.497  13.456  0.00  0.00    +0.000 A 
ATOM      4  C   UNL     1      46.862   4.813  13.729  0.00  0.00    +0.000 A 
ATOM      5  C   UNL     1      46.363   5.838  12.924  0.00  0.00    +0.000 A 
ATOM      6  F   UNL     1      46.720   7.112  13.156  0.00  0.00    +0.000 F 
ATOM      7  C   UNL     1      45.470   5.574  11.886  0.00  0.00    +0.000 A 
ENDROOT
BRANCH   1   8
ATOM      8  C   UNL     1      44.101   3.940  10.519  0.00  0.00    +0.000 C 
BRANCH   8   9
ATOM      9  N   UNL     1      43.478   5.150   9.995  0.00  0.00    +0.000 NA
ATOM     10  H   UNL     1      43.894   5.962  10.445  0.00  0.00    +0.000 HD
ATOM     11  H   UNL     1      42.491   5.152  10.248  0.00  0.00    +0.000 HD
ENDBRANCH   8   9
ENDBRANCH   1   8
BRANCH   4  12
ATOM     12  O   UNL     1      47.710   5.179  14.741  0.00  0.00    +0.000 OA
BRANCH  12  13
ATOM     13  C   UNL     1      47.421   4.591  16.015  0.00  0.00    +0.000 C 
BRANCH  13  14
ATOM     14  C   UNL     1      48.635   3.915  16.605  0.00  0.00    +0.000 A 
ATOM     15  C   UNL     1      48.734   2.525  16.658  0.00  0.00    +0.000 A 
ATOM     16  C   UNL     1      49.907   1.951  17.134  0.00  0.00    +0.000 A 
ATOM     17  C   UNL     1      50.954   2.772  17.533  0.00  0.00    +0.000 A 
ATOM     18  C   UNL     1      50.783   4.142  17.440  0.00  0.00    +0.000 A 
ATOM     19  N   UNL     1      49.657   4.728  16.982  0.00  0.00    +0.000 NA
ENDBRANCH  13  14
ENDBRANCH  12  13
ENDBRANCH   4  12
TORSDOF 5
ENDMDL
MODEL 8
REMARK VINA RESULT:    -4.975      4.246      7.751
REMARK INTER + INTRA:          -6.854
REMARK INTER:                  -6.517
REMARK INTRA:                  -0.337
REMARK UNBOUND:                -0.571
REMARK  Name = 
REMARK  5 active torsions:
REMARK  status: ('A' for Active; 'I' for Inactive)
REMARK    1  A    between atoms: N_1  and  C_2
REMARK    2  A    between atoms: C_2  and  C_3
REMARK    3  A    between atoms: C_6  and  O_7
REMARK    4  A    between atoms: O_7  and  C_8
REMARK    5  A    between atoms: C_8  and  C_9
REMARK                            x       y       z     vdW  Elec       q    Type
REMARK                         _______ _______ _______ _____ _____    ______ ____
ROOT
ATOM      1  C   UNL     1      48.378   4.838  18.258  0.00  0.00    +0.000 A 
ATOM      2  C   UNL     1      47.795   3.694  17.691  0.00  0.00    +0.000 A 
ATOM      3  C   UNL     1      47.482   3.644  16.332  0.00  0.00    +0.000 A 
ATOM      4  C   UNL     1      47.766   4.735  15.509  0.00  0.00    +0.000 A 
ATOM      5  C   UNL     1      48.320   5.883  16.077  0.00  0.00    +0.000 A 
ATOM      6  F   UNL     1      48.589   6.952  15.309  0.00  0.00    +0.000 F 
ATOM      7  C   UNL     1      48.629   5.942  17.435  0.00  0.00    +0.000 A 
ENDROOT
BRANCH   1   8
ATOM      8  C   UNL     1      48.701   4.868  19.728  0.00  0.00    +0.000 C 
BRANCH   8   9
ATOM      9  N   UNL     1      48.275   3.640  20.389  0.00  0.00    +0.000 NA
ATOM     10  H   UNL     1      47.432   3.292  19.938  0.00  0.00    +0.000 HD
ATOM     11  H   UNL     1      48.021   3.853  21.352  0.00  0.00    +0.000 HD
ENDBRANCH   8   9
ENDBRANCH   1   8
BRANCH   4  12
ATOM     12  O   UNL     1      47.527   4.767  14.160  0.00  0.00    +0.000 OA
BRANCH  12  13
ATOM     13  C   UNL     1      46.775   3.658  13.653  0.00  0.00    +0.000 C 
BRANCH  13  14
ATOM     14  C   UNL     1      45.558   4.114  12.884  0.00  0.00    +0.000 A 
ATOM     15  C   UNL     1      45.572   5.295  12.143  0.00  0.00    +0.000 A 
ATOM     16  C   UNL     1      44.454   5.627  11.386  0.00  0.00    +0.000 A 
ATOM     17  C   UNL     1      43.359   4.773  11.376  0.00  0.00    +0.000 A 
ATOM     18  C   UNL     1      43.427   3.615  12.130  0.00  0.00    +0.000 A 
ATOM     19  N   UNL     1      44.497   3.265  12.874  0.00  0.00    +0.000 NA
ENDBRANCH  13  14
ENDBRANCH  12  13
ENDBRANCH   4  12
TORSDOF 5
ENDMDL
MODEL 9
REMARK VINA RESULT:    -4.942      3.471      5.046
REMARK INTER + INTRA:          -6.813
REMARK INTER:                  -6.462
REMARK INTRA:                  -0.351
REMARK UNBOUND:                -0.571
REMARK  Name = 
REMARK  5 active torsions:
REMARK  status: ('A' for Active; 'I' for Inactive)
REMARK    1  A    between atoms: N_1  and  C_2
REMARK    2  A    between atoms: C_2  and  C_3
REMARK    3  A    between atoms: C_6  and  O_7
REMARK    4  A    between atoms: O_7  and  C_8
REMARK    5  A    between atoms: C_8  and  C_9
REMARK                            x       y       z     vdW  Elec       q    Type
REMARK                         _______ _______ _______ _____ _____    ______ ____
ROOT
ATOM      1  C   UNL     1      44.678   3.940  11.435  0.00  0.00    +0.000 A 
ATOM      2  C   UNL     1      45.458   3.589  12.547  0.00  0.00    +0.000 A 
ATOM      3  C   UNL     1      46.218   4.544  13.224  0.00  0.00    +0.000 A 
ATOM      4  C   UNL     1      46.195   5.876  12.811  0.00  0.00    +0.000 A 
ATOM      5  C   UNL     1      45.443   6.222  11.687  0.00  0.00    +0.000 A 
ATOM      6  F   UNL     1      45.415   7.495  11.259  0.00  0.00    +0.000 F 
ATOM      7  C   UNL     1      44.686   5.272  11.003  0.00  0.00    +0.000 A 
ENDROOT
BRANCH   1   8
ATOM      8  C   UNL     1      43.872   2.890  10.719  0.00  0.00    +0.000 C 
BRANCH   8   9
ATOM      9  N   UNL     1      43.067   2.112  11.653  0.00  0.00    +0.000 NA
ATOM     10  H   UNL     1      43.601   1.954  12.505  0.00  0.00    +0.000 HD
ATOM     11  H   UNL     1      42.885   1.194  11.251  0.00  0.00    +0.000 HD
ENDBRANCH   8   9
ENDBRANCH   1   8
BRANCH   4  12
ATOM     12  O   UNL     1      46.880   6.888  13.430  0.00  0.00    +0.000 OA
BRANCH  12  13
ATOM     13  C   UNL     1      48.267   6.624  13.668  0.00  0.00    +0.000 C 
BRANCH  13  14
ATOM     14  C   UNL     1      48.594   6.639  15.142  0.00  0.00    +0.000 A 
ATOM     15  C   UNL     1      48.759   7.838  15.833  0.00  0.00    +0.000 A 
ATOM     16  C   UNL     1      48.977   7.799  17.206  0.00  0.00    +0.000 A 
ATOM     17  C   UNL     1      49.011   6.573  17.856  0.00  0.00    +0.000 A 
ATOM     18  C   UNL     1      48.828   5.427  17.101  0.00  0.00    +0.000 A 
ATOM     19  N   UNL     1      48.615   5.432  15.769  0.00  0.00    +0.000 NA
ENDBRANCH  13  14
ENDBRANCH  12  13
ENDBRANCH   4  12
TORSDOF 5
ENDMDL
