MODEL 1
REMARK VINA RESULT:    -8.542      0.000      0.000
REMARK INTER + INTRA:         -12.035
REMARK INTER:                 -11.039
REMARK INTRA:                  -0.996
REMARK UNBOUND:                -0.996
REMARK  Name = 
REMARK  5 active torsions:
REMARK  status: ('A' for Active; 'I' for Inactive)
REMARK    1  A    between atoms: C_2  and  C_4
REMARK    2  A    between atoms: C_7  and  S_8
REMARK    3  A    between atoms: S_8  and  C_9
REMARK    4  A    between atoms: C_9  and  C_10
REMARK    5  A    between atoms: C_14  and  C_15
REMARK                            x       y       z     vdW  Elec       q    Type
REMARK                         _______ _______ _______ _____ _____    ______ ____
ROOT
ATOM      1  C   UNL     1      43.942   4.145  12.198  0.00  0.00    +0.000 C 
ENDROOT
BRANCH   1   2
ATOM      2  C   UNL     1      45.300   4.589  12.687  0.00  0.00    +0.000 A 
ATOM      3  C   UNL     1      46.087   3.791  13.515  0.00  0.00    +0.000 A 
ATOM      4  C   UNL     1      47.312   4.281  13.931  0.00  0.00    +0.000 A 
ATOM      5  N   UNL     1      47.801   5.494  13.591  0.00  0.00    +0.000 NA
ATOM      6  C   UNL     1      47.040   6.280  12.787  0.00  0.00    +0.000 A 
ATOM      7  C   UNL     1      45.802   5.842  12.311  0.00  0.00    +0.000 A 
BRANCH   6   8
ATOM      8  C   UNL     1      47.604   7.600  12.447  0.00  0.00    +0.000 A 
ATOM      9  C   UNL     1      48.862   7.710  11.822  0.00  0.00    +0.000 A 
ATOM     10  C   UNL     1      49.396   8.956  11.471  0.00  0.00    +0.000 A 
ATOM     11  C   UNL     1      48.687  10.122  11.740  0.00  0.00    +0.000 A 
ATOM     12  C   UNL     1      47.450  10.044  12.370  0.00  0.00    +0.000 A 
ATOM     13  C   UNL     1      46.928   8.800  12.722  0.00  0.00    +0.000 A 
ATOM     14  F   UNL     1      45.745   8.794  13.357  0.00  0.00    +0.000 F 
ENDBRANCH   6   8
ENDBRANCH   1   2
BRANCH   1  15
ATOM     15  S   UNL     1      43.577   4.783  10.529  0.00  0.00    +0.000 S 
BRANCH  15  19
ATOM     16  C   UNL     1      46.428   2.460   7.749  0.00  0.00    +0.000 A 
ATOM     17  C   UNL     1      45.639   1.751   8.660  0.00  0.00    +0.000 A 
ATOM     18  C   UNL     1      44.769   2.434   9.521  0.00  0.00    +0.000 A 
ATOM     19  C   UNL     1      44.683   3.830   9.492  0.00  0.00    +0.000 A 
ATOM     20  C   UNL     1      45.472   4.531   8.569  0.00  0.00    +0.000 A 
ATOM     21  C   UNL     1      46.349   3.854   7.711  0.00  0.00    +0.000 A 
BRANCH  16  23
ATOM     22  N   UNL     1      48.465   2.482   6.413  0.00  0.00    +0.000 N 
ATOM     23  C   UNL     1      47.372   1.771   6.830  0.00  0.00    +0.000 C 
ATOM     24  O   UNL     1      47.204   0.610   6.485  0.00  0.00    +0.000 OA
ATOM     25  H   UNL     1      49.150   1.971   5.870  0.00  0.00    +0.000 HD
ATOM     26  H   UNL     1      48.771   3.323   6.878  0.00  0.00    +0.000 HD
ENDBRANCH  16  23
ENDBRANCH  15  19
ENDBRANCH   1  15
TORSDOF 5
ENDMDL
MODEL 2
REMARK VINA RESULT:    -8.316      1.611      2.003
REMARK INTER + INTRA:         -11.742
REMARK INTER:                 -11.005
REMARK INTRA:                  -0.737
REMARK UNBOUND:                -0.996
REMARK  Name = 
REMARK  5 active torsions:
REMARK  status: ('A' for Active; 'I' for Inactive)
REMARK    1  A    between atoms: C_2  and  C_4
REMARK    2  A    between atoms: C_7  and  S_8
REMARK    3  A    between atoms: S_8  and  C_9
REMARK    4  A    between atoms: C_9  and  C_10
REMARK    5  A    between atoms: C_14  and  C_15
REMARK                            x       y       z     vdW  Elec       q    Type
REMARK                         _______ _______ _______ _____ _____    ______ ____
ROOT
ATOM      1  C   UNL     1      44.637   6.167  11.096  0.00  0.00    +0.000 C 
ENDROOT
BRANCH   1   2
ATOM      2  C   UNL     1      45.732   5.775  12.058  0.00  0.00    +0.000 A 
ATOM      3  C   UNL     1      45.645   4.637  12.858  0.00  0.00    +0.000 A 
ATOM      4  C   UNL     1      46.686   4.358  13.724  0.00  0.00    +0.000 A 
ATOM      5  N   UNL     1      47.792   5.124  13.854  0.00  0.00    +0.000 NA
ATOM      6  C   UNL     1      47.886   6.236  13.081  0.00  0.00    +0.000 A 
ATOM      7  C   UNL     1      46.883   6.568  12.169  0.00  0.00    +0.000 A 
BRANCH   6   8
ATOM      8  C   UNL     1      49.103   7.050  13.260  0.00  0.00    +0.000 A 
ATOM      9  C   UNL     1      49.634   7.287  14.543  0.00  0.00    +0.000 A 
ATOM     10  C   UNL     1      50.803   8.037  14.722  0.00  0.00    +0.000 A 
ATOM     11  C   UNL     1      51.469   8.569  13.623  0.00  0.00    +0.000 A 
ATOM     12  C   UNL     1      50.959   8.364  12.346  0.00  0.00    +0.000 A 
ATOM     13  C   UNL     1      49.790   7.623  12.176  0.00  0.00    +0.000 A 
ATOM     14  F   UNL     1      49.331   7.488  10.921  0.00  0.00    +0.000 F 
ENDBRANCH   6   8
ENDBRANCH   1   2
BRANCH   1  15
ATOM     15  S   UNL     1      43.606   4.741  10.618  0.00  0.00    +0.000 S 
BRANCH  15  19
ATOM     16  C   UNL     1      46.436   2.442   7.797  0.00  0.00    +0.000 A 
ATOM     17  C   UNL     1      45.640   1.725   8.694  0.00  0.00    +0.000 A 
ATOM     18  C   UNL     1      44.776   2.399   9.568  0.00  0.00    +0.000 A 
ATOM     19  C   UNL     1      44.703   3.797   9.564  0.00  0.00    +0.000 A 
ATOM     20  C   UNL     1      45.499   4.507   8.654  0.00  0.00    +0.000 A 
ATOM     21  C   UNL     1      46.370   3.837   7.784  0.00  0.00    +0.000 A 
BRANCH  16  23
ATOM     22  N   UNL     1      48.423   2.499   6.389  0.00  0.00    +0.000 N 
ATOM     23  C   UNL     1      47.374   1.761   6.865  0.00  0.00    +0.000 C 
ATOM     24  O   UNL     1      47.239   0.584   6.562  0.00  0.00    +0.000 OA
ATOM     25  H   UNL     1      49.108   1.997   5.837  0.00  0.00    +0.000 HD
ATOM     26  H   UNL     1      48.712   3.365   6.817  0.00  0.00    +0.000 HD
ENDBRANCH  16  23
ENDBRANCH  15  19
ENDBRANCH   1  15
TORSDOF 5
ENDMDL
MODEL 3
REMARK VINA RESULT:    -8.122      2.093      3.828
REMARK INTER + INTRA:         -11.492
REMARK INTER:                 -11.076
REMARK INTRA:                  -0.416
REMARK UNBOUND:                -0.996
REMARK  Name = 
REMARK  5 active torsions:
REMARK  status: ('A' for Active; 'I' for Inactive)
REMARK    1  A    between atoms: C_2  and  C_4
REMARK    2  A    between atoms: C_7  and  S_8
REMARK    3  A    between atoms: S_8  and  C_9
REMARK    4  A    between atoms: C_9  and  C_10
REMARK    5  A    between atoms: C_14  and  C_15
REMARK                            x       y       z     vdW  Elec       q    Type
REMARK                         _______ _______ _______ _____ _____    ______ ____
ROOT
ATOM      1  C   UNL     1      44.265   4.260  12.273  0.00  0.00    +0.000 C 
ENDROOT
BRANCH   1   2
ATOM      2  C   UNL     1      45.531   4.874  12.819  0.00  0.00    +0.000 A 
ATOM      3  C   UNL     1      46.272   5.809  12.099  0.00  0.00    +0.000 A 
ATOM      4  C   UNL     1      47.429   6.310  12.666  0.00  0.00    +0.000 A 
ATOM      5  N   UNL     1      47.899   5.949  13.881  0.00  0.00    +0.000 NA
ATOM      6  C   UNL     1      47.185   5.037  14.589  0.00  0.00    +0.000 A 
ATOM      7  C   UNL     1      45.996   4.504  14.088  0.00  0.00    +0.000 A 
BRANCH   6   8
ATOM      8  C   UNL     1      47.736   4.662  15.906  0.00  0.00    +0.000 A 
ATOM      9  C   UNL     1      47.480   3.393  16.462  0.00  0.00    +0.000 A 
ATOM     10  C   UNL     1      48.019   3.016  17.699  0.00  0.00    +0.000 A 
ATOM     11  C   UNL     1      48.823   3.901  18.410  0.00  0.00    +0.000 A 
ATOM     12  C   UNL     1      49.079   5.165  17.892  0.00  0.00    +0.000 A 
ATOM     13  C   UNL     1      48.534   5.535  16.663  0.00  0.00    +0.000 A 
ATOM     14  F   UNL     1      48.791   6.781  16.233  0.00  0.00    +0.000 F 
ENDBRANCH   6   8
ENDBRANCH   1   2
BRANCH   1  15
ATOM     15  S   UNL     1      43.847   4.912  10.622  0.00  0.00    +0.000 S 
BRANCH  15  19
ATOM     16  C   UNL     1      46.448   2.458   7.712  0.00  0.00    +0.000 A 
ATOM     17  C   UNL     1      45.658   1.786   8.650  0.00  0.00    +0.000 A 
ATOM     18  C   UNL     1      44.863   2.509   9.550  0.00  0.00    +0.000 A 
ATOM     19  C   UNL     1      44.855   3.908   9.534  0.00  0.00    +0.000 A 
ATOM     20  C   UNL     1      45.645   4.571   8.584  0.00  0.00    +0.000 A 
ATOM     21  C   UNL     1      46.446   3.854   7.687  0.00  0.00    +0.000 A 
BRANCH  16  23
ATOM     22  N   UNL     1      48.325   2.433   6.160  0.00  0.00    +0.000 N 
ATOM     23  C   UNL     1      47.314   1.725   6.751  0.00  0.00    +0.000 C 
ATOM     24  O   UNL     1      47.156   0.534   6.520  0.00  0.00    +0.000 OA
ATOM     25  H   UNL     1      48.967   1.900   5.586  0.00  0.00    +0.000 HD
ATOM     26  H   UNL     1      48.646   3.319   6.520  0.00  0.00    +0.000 HD
ENDBRANCH  16  23
ENDBRANCH  15  19
ENDBRANCH   1  15
TORSDOF 5
ENDMDL
MODEL 4
REMARK VINA RESULT:    -7.929      1.594      2.334
REMARK INTER + INTRA:         -11.243
REMARK INTER:                 -10.314
REMARK INTRA:                  -0.929
REMARK UNBOUND:                -0.996
REMARK  Name = 
REMARK  5 active torsions:
REMARK  status: ('A' for Active; 'I' for Inactive)
REMARK    1  A    between atoms: C_2  and  C_4
REMARK    2  A    between atoms: C_7  and  S_8
REMARK    3  A    between atoms: S_8  and  C_9
REMARK    4  A    between atoms: C_9  and  C_10
REMARK    5  A    between atoms: C_14  and  C_15
REMARK                            x       y       z     vdW  Elec       q    Type
REMARK                         _______ _______ _______ _____ _____    ______ ____
ROOT
ATOM      1  C   UNL     1      44.804   4.154  12.282  0.00  0.00    +0.000 C 
ENDROOT
BRANCH   1   2
ATOM      2  C   UNL     1      45.289   5.580  12.185  0.00  0.00    +0.000 A 
ATOM      3  C   UNL     1      44.437   6.632  11.854  0.00  0.00    +0.000 A 
ATOM      4  C   UNL     1      44.966   7.907  11.771  0.00  0.00    +0.000 A 
ATOM      5  N   UNL     1      46.267   8.206  11.985  0.00  0.00    +0.000 NA
ATOM      6  C   UNL     1      47.106   7.187  12.306  0.00  0.00    +0.000 A 
ATOM      7  C   UNL     1      46.637   5.878  12.429  0.00  0.00    +0.000 A 
BRANCH   6   8
ATOM      8  C   UNL     1      48.518   7.553  12.523  0.00  0.00    +0.000 A 
ATOM      9  C   UNL     1      49.380   7.787  11.435  0.00  0.00    +0.000 A 
ATOM     10  C   UNL     1      50.717   8.159  11.628  0.00  0.00    +0.000 A 
ATOM     11  C   UNL     1      51.223   8.305  12.916  0.00  0.00    +0.000 A 
ATOM     12  C   UNL     1      50.398   8.065  14.009  0.00  0.00    +0.000 A 
ATOM     13  C   UNL     1      49.071   7.688  13.808  0.00  0.00    +0.000 A 
ATOM     14  F   UNL     1      48.335   7.439  14.904  0.00  0.00    +0.000 F 
ENDBRANCH   6   8
ENDBRANCH   1   2
BRANCH   1  15
ATOM     15  S   UNL     1      43.648   3.733  10.936  0.00  0.00    +0.000 S 
BRANCH  15  19
ATOM     16  C   UNL     1      46.521   2.712   7.477  0.00  0.00    +0.000 A 
ATOM     17  C   UNL     1      46.182   4.048   7.708  0.00  0.00    +0.000 A 
ATOM     18  C   UNL     1      45.305   4.385   8.748  0.00  0.00    +0.000 A 
ATOM     19  C   UNL     1      44.748   3.394   9.564  0.00  0.00    +0.000 A 
ATOM     20  C   UNL     1      45.102   2.057   9.330  0.00  0.00    +0.000 A 
ATOM     21  C   UNL     1      45.971   1.715   8.287  0.00  0.00    +0.000 A 
BRANCH  16  23
ATOM     22  N   UNL     1      47.378   3.054   5.223  0.00  0.00    +0.000 N 
ATOM     23  C   UNL     1      47.436   2.316   6.375  0.00  0.00    +0.000 C 
ATOM     24  O   UNL     1      48.232   1.395   6.497  0.00  0.00    +0.000 OA
ATOM     25  H   UNL     1      48.074   2.838   4.519  0.00  0.00    +0.000 HD
ATOM     26  H   UNL     1      46.941   3.962   5.185  0.00  0.00    +0.000 HD
ENDBRANCH  16  23
ENDBRANCH  15  19
ENDBRANCH   1  15
TORSDOF 5
ENDMDL
MODEL 5
REMARK VINA RESULT:    -7.837      3.798      7.267
REMARK INTER + INTRA:         -11.124
REMARK INTER:                 -10.470
REMARK INTRA:                  -0.653
REMARK UNBOUND:                -0.996
REMARK  Name = 
REMARK  5 active torsions:
REMARK  status: ('A' for Active; 'I' for Inactive)
REMARK    1  A    between atoms: C_2  and  C_4
REMARK    2  A    between atoms: C_7  and  S_8
REMARK    3  A    between atoms: S_8  and  C_9
REMARK    4  A    between atoms: C_9  and  C_10
REMARK    5  A    between atoms: C_14  and  C_15
REMARK                            x       y       z     vdW  Elec       q    Type
REMARK                         _______ _______ _______ _____ _____    ______ ____
ROOT
ATOM      1  C   UNL     1      45.826   7.581  12.063  0.00  0.00    +0.000 C 
ENDROOT
BRANCH   1   2
ATOM      2  C   UNL     1      45.048   6.496  11.358  0.00  0.00    +0.000 A 
ATOM      3  C   UNL     1      43.698   6.265  11.617  0.00  0.00    +0.000 A 
ATOM      4  C   UNL     1      43.064   5.240  10.939  0.00  0.00    +0.000 A 
ATOM      5  N   UNL     1      43.670   4.435  10.038  0.00  0.00    +0.000 NA
ATOM      6  C   UNL     1      44.986   4.651   9.781  0.00  0.00    +0.000 A 
ATOM      7  C   UNL     1      45.685   5.682  10.412  0.00  0.00    +0.000 A 
BRANCH   6   8
ATOM      8  C   UNL     1      45.613   3.746   8.799  0.00  0.00    +0.000 A 
ATOM      9  C   UNL     1      46.338   4.256   7.705  0.00  0.00    +0.000 A 
ATOM     10  C   UNL     1      46.958   3.407   6.780  0.00  0.00    +0.000 A 
ATOM     11  C   UNL     1      46.868   2.026   6.928  0.00  0.00    +0.000 A 
ATOM     12  C   UNL     1      46.145   1.495   7.990  0.00  0.00    +0.000 A 
ATOM     13  C   UNL     1      45.524   2.347   8.902  0.00  0.00    +0.000 A 
ATOM     14  F   UNL     1      44.815   1.773   9.887  0.00  0.00    +0.000 F 
ENDBRANCH   6   8
ENDBRANCH   1   2
BRANCH   1  15
ATOM     15  S   UNL     1      47.596   7.166  12.210  0.00  0.00    +0.000 S 
BRANCH  15  19
ATOM     16  C   UNL     1      47.580   4.556  16.010  0.00  0.00    +0.000 A 
ATOM     17  C   UNL     1      48.322   5.742  16.002  0.00  0.00    +0.000 A 
ATOM     18  C   UNL     1      48.349   6.550  14.857  0.00  0.00    +0.000 A 
ATOM     19  C   UNL     1      47.647   6.181  13.704  0.00  0.00    +0.000 A 
ATOM     20  C   UNL     1      46.900   4.994  13.726  0.00  0.00    +0.000 A 
ATOM     21  C   UNL     1      46.875   4.180  14.865  0.00  0.00    +0.000 A 
BRANCH  16  23
ATOM     22  N   UNL     1      48.602   3.731  18.062  0.00  0.00    +0.000 N 
ATOM     23  C   UNL     1      47.539   3.668  17.202  0.00  0.00    +0.000 C 
ATOM     24  O   UNL     1      46.586   2.936  17.427  0.00  0.00    +0.000 OA
ATOM     25  H   UNL     1      48.516   3.197  18.918  0.00  0.00    +0.000 HD
ATOM     26  H   UNL     1      49.259   4.497  18.053  0.00  0.00    +0.000 HD
ENDBRANCH  16  23
ENDBRANCH  15  19
ENDBRANCH   1  15
TORSDOF 5
ENDMDL
MODEL 6
REMARK VINA RESULT:    -7.182      3.830      7.347
REMARK INTER + INTRA:         -10.277
REMARK INTER:                  -9.754
REMARK INTRA:                  -0.523
REMARK UNBOUND:                -0.996
REMARK  Name = 
REMARK  5 active torsions:
REMARK  status: ('A' for Active; 'I' for Inactive)
REMARK    1  A    between atoms: C_2  and  C_4
REMARK    2  A    between atoms: C_7  and  S_8
REMARK    3  A    between atoms: S_8  and  C_9
REMARK    4  A    between atoms: C_9  and  C_10
REMARK    5  A    between atoms: C_14  and  C_15
REMARK                            x       y       z     vdW  Elec       q    Type
REMARK                         _______ _______ _______ _____ _____    ______ ____
ROOT
ATOM      1  C   UNL     1      44.983   6.755  12.221  0.00  0.00    +0.000 C 
ENDROOT
BRANCH   1   2
ATOM      2  C   UNL     1      44.536   5.458  11.592  0.00  0.00    +0.000 A 
ATOM      3  C   UNL     1      43.402   4.774  12.028  0.00  0.00    +0.000 A 
ATOM      4  C   UNL     1      43.072   3.583  11.408  0.00  0.00    +0.000 A 
ATOM      5  N   UNL     1      43.782   3.028  10.401  0.00  0.00    +0.000 NA
ATOM      6  C   UNL     1      44.890   3.685   9.971  0.00  0.00    +0.000 A 
ATOM      7  C   UNL     1      45.272   4.903  10.536  0.00  0.00    +0.000 A 
BRANCH   6   8
ATOM      8  C   UNL     1      45.643   3.042   8.877  0.00  0.00    +0.000 A 
ATOM      9  C   UNL     1      45.718   1.639   8.778  0.00  0.00    +0.000 A 
ATOM     10  C   UNL     1      46.409   1.017   7.730  0.00  0.00    +0.000 A 
ATOM     11  C   UNL     1      47.043   1.784   6.758  0.00  0.00    +0.000 A 
ATOM     12  C   UNL     1      46.998   3.171   6.840  0.00  0.00    +0.000 A 
ATOM     13  C   UNL     1      46.315   3.783   7.890  0.00  0.00    +0.000 A 
ATOM     14  F   UNL     1      46.336   5.125   7.932  0.00  0.00    +0.000 F 
ENDBRANCH   6   8
ENDBRANCH   1   2
BRANCH   1  15
ATOM     15  S   UNL     1      46.800   6.899  12.269  0.00  0.00    +0.000 S 
BRANCH  15  19
ATOM     16  C   UNL     1      48.029   4.845  16.210  0.00  0.00    +0.000 A 
ATOM     17  C   UNL     1      47.130   4.198  15.357  0.00  0.00    +0.000 A 
ATOM     18  C   UNL     1      46.734   4.804  14.156  0.00  0.00    +0.000 A 
ATOM     19  C   UNL     1      47.222   6.066  13.796  0.00  0.00    +0.000 A 
ATOM     20  C   UNL     1      48.130   6.702  14.655  0.00  0.00    +0.000 A 
ATOM     21  C   UNL     1      48.522   6.104  15.859  0.00  0.00    +0.000 A 
BRANCH  16  23
ATOM     22  N   UNL     1      47.651   4.444  18.582  0.00  0.00    +0.000 N 
ATOM     23  C   UNL     1      48.460   4.240  17.497  0.00  0.00    +0.000 C 
ATOM     24  O   UNL     1      49.472   3.559  17.582  0.00  0.00    +0.000 OA
ATOM     25  H   UNL     1      47.902   3.945  19.427  0.00  0.00    +0.000 HD
ATOM     26  H   UNL     1      46.697   4.760  18.493  0.00  0.00    +0.000 HD
ENDBRANCH  16  23
ENDBRANCH  15  19
ENDBRANCH   1  15
TORSDOF 5
ENDMDL
MODEL 7
REMARK VINA RESULT:    -6.998      3.429      6.830
REMARK INTER + INTRA:         -10.039
REMARK INTER:                  -9.390
REMARK INTRA:                  -0.649
REMARK UNBOUND:                -0.996
REMARK  Name = 
REMARK  5 active torsions:
REMARK  status: ('A' for Active; 'I' for Inactive)
REMARK    1  A    between atoms: C_2  and  C_4
REMARK    2  A    between atoms: C_7  and  S_8
REMARK    3  A    between atoms: S_8  and  C_9
REMARK    4  A    between atoms: C_9  and  C_10
REMARK    5  A    between atoms: C_14  and  C_15
REMARK                            x       y       z     vdW  Elec       q    Type
REMARK                         _______ _______ _______ _____ _____    ______ ____
ROOT
ATOM      1  C   UNL     1      44.700   5.730  12.912  0.00  0.00    +0.000 C 
ENDROOT
BRANCH   1   2
ATOM      2  C   UNL     1      44.396   4.530  12.049  0.00  0.00    +0.000 A 
ATOM      3  C   UNL     1      43.403   3.610  12.381  0.00  0.00    +0.000 A 
ATOM      4  C   UNL     1      43.200   2.529  11.544  0.00  0.00    +0.000 A 
ATOM      5  N   UNL     1      43.908   2.297  10.416  0.00  0.00    +0.000 NA
ATOM      6  C   UNL     1      44.879   3.186  10.085  0.00  0.00    +0.000 A 
ATOM      7  C   UNL     1      45.125   4.312  10.872  0.00  0.00    +0.000 A 
BRANCH   6   8
ATOM      8  C   UNL     1      45.635   2.892   8.853  0.00  0.00    +0.000 A 
ATOM      9  C   UNL     1      46.003   1.573   8.527  0.00  0.00    +0.000 A 
ATOM     10  C   UNL     1      46.699   1.279   7.347  0.00  0.00    +0.000 A 
ATOM     11  C   UNL     1      47.045   2.299   6.466  0.00  0.00    +0.000 A 
ATOM     12  C   UNL     1      46.708   3.613   6.771  0.00  0.00    +0.000 A 
ATOM     13  C   UNL     1      46.021   3.898   7.950  0.00  0.00    +0.000 A 
ATOM     14  F   UNL     1      45.753   5.189   8.203  0.00  0.00    +0.000 F 
ENDBRANCH   6   8
ENDBRANCH   1   2
BRANCH   1  15
ATOM     15  S   UNL     1      44.998   7.229  11.916  0.00  0.00    +0.000 S 
BRANCH  15  19
ATOM     16  C   UNL     1      49.458   8.205  12.556  0.00  0.00    +0.000 A 
ATOM     17  C   UNL     1      49.022   6.886  12.710  0.00  0.00    +0.000 A 
ATOM     18  C   UNL     1      47.670   6.563  12.527  0.00  0.00    +0.000 A 
ATOM     19  C   UNL     1      46.735   7.553  12.201  0.00  0.00    +0.000 A 
ATOM     20  C   UNL     1      47.186   8.871  12.041  0.00  0.00    +0.000 A 
ATOM     21  C   UNL     1      48.534   9.200  12.229  0.00  0.00    +0.000 A 
BRANCH  16  23
ATOM     22  N   UNL     1      51.827   7.784  12.175  0.00  0.00    +0.000 N 
ATOM     23  C   UNL     1      50.881   8.586  12.755  0.00  0.00    +0.000 C 
ATOM     24  O   UNL     1      51.198   9.589  13.379  0.00  0.00    +0.000 OA
ATOM     25  H   UNL     1      52.784   8.109  12.233  0.00  0.00    +0.000 HD
ATOM     26  H   UNL     1      51.601   7.124  11.447  0.00  0.00    +0.000 HD
ENDBRANCH  16  23
ENDBRANCH  15  19
ENDBRANCH   1  15
TORSDOF 5
ENDMDL
MODEL 8
REMARK VINA RESULT:    -6.254      4.928      7.262
REMARK INTER + INTRA:          -9.078
REMARK INTER:                  -8.061
REMARK INTRA:                  -1.017
REMARK UNBOUND:                -0.996
REMARK  Name = 
REMARK  5 active torsions:
REMARK  status: ('A' for Active; 'I' for Inactive)
REMARK    1  A    between atoms: C_2  and  C_4
REMARK    2  A    between atoms: C_7  and  S_8
REMARK    3  A    between atoms: S_8  and  C_9
REMARK    4  A    between atoms: C_9  and  C_10
REMARK    5  A    between atoms: C_14  and  C_15
REMARK                            x       y       z     vdW  Elec       q    Type
REMARK                         _______ _______ _______ _____ _____    ______ ____
ROOT
ATOM      1  C   UNL     1      48.696   8.107  15.416  0.00  0.00    +0.000 C 
ENDROOT
BRANCH   1   2
ATOM      2  C   UNL     1      48.940   7.272  16.649  0.00  0.00    +0.000 A 
ATOM      3  C   UNL     1      48.483   7.658  17.909  0.00  0.00    +0.000 A 
ATOM      4  C   UNL     1      48.764   6.842  18.989  0.00  0.00    +0.000 A 
ATOM      5  N   UNL     1      49.461   5.687  18.910  0.00  0.00    +0.000 NA
ATOM      6  C   UNL     1      49.912   5.303  17.688  0.00  0.00    +0.000 A 
ATOM      7  C   UNL     1      49.647   6.066  16.548  0.00  0.00    +0.000 A 
BRANCH   6   8
ATOM      8  C   UNL     1      50.676   4.042  17.644  0.00  0.00    +0.000 A 
ATOM      9  C   UNL     1      52.040   4.011  17.993  0.00  0.00    +0.000 A 
ATOM     10  C   UNL     1      52.770   2.815  17.980  0.00  0.00    +0.000 A 
ATOM     11  C   UNL     1      52.152   1.622  17.615  0.00  0.00    +0.000 A 
ATOM     12  C   UNL     1      50.811   1.627  17.251  0.00  0.00    +0.000 A 
ATOM     13  C   UNL     1      50.093   2.823  17.259  0.00  0.00    +0.000 A 
ATOM     14  F   UNL     1      48.810   2.767  16.866  0.00  0.00    +0.000 F 
ENDBRANCH   6   8
ENDBRANCH   1   2
BRANCH   1  15
ATOM     15  S   UNL     1      48.988   7.162  13.883  0.00  0.00    +0.000 S 
BRANCH  15  19
ATOM     16  C   UNL     1      44.999   4.958  13.183  0.00  0.00    +0.000 A 
ATOM     17  C   UNL     1      45.142   6.269  12.720  0.00  0.00    +0.000 A 
ATOM     18  C   UNL     1      46.342   6.964  12.926  0.00  0.00    +0.000 A 
ATOM     19  C   UNL     1      47.409   6.365  13.605  0.00  0.00    +0.000 A 
ATOM     20  C   UNL     1      47.258   5.046  14.058  0.00  0.00    +0.000 A 
ATOM     21  C   UNL     1      46.058   4.350  13.861  0.00  0.00    +0.000 A 
BRANCH  16  23
ATOM     22  N   UNL     1      43.853   2.873  12.664  0.00  0.00    +0.000 N 
ATOM     23  C   UNL     1      43.737   4.196  12.995  0.00  0.00    +0.000 C 
ATOM     24  O   UNL     1      42.641   4.712  13.162  0.00  0.00    +0.000 OA
ATOM     25  H   UNL     1      42.991   2.342  12.637  0.00  0.00    +0.000 HD
ATOM     26  H   UNL     1      44.714   2.360  12.782  0.00  0.00    +0.000 HD
ENDBRANCH  16  23
ENDBRANCH  15  19
ENDBRANCH   1  15
TORSDOF 5
ENDMDL
MODEL 9
REMARK VINA RESULT:    -6.250      3.466      5.853
REMARK INTER + INTRA:          -9.073
REMARK INTER:                  -8.053
REMARK INTRA:                  -1.020
REMARK UNBOUND:                -0.996
REMARK  Name = 
REMARK  5 active torsions:
REMARK  status: ('A' for Active; 'I' for Inactive)
REMARK    1  A    between atoms: C_2  and  C_4
REMARK    2  A    between atoms: C_7  and  S_8
REMARK    3  A    between atoms: S_8  and  C_9
REMARK    4  A    between atoms: C_9  and  C_10
REMARK    5  A    between atoms: C_14  and  C_15
REMARK                            x       y       z     vdW  Elec       q    Type
REMARK                         _______ _______ _______ _____ _____    ______ ____
ROOT
ATOM      1  C   UNL     1      48.110   8.399  12.842  0.00  0.00    +0.000 C 
ENDROOT
BRANCH   1   2
ATOM      2  C   UNL     1      48.304   8.120  14.313  0.00  0.00    +0.000 A 
ATOM      3  C   UNL     1      48.297   9.135  15.268  0.00  0.00    +0.000 A 
ATOM      4  C   UNL     1      48.499   8.794  16.592  0.00  0.00    +0.000 A 
ATOM      5  N   UNL     1      48.711   7.533  17.030  0.00  0.00    +0.000 NA
ATOM      6  C   UNL     1      48.722   6.537  16.107  0.00  0.00    +0.000 A 
ATOM      7  C   UNL     1      48.503   6.805  14.754  0.00  0.00    +0.000 A 
BRANCH   6   8
ATOM      8  C   UNL     1      48.965   5.177  16.622  0.00  0.00    +0.000 A 
ATOM      9  C   UNL     1      50.186   4.845  17.240  0.00  0.00    +0.000 A 
ATOM     10  C   UNL     1      50.419   3.563  17.755  0.00  0.00    +0.000 A 
ATOM     11  C   UNL     1      49.436   2.583  17.664  0.00  0.00    +0.000 A 
ATOM     12  C   UNL     1      48.227   2.879  17.046  0.00  0.00    +0.000 A 
ATOM     13  C   UNL     1      48.005   4.155  16.529  0.00  0.00    +0.000 A 
ATOM     14  F   UNL     1      46.830   4.368  15.915  0.00  0.00    +0.000 F 
ENDBRANCH   6   8
ENDBRANCH   1   2
BRANCH   1  15
ATOM     15  S   UNL     1      46.368   8.761  12.441  0.00  0.00    +0.000 S 
BRANCH  15  19
ATOM     16  C   UNL     1      44.625   4.565  11.660  0.00  0.00    +0.000 A 
ATOM     17  C   UNL     1      45.501   5.122  10.724  0.00  0.00    +0.000 A 
ATOM     18  C   UNL     1      46.040   6.399  10.934  0.00  0.00    +0.000 A 
ATOM     19  C   UNL     1      45.703   7.140  12.073  0.00  0.00    +0.000 A 
ATOM     20  C   UNL     1      44.830   6.567  13.010  0.00  0.00    +0.000 A 
ATOM     21  C   UNL     1      44.284   5.294  12.801  0.00  0.00    +0.000 A 
BRANCH  16  23
ATOM     22  N   UNL     1      43.871   2.438  12.577  0.00  0.00    +0.000 N 
ATOM     23  C   UNL     1      44.024   3.219  11.464  0.00  0.00    +0.000 C 
ATOM     24  O   UNL     1      43.649   2.835  10.365  0.00  0.00    +0.000 OA
ATOM     25  H   UNL     1      43.371   1.567  12.446  0.00  0.00    +0.000 HD
ATOM     26  H   UNL     1      43.917   2.815  13.512  0.00  0.00    +0.000 HD
ENDBRANCH  16  23
ENDBRANCH  15  19
ENDBRANCH   1  15
TORSDOF 5
ENDMDL
