MODEL 1
REMARK VINA RESULT:    -8.374      0.000      0.000
REMARK INTER + INTRA:         -12.837
REMARK INTER:                 -11.556
REMARK INTRA:                  -1.281
REMARK UNBOUND:                -1.281
REMARK  Name = 
REMARK  8 active torsions:
REMARK  status: ('A' for Active; 'I' for Inactive)
REMARK    1  A    between atoms: C_1  and  C_2
REMARK    2  A    between atoms: C_2  and  C_3
REMARK    3  A    between atoms: C_7  and  C_8
REMARK    4  A    between atoms: C_8  and  C_9
REMARK    5  A    between atoms: C_9  and  N_10
REMARK    6  A    between atoms: N_10  and  C_11
REMARK    7  A    between atoms: C_14  and  C_15
REMARK    8  A    between atoms: C_23  and  O_24
REMARK                            x       y       z     vdW  Elec       q    Type
REMARK                         _______ _______ _______ _____ _____    ______ ____
ROOT
ATOM      1  C   UNL     1      46.965   6.377  13.009  0.00  0.00    +0.000 A 
ATOM      2  C   UNL     1      47.515   5.185  13.506  0.00  0.00    +0.000 A 
ATOM      3  C   UNL     1      46.737   4.029  13.634  0.00  0.00    +0.000 A 
ATOM      4  C   UNL     1      45.389   4.038  13.275  0.00  0.00    +0.000 A 
ATOM      5  C   UNL     1      44.806   5.199  12.763  0.00  0.00    +0.000 A 
ATOM      6  C   UNL     1      45.618   6.339  12.625  0.00  0.00    +0.000 A 
ENDROOT
BRANCH   1   8
ATOM      7  C   UNL     1      46.748   8.848  12.913  0.00  0.00    +0.000 C 
ATOM      8  C   UNL     1      47.778   7.694  12.969  0.00  0.00    +0.000 C 
ATOM      9  C   UNL     1      48.666   7.805  14.235  0.00  0.00    +0.000 C 
ATOM     10  C   UNL     1      49.610   9.014  14.231  0.00  0.00    +0.000 C 
ATOM     11  C   UNL     1      50.470   9.105  12.973  0.00  0.00    +0.000 C 
ATOM     12  C   UNL     1      49.634   9.011  11.702  0.00  0.00    +0.000 C 
ATOM     13  C   UNL     1      48.704   7.799  11.714  0.00  0.00    +0.000 C 
BRANCH  11  14
ATOM     14  O   UNL     1      51.463   8.081  12.979  0.00  0.00    +0.000 OA
ATOM     15  H   UNL     1      51.085   7.275  13.369  0.00  0.00    +0.000 HD
ENDBRANCH  11  14
ENDBRANCH   1   8
BRANCH   5  16
ATOM     16  C   UNL     1      43.324   5.222  12.422  0.00  0.00    +0.000 C 
BRANCH  16  17
ATOM     17  C   UNL     1      42.973   4.465  11.132  0.00  0.00    +0.000 C 
BRANCH  17  18
ATOM     18  N   UNL     1      43.692   4.950   9.963  0.00  0.00    +0.000 N 
ATOM     19  H   UNL     1      43.156   5.557   9.349  0.00  0.00    +0.000 HD
BRANCH  18  20
ATOM     20  C   UNL     1      44.487   4.036   9.253  0.00  0.00    +0.000 A 
ATOM     21  C   UNL     1      44.502   2.652   9.496  0.00  0.00    +0.000 A 
ATOM     22  C   UNL     1      45.382   1.803   8.817  0.00  0.00    +0.000 A 
ATOM     23  C   UNL     1      46.289   2.324   7.894  0.00  0.00    +0.000 A 
ATOM     24  C   UNL     1      46.312   3.702   7.664  0.00  0.00    +0.000 A 
ATOM     25  C   UNL     1      45.418   4.544   8.339  0.00  0.00    +0.000 A 
BRANCH  23  26
ATOM     26  C   UNL     1      47.233   1.391   7.227  0.00  0.00    +0.000 C 
ATOM     27  N   UNL     1      48.247   1.937   6.491  0.00  0.00    +0.000 N 
ATOM     28  O   UNL     1      47.099   0.174   7.300  0.00  0.00    +0.000 OA
ATOM     29  H   UNL     1      48.256   2.906   6.210  0.00  0.00    +0.000 HD
ATOM     30  H   UNL     1      48.816   1.288   5.964  0.00  0.00    +0.000 HD
ENDBRANCH  23  26
ENDBRANCH  18  20
ENDBRANCH  17  18
ENDBRANCH  16  17
ENDBRANCH   5  16
TORSDOF 7
ENDMDL
MODEL 2
REMARK VINA RESULT:    -8.113      1.070      1.742
REMARK INTER + INTRA:         -12.478
REMARK INTER:                 -11.383
REMARK INTRA:                  -1.095
REMARK UNBOUND:                -1.281
REMARK  Name = 
REMARK  8 active torsions:
REMARK  status: ('A' for Active; 'I' for Inactive)
REMARK    1  A    between atoms: C_1  and  C_2
REMARK    2  A    between atoms: C_2  and  C_3
REMARK    3  A    between atoms: C_7  and  C_8
REMARK    4  A    between atoms: C_8  and  C_9
REMARK    5  A    between atoms: C_9  and  N_10
REMARK    6  A    between atoms: N_10  and  C_11
REMARK    7  A    between atoms: C_14  and  C_15
REMARK    8  A    between atoms: C_23  and  O_24
REMARK                            x       y       z     vdW  Elec       q    Type
REMARK                         _______ _______ _______ _____ _____    ______ ____
ROOT
ATOM      1  C   UNL     1      48.297   7.183  12.525  0.00  0.00    +0.000 A 
ATOM      2  C   UNL     1      48.378   6.258  13.578  0.00  0.00    +0.000 A 
ATOM      3  C   UNL     1      47.295   5.429  13.895  0.00  0.00    +0.000 A 
ATOM      4  C   UNL     1      46.104   5.510  13.172  0.00  0.00    +0.000 A 
ATOM      5  C   UNL     1      45.988   6.406  12.108  0.00  0.00    +0.000 A 
ATOM      6  C   UNL     1      47.099   7.211  11.799  0.00  0.00    +0.000 A 
ENDROOT
BRANCH   1   8
ATOM      7  C   UNL     1      48.774   9.461  11.662  0.00  0.00    +0.000 C 
ATOM      8  C   UNL     1      49.439   8.186  12.234  0.00  0.00    +0.000 C 
ATOM      9  C   UNL     1      50.209   8.503  13.543  0.00  0.00    +0.000 C 
ATOM     10  C   UNL     1      51.445   9.389  13.340  0.00  0.00    +0.000 C 
ATOM     11  C   UNL     1      52.404   8.855  12.279  0.00  0.00    +0.000 C 
ATOM     12  C   UNL     1      51.690   8.541  10.971  0.00  0.00    +0.000 C 
ATOM     13  C   UNL     1      50.465   7.651  11.184  0.00  0.00    +0.000 C 
BRANCH  11  14
ATOM     14  O   UNL     1      53.074   7.692  12.760  0.00  0.00    +0.000 OA
ATOM     15  H   UNL     1      52.448   6.949  12.777  0.00  0.00    +0.000 HD
ENDBRANCH  11  14
ENDBRANCH   1   8
BRANCH   5  16
ATOM     16  C   UNL     1      44.672   6.530  11.356  0.00  0.00    +0.000 C 
BRANCH  16  17
ATOM     17  C   UNL     1      43.911   5.203  11.215  0.00  0.00    +0.000 C 
BRANCH  17  18
ATOM     18  N   UNL     1      43.671   4.818   9.832  0.00  0.00    +0.000 N 
ATOM     19  H   UNL     1      42.725   4.507   9.629  0.00  0.00    +0.000 HD
BRANCH  18  20
ATOM     20  C   UNL     1      44.643   4.035   9.189  0.00  0.00    +0.000 A 
ATOM     21  C   UNL     1      45.568   4.537   8.258  0.00  0.00    +0.000 A 
ATOM     22  C   UNL     1      46.454   3.691   7.583  0.00  0.00    +0.000 A 
ATOM     23  C   UNL     1      46.417   2.315   7.805  0.00  0.00    +0.000 A 
ATOM     24  C   UNL     1      45.482   1.794   8.701  0.00  0.00    +0.000 A 
ATOM     25  C   UNL     1      44.607   2.649   9.383  0.00  0.00    +0.000 A 
BRANCH  23  26
ATOM     26  C   UNL     1      47.349   1.450   7.035  0.00  0.00    +0.000 C 
ATOM     27  N   UNL     1      48.458   2.040   6.497  0.00  0.00    +0.000 N 
ATOM     28  O   UNL     1      47.125   0.258   6.855  0.00  0.00    +0.000 OA
ATOM     29  H   UNL     1      48.559   3.040   6.416  0.00  0.00    +0.000 HD
ATOM     30  H   UNL     1      49.025   1.458   5.894  0.00  0.00    +0.000 HD
ENDBRANCH  23  26
ENDBRANCH  18  20
ENDBRANCH  17  18
ENDBRANCH  16  17
ENDBRANCH   5  16
TORSDOF 7
ENDMDL
MODEL 3
REMARK VINA RESULT:    -7.845      2.187      3.216
REMARK INTER + INTRA:         -12.107
REMARK INTER:                 -11.017
REMARK INTRA:                  -1.091
REMARK UNBOUND:                -1.281
REMARK  Name = 
REMARK  8 active torsions:
REMARK  status: ('A' for Active; 'I' for Inactive)
REMARK    1  A    between atoms: C_1  and  C_2
REMARK    2  A    between atoms: C_2  and  C_3
REMARK    3  A    between atoms: C_7  and  C_8
REMARK    4  A    between atoms: C_8  and  C_9
REMARK    5  A    between atoms: C_9  and  N_10
REMARK    6  A    between atoms: N_10  and  C_11
REMARK    7  A    between atoms: C_14  and  C_15
REMARK    8  A    between atoms: C_23  and  O_24
REMARK                            x       y       z     vdW  Elec       q    Type
REMARK                         _______ _______ _______ _____ _____    ______ ____
ROOT
ATOM      1  C   UNL     1      48.381   7.151  13.922  0.00  0.00    +0.000 A 
ATOM      2  C   UNL     1      49.013   7.771  12.833  0.00  0.00    +0.000 A 
ATOM      3  C   UNL     1      48.530   7.609  11.529  0.00  0.00    +0.000 A 
ATOM      4  C   UNL     1      47.406   6.819  11.283  0.00  0.00    +0.000 A 
ATOM      5  C   UNL     1      46.740   6.196  12.339  0.00  0.00    +0.000 A 
ATOM      6  C   UNL     1      47.235   6.394  13.641  0.00  0.00    +0.000 A 
ENDROOT
BRANCH   1   8
ATOM      7  C   UNL     1      50.506   7.271  15.199  0.00  0.00    +0.000 C 
ATOM      8  C   UNL     1      48.967   7.223  15.353  0.00  0.00    +0.000 C 
ATOM      9  C   UNL     1      48.443   8.492  16.074  0.00  0.00    +0.000 C 
ATOM     10  C   UNL     1      48.863   8.590  17.547  0.00  0.00    +0.000 C 
ATOM     11  C   UNL     1      48.520   7.342  18.357  0.00  0.00    +0.000 C 
ATOM     12  C   UNL     1      49.028   6.071  17.688  0.00  0.00    +0.000 C 
ATOM     13  C   UNL     1      48.597   5.979  16.225  0.00  0.00    +0.000 C 
BRANCH  11  14
ATOM     14  O   UNL     1      47.111   7.257  18.560  0.00  0.00    +0.000 OA
ATOM     15  H   UNL     1      46.679   7.997  18.102  0.00  0.00    +0.000 HD
ENDBRANCH  11  14
ENDBRANCH   1   8
BRANCH   5  16
ATOM     16  C   UNL     1      45.548   5.292  12.063  0.00  0.00    +0.000 C 
BRANCH  16  17
ATOM     17  C   UNL     1      44.600   5.831  10.980  0.00  0.00    +0.000 C 
BRANCH  17  18
ATOM     18  N   UNL     1      43.933   4.782  10.222  0.00  0.00    +0.000 N 
ATOM     19  H   UNL     1      43.253   4.238  10.745  0.00  0.00    +0.000 HD
BRANCH  18  20
ATOM     20  C   UNL     1      44.715   3.988   9.370  0.00  0.00    +0.000 A 
ATOM     21  C   UNL     1      44.802   2.588   9.457  0.00  0.00    +0.000 A 
ATOM     22  C   UNL     1      45.668   1.859   8.636  0.00  0.00    +0.000 A 
ATOM     23  C   UNL     1      46.492   2.518   7.723  0.00  0.00    +0.000 A 
ATOM     24  C   UNL     1      46.445   3.912   7.646  0.00  0.00    +0.000 A 
ATOM     25  C   UNL     1      45.565   4.634   8.462  0.00  0.00    +0.000 A 
BRANCH  23  26
ATOM     26  C   UNL     1      47.427   1.706   6.901  0.00  0.00    +0.000 C 
ATOM     27  N   UNL     1      48.512   2.342   6.368  0.00  0.00    +0.000 N 
ATOM     28  O   UNL     1      47.224   0.518   6.676  0.00  0.00    +0.000 OA
ATOM     29  H   UNL     1      48.591   3.347   6.326  0.00  0.00    +0.000 HD
ATOM     30  H   UNL     1      49.080   1.798   5.731  0.00  0.00    +0.000 HD
ENDBRANCH  23  26
ENDBRANCH  18  20
ENDBRANCH  17  18
ENDBRANCH  16  17
ENDBRANCH   5  16
TORSDOF 7
ENDMDL
MODEL 4
REMARK VINA RESULT:    -7.673      2.922      3.937
REMARK INTER + INTRA:         -11.870
REMARK INTER:                 -10.878
REMARK INTRA:                  -0.992
REMARK UNBOUND:                -1.281
REMARK  Name = 
REMARK  8 active torsions:
REMARK  status: ('A' for Active; 'I' for Inactive)
REMARK    1  A    between atoms: C_1  and  C_2
REMARK    2  A    between atoms: C_2  and  C_3
REMARK    3  A    between atoms: C_7  and  C_8
REMARK    4  A    between atoms: C_8  and  C_9
REMARK    5  A    between atoms: C_9  and  N_10
REMARK    6  A    between atoms: N_10  and  C_11
REMARK    7  A    between atoms: C_14  and  C_15
REMARK    8  A    between atoms: C_23  and  O_24
REMARK                            x       y       z     vdW  Elec       q    Type
REMARK                         _______ _______ _______ _____ _____    ______ ____
ROOT
ATOM      1  C   UNL     1      47.700   5.177  15.312  0.00  0.00    +0.000 A 
ATOM      2  C   UNL     1      48.193   6.320  14.662  0.00  0.00    +0.000 A 
ATOM      3  C   UNL     1      47.782   6.647  13.364  0.00  0.00    +0.000 A 
ATOM      4  C   UNL     1      46.872   5.836  12.684  0.00  0.00    +0.000 A 
ATOM      5  C   UNL     1      46.346   4.700  13.299  0.00  0.00    +0.000 A 
ATOM      6  C   UNL     1      46.761   4.408  14.611  0.00  0.00    +0.000 A 
ENDROOT
BRANCH   1   8
ATOM      7  C   UNL     1      48.171   3.190  16.722  0.00  0.00    +0.000 C 
ATOM      8  C   UNL     1      48.229   4.737  16.698  0.00  0.00    +0.000 C 
ATOM      9  C   UNL     1      49.683   5.240  16.891  0.00  0.00    +0.000 C 
ATOM     10  C   UNL     1      50.257   4.967  18.288  0.00  0.00    +0.000 C 
ATOM     11  C   UNL     1      49.367   5.478  19.417  0.00  0.00    +0.000 C 
ATOM     12  C   UNL     1      47.928   4.998  19.272  0.00  0.00    +0.000 C 
ATOM     13  C   UNL     1      47.365   5.282  17.880  0.00  0.00    +0.000 C 
BRANCH  11  14
ATOM     14  O   UNL     1      49.402   6.904  19.466  0.00  0.00    +0.000 OA
ATOM     15  H   UNL     1      49.104   7.198  20.342  0.00  0.00    +0.000 HD
ENDBRANCH  11  14
ENDBRANCH   1   8
BRANCH   5  16
ATOM     16  C   UNL     1      45.396   3.789  12.536  0.00  0.00    +0.000 C 
BRANCH  16  17
ATOM     17  C   UNL     1      44.353   4.544  11.699  0.00  0.00    +0.000 C 
BRANCH  17  18
ATOM     18  N   UNL     1      43.787   3.746  10.622  0.00  0.00    +0.000 N 
ATOM     19  H   UNL     1      43.174   2.992  10.919  0.00  0.00    +0.000 HD
BRANCH  18  20
ATOM     20  C   UNL     1      44.637   3.363   9.571  0.00  0.00    +0.000 A 
ATOM     21  C   UNL     1      44.992   2.033   9.291  0.00  0.00    +0.000 A 
ATOM     22  C   UNL     1      45.914   1.721   8.286  0.00  0.00    +0.000 A 
ATOM     23  C   UNL     1      46.524   2.739   7.553  0.00  0.00    +0.000 A 
ATOM     24  C   UNL     1      46.209   4.069   7.840  0.00  0.00    +0.000 A 
ATOM     25  C   UNL     1      45.275   4.372   8.839  0.00  0.00    +0.000 A 
BRANCH  23  26
ATOM     26  C   UNL     1      47.528   2.364   6.524  0.00  0.00    +0.000 C 
ATOM     27  N   UNL     1      47.429   2.960   5.299  0.00  0.00    +0.000 N 
ATOM     28  O   UNL     1      48.397   1.527   6.744  0.00  0.00    +0.000 OA
ATOM     29  H   UNL     1      46.606   3.462   5.001  0.00  0.00    +0.000 HD
ATOM     30  H   UNL     1      48.057   2.618   4.583  0.00  0.00    +0.000 HD
ENDBRANCH  23  26
ENDBRANCH  18  20
ENDBRANCH  17  18
ENDBRANCH  16  17
ENDBRANCH   5  16
TORSDOF 7
ENDMDL
MODEL 5
REMARK VINA RESULT:    -7.628      2.719      3.943
REMARK INTER + INTRA:         -11.808
REMARK INTER:                 -10.882
REMARK INTRA:                  -0.926
REMARK UNBOUND:                -1.281
REMARK  Name = 
REMARK  8 active torsions:
REMARK  status: ('A' for Active; 'I' for Inactive)
REMARK    1  A    between atoms: C_1  and  C_2
REMARK    2  A    between atoms: C_2  and  C_3
REMARK    3  A    between atoms: C_7  and  C_8
REMARK    4  A    between atoms: C_8  and  C_9
REMARK    5  A    between atoms: C_9  and  N_10
REMARK    6  A    between atoms: N_10  and  C_11
REMARK    7  A    between atoms: C_14  and  C_15
REMARK    8  A    between atoms: C_23  and  O_24
REMARK                            x       y       z     vdW  Elec       q    Type
REMARK                         _______ _______ _______ _____ _____    ______ ____
ROOT
ATOM      1  C   UNL     1      47.711   5.527  15.116  0.00  0.00    +0.000 A 
ATOM      2  C   UNL     1      48.268   6.682  14.544  0.00  0.00    +0.000 A 
ATOM      3  C   UNL     1      47.853   7.140  13.288  0.00  0.00    +0.000 A 
ATOM      4  C   UNL     1      46.874   6.449  12.571  0.00  0.00    +0.000 A 
ATOM      5  C   UNL     1      46.284   5.305  13.109  0.00  0.00    +0.000 A 
ATOM      6  C   UNL     1      46.706   4.881  14.382  0.00  0.00    +0.000 A 
ENDROOT
BRANCH   1   8
ATOM      7  C   UNL     1      47.525   5.714  17.583  0.00  0.00    +0.000 C 
ATOM      8  C   UNL     1      48.239   4.943  16.448  0.00  0.00    +0.000 C 
ATOM      9  C   UNL     1      47.918   3.427  16.522  0.00  0.00    +0.000 C 
ATOM     10  C   UNL     1      48.514   2.723  17.748  0.00  0.00    +0.000 C 
ATOM     11  C   UNL     1      50.014   2.954  17.907  0.00  0.00    +0.000 C 
ATOM     12  C   UNL     1      50.373   4.434  17.851  0.00  0.00    +0.000 C 
ATOM     13  C   UNL     1      49.781   5.123  16.622  0.00  0.00    +0.000 C 
BRANCH  11  14
ATOM     14  O   UNL     1      50.733   2.240  16.902  0.00  0.00    +0.000 OA
ATOM     15  H   UNL     1      50.505   1.297  16.958  0.00  0.00    +0.000 HD
ENDBRANCH  11  14
ENDBRANCH   1   8
BRANCH   5  16
ATOM     16  C   UNL     1      45.257   4.524  12.303  0.00  0.00    +0.000 C 
BRANCH  16  17
ATOM     17  C   UNL     1      44.381   5.404  11.398  0.00  0.00    +0.000 C 
BRANCH  17  18
ATOM     18  N   UNL     1      43.879   4.706  10.224  0.00  0.00    +0.000 N 
ATOM     19  H   UNL     1      43.016   4.190  10.365  0.00  0.00    +0.000 HD
BRANCH  18  20
ATOM     20  C   UNL     1      44.801   4.004   9.432  0.00  0.00    +0.000 A 
ATOM     21  C   UNL     1      45.673   4.611   8.512  0.00  0.00    +0.000 A 
ATOM     22  C   UNL     1      46.507   3.850   7.687  0.00  0.00    +0.000 A 
ATOM     23  C   UNL     1      46.469   2.456   7.743  0.00  0.00    +0.000 A 
ATOM     24  C   UNL     1      45.584   1.834   8.627  0.00  0.00    +0.000 A 
ATOM     25  C   UNL     1      44.762   2.604   9.460  0.00  0.00    +0.000 A 
BRANCH  23  26
ATOM     26  C   UNL     1      47.342   1.688   6.819  0.00  0.00    +0.000 C 
ATOM     27  N   UNL     1      48.356   2.363   6.201  0.00  0.00    +0.000 N 
ATOM     28  O   UNL     1      47.149   0.500   6.585  0.00  0.00    +0.000 OA
ATOM     29  H   UNL     1      48.406   3.371   6.176  0.00  0.00    +0.000 HD
ATOM     30  H   UNL     1      48.875   1.848   5.501  0.00  0.00    +0.000 HD
ENDBRANCH  23  26
ENDBRANCH  18  20
ENDBRANCH  17  18
ENDBRANCH  16  17
ENDBRANCH   5  16
TORSDOF 7
ENDMDL
MODEL 6
REMARK VINA RESULT:    -7.011      4.731      7.995
REMARK INTER + INTRA:         -10.956
REMARK INTER:                 -10.146
REMARK INTRA:                  -0.810
REMARK UNBOUND:                -1.281
REMARK  Name = 
REMARK  8 active torsions:
REMARK  status: ('A' for Active; 'I' for Inactive)
REMARK    1  A    between atoms: C_1  and  C_2
REMARK    2  A    between atoms: C_2  and  C_3
REMARK    3  A    between atoms: C_7  and  C_8
REMARK    4  A    between atoms: C_8  and  C_9
REMARK    5  A    between atoms: C_9  and  N_10
REMARK    6  A    between atoms: N_10  and  C_11
REMARK    7  A    between atoms: C_14  and  C_15
REMARK    8  A    between atoms: C_23  and  O_24
REMARK                            x       y       z     vdW  Elec       q    Type
REMARK                         _______ _______ _______ _____ _____    ______ ____
ROOT
ATOM      1  C   UNL     1      46.899   6.058  12.507  0.00  0.00    +0.000 A 
ATOM      2  C   UNL     1      47.308   7.012  11.563  0.00  0.00    +0.000 A 
ATOM      3  C   UNL     1      48.408   7.843  11.806  0.00  0.00    +0.000 A 
ATOM      4  C   UNL     1      49.121   7.744  13.002  0.00  0.00    +0.000 A 
ATOM      5  C   UNL     1      48.755   6.798  13.962  0.00  0.00    +0.000 A 
ATOM      6  C   UNL     1      47.660   5.963  13.681  0.00  0.00    +0.000 A 
ENDROOT
BRANCH   1   8
ATOM      7  C   UNL     1      45.942   3.790  12.826  0.00  0.00    +0.000 C 
ATOM      8  C   UNL     1      45.618   5.211  12.307  0.00  0.00    +0.000 C 
ATOM      9  C   UNL     1      44.443   5.837  13.101  0.00  0.00    +0.000 C 
ATOM     10  C   UNL     1      43.093   5.147  12.866  0.00  0.00    +0.000 C 
ATOM     11  C   UNL     1      42.727   5.024  11.389  0.00  0.00    +0.000 C 
ATOM     12  C   UNL     1      43.852   4.402  10.572  0.00  0.00    +0.000 C 
ATOM     13  C   UNL     1      45.189   5.103  10.808  0.00  0.00    +0.000 C 
BRANCH  11  14
ATOM     14  O   UNL     1      42.388   6.304  10.857  0.00  0.00    +0.000 OA
ATOM     15  H   UNL     1      41.641   6.204  10.243  0.00  0.00    +0.000 HD
ENDBRANCH  11  14
ENDBRANCH   1   8
BRANCH   5  16
ATOM     16  C   UNL     1      49.500   6.728  15.286  0.00  0.00    +0.000 C 
BRANCH  16  17
ATOM     17  C   UNL     1      48.606   6.965  16.513  0.00  0.00    +0.000 C 
BRANCH  17  18
ATOM     18  N   UNL     1      48.235   5.739  17.204  0.00  0.00    +0.000 N 
ATOM     19  H   UNL     1      47.783   5.871  18.105  0.00  0.00    +0.000 HD
BRANCH  18  20
ATOM     20  C   UNL     1      49.163   4.686  17.219  0.00  0.00    +0.000 A 
ATOM     21  C   UNL     1      48.840   3.347  16.940  0.00  0.00    +0.000 A 
ATOM     22  C   UNL     1      49.791   2.328  17.059  0.00  0.00    +0.000 A 
ATOM     23  C   UNL     1      51.086   2.622  17.486  0.00  0.00    +0.000 A 
ATOM     24  C   UNL     1      51.416   3.942  17.800  0.00  0.00    +0.000 A 
ATOM     25  C   UNL     1      50.462   4.959  17.666  0.00  0.00    +0.000 A 
BRANCH  23  26
ATOM     26  C   UNL     1      52.051   1.502  17.637  0.00  0.00    +0.000 C 
ATOM     27  N   UNL     1      51.561   0.302  18.068  0.00  0.00    +0.000 N 
ATOM     28  O   UNL     1      53.248   1.647  17.418  0.00  0.00    +0.000 OA
ATOM     29  H   UNL     1      50.647   0.202  18.483  0.00  0.00    +0.000 HD
ATOM     30  H   UNL     1      52.247  -0.417  18.261  0.00  0.00    +0.000 HD
ENDBRANCH  23  26
ENDBRANCH  18  20
ENDBRANCH  17  18
ENDBRANCH  16  17
ENDBRANCH   5  16
TORSDOF 7
ENDMDL
MODEL 7
REMARK VINA RESULT:    -6.907      4.933      8.327
REMARK INTER + INTRA:         -10.813
REMARK INTER:                  -9.921
REMARK INTRA:                  -0.892
REMARK UNBOUND:                -1.281
REMARK  Name = 
REMARK  8 active torsions:
REMARK  status: ('A' for Active; 'I' for Inactive)
REMARK    1  A    between atoms: C_1  and  C_2
REMARK    2  A    between atoms: C_2  and  C_3
REMARK    3  A    between atoms: C_7  and  C_8
REMARK    4  A    between atoms: C_8  and  C_9
REMARK    5  A    between atoms: C_9  and  N_10
REMARK    6  A    between atoms: N_10  and  C_11
REMARK    7  A    between atoms: C_14  and  C_15
REMARK    8  A    between atoms: C_23  and  O_24
REMARK                            x       y       z     vdW  Elec       q    Type
REMARK                         _______ _______ _______ _____ _____    ______ ____
ROOT
ATOM      1  C   UNL     1      46.694   6.017  12.456  0.00  0.00    +0.000 A 
ATOM      2  C   UNL     1      47.288   6.943  11.584  0.00  0.00    +0.000 A 
ATOM      3  C   UNL     1      48.401   7.695  11.978  0.00  0.00    +0.000 A 
ATOM      4  C   UNL     1      48.941   7.546  13.256  0.00  0.00    +0.000 A 
ATOM      5  C   UNL     1      48.388   6.626  14.149  0.00  0.00    +0.000 A 
ATOM      6  C   UNL     1      47.285   5.868  13.718  0.00  0.00    +0.000 A 
ENDROOT
BRANCH   1   8
ATOM      7  C   UNL     1      44.232   6.009  12.773  0.00  0.00    +0.000 C 
ATOM      8  C   UNL     1      45.396   5.261  12.080  0.00  0.00    +0.000 C 
ATOM      9  C   UNL     1      45.215   5.260  10.539  0.00  0.00    +0.000 C 
ATOM     10  C   UNL     1      44.024   4.423  10.053  0.00  0.00    +0.000 C 
ATOM     11  C   UNL     1      44.034   2.993  10.585  0.00  0.00    +0.000 C 
ATOM     12  C   UNL     1      44.199   2.948  12.099  0.00  0.00    +0.000 C 
ATOM     13  C   UNL     1      45.393   3.778  12.571  0.00  0.00    +0.000 C 
BRANCH  11  14
ATOM     14  O   UNL     1      45.071   2.240   9.959  0.00  0.00    +0.000 OA
ATOM     15  H   UNL     1      44.672   1.573   9.376  0.00  0.00    +0.000 HD
ENDBRANCH  11  14
ENDBRANCH   1   8
BRANCH   5  16
ATOM     16  C   UNL     1      48.945   6.502  15.559  0.00  0.00    +0.000 C 
BRANCH  16  17
ATOM     17  C   UNL     1      48.295   5.383  16.386  0.00  0.00    +0.000 C 
BRANCH  17  18
ATOM     18  N   UNL     1      48.936   5.170  17.676  0.00  0.00    +0.000 N 
ATOM     19  H   UNL     1      49.193   6.016  18.175  0.00  0.00    +0.000 HD
BRANCH  18  20
ATOM     20  C   UNL     1      49.923   4.175  17.763  0.00  0.00    +0.000 A 
ATOM     21  C   UNL     1      51.265   4.424  18.096  0.00  0.00    +0.000 A 
ATOM     22  C   UNL     1      52.221   3.404  18.080  0.00  0.00    +0.000 A 
ATOM     23  C   UNL     1      51.862   2.111  17.701  0.00  0.00    +0.000 A 
ATOM     24  C   UNL     1      50.540   1.851  17.333  0.00  0.00    +0.000 A 
ATOM     25  C   UNL     1      49.585   2.875  17.366  0.00  0.00    +0.000 A 
BRANCH  23  26
ATOM     26  C   UNL     1      52.920   1.068  17.658  0.00  0.00    +0.000 C 
ATOM     27  N   UNL     1      52.596  -0.178  18.114  0.00  0.00    +0.000 N 
ATOM     28  O   UNL     1      54.053   1.313  17.260  0.00  0.00    +0.000 OA
ATOM     29  H   UNL     1      51.769  -0.362  18.662  0.00  0.00    +0.000 HD
ATOM     30  H   UNL     1      53.356  -0.845  18.170  0.00  0.00    +0.000 HD
ENDBRANCH  23  26
ENDBRANCH  18  20
ENDBRANCH  17  18
ENDBRANCH  16  17
ENDBRANCH   5  16
TORSDOF 7
ENDMDL
MODEL 8
REMARK VINA RESULT:    -6.787      4.005      6.649
REMARK INTER + INTRA:         -10.648
REMARK INTER:                  -8.928
REMARK INTRA:                  -1.720
REMARK UNBOUND:                -1.281
REMARK  Name = 
REMARK  8 active torsions:
REMARK  status: ('A' for Active; 'I' for Inactive)
REMARK    1  A    between atoms: C_1  and  C_2
REMARK    2  A    between atoms: C_2  and  C_3
REMARK    3  A    between atoms: C_7  and  C_8
REMARK    4  A    between atoms: C_8  and  C_9
REMARK    5  A    between atoms: C_9  and  N_10
REMARK    6  A    between atoms: N_10  and  C_11
REMARK    7  A    between atoms: C_14  and  C_15
REMARK    8  A    between atoms: C_23  and  O_24
REMARK                            x       y       z     vdW  Elec       q    Type
REMARK                         _______ _______ _______ _____ _____    ______ ____
ROOT
ATOM      1  C   UNL     1      48.463   6.707  17.548  0.00  0.00    +0.000 A 
ATOM      2  C   UNL     1      48.126   7.699  18.483  0.00  0.00    +0.000 A 
ATOM      3  C   UNL     1      48.056   9.047  18.113  0.00  0.00    +0.000 A 
ATOM      4  C   UNL     1      48.328   9.437  16.800  0.00  0.00    +0.000 A 
ATOM      5  C   UNL     1      48.653   8.480  15.837  0.00  0.00    +0.000 A 
ATOM      6  C   UNL     1      48.694   7.132  16.232  0.00  0.00    +0.000 A 
ENDROOT
BRANCH   1   8
ATOM      7  C   UNL     1      48.726   5.209  19.510  0.00  0.00    +0.000 C 
ATOM      8  C   UNL     1      48.658   5.229  17.964  0.00  0.00    +0.000 C 
ATOM      9  C   UNL     1      47.468   4.376  17.451  0.00  0.00    +0.000 C 
ATOM     10  C   UNL     1      47.629   2.870  17.698  0.00  0.00    +0.000 C 
ATOM     11  C   UNL     1      48.947   2.309  17.173  0.00  0.00    +0.000 C 
ATOM     12  C   UNL     1      50.146   3.112  17.663  0.00  0.00    +0.000 C 
ATOM     13  C   UNL     1      49.978   4.609  17.404  0.00  0.00    +0.000 C 
BRANCH  11  14
ATOM     14  O   UNL     1      48.935   2.273  15.747  0.00  0.00    +0.000 OA
ATOM     15  H   UNL     1      48.027   2.109  15.441  0.00  0.00    +0.000 HD
ENDBRANCH  11  14
ENDBRANCH   1   8
BRANCH   5  16
ATOM     16  C   UNL     1      49.001   8.912  14.420  0.00  0.00    +0.000 C 
BRANCH  16  17
ATOM     17  C   UNL     1      49.656   7.807  13.578  0.00  0.00    +0.000 C 
BRANCH  17  18
ATOM     18  N   UNL     1      48.849   7.389  12.442  0.00  0.00    +0.000 N 
ATOM     19  H   UNL     1      48.786   8.065  11.686  0.00  0.00    +0.000 HD
BRANCH  18  20
ATOM     20  C   UNL     1      47.621   6.761  12.703  0.00  0.00    +0.000 A 
ATOM     21  C   UNL     1      47.493   5.519  13.347  0.00  0.00    +0.000 A 
ATOM     22  C   UNL     1      46.247   4.902  13.499  0.00  0.00    +0.000 A 
ATOM     23  C   UNL     1      45.098   5.502  12.984  0.00  0.00    +0.000 A 
ATOM     24  C   UNL     1      45.210   6.720  12.310  0.00  0.00    +0.000 A 
ATOM     25  C   UNL     1      46.459   7.339  12.174  0.00  0.00    +0.000 A 
BRANCH  23  26
ATOM     26  C   UNL     1      43.802   4.790  13.131  0.00  0.00    +0.000 C 
ATOM     27  N   UNL     1      42.660   5.532  13.025  0.00  0.00    +0.000 N 
ATOM     28  O   UNL     1      43.748   3.590  13.373  0.00  0.00    +0.000 OA
ATOM     29  H   UNL     1      42.657   6.540  13.066  0.00  0.00    +0.000 HD
ATOM     30  H   UNL     1      41.794   5.049  13.228  0.00  0.00    +0.000 HD
ENDBRANCH  23  26
ENDBRANCH  18  20
ENDBRANCH  17  18
ENDBRANCH  16  17
ENDBRANCH   5  16
TORSDOF 7
ENDMDL
MODEL 9
REMARK VINA RESULT:    -6.634      3.963      7.673
REMARK INTER + INTRA:         -10.437
REMARK INTER:                  -8.837
REMARK INTRA:                  -1.600
REMARK UNBOUND:                -1.281
REMARK  Name = 
REMARK  8 active torsions:
REMARK  status: ('A' for Active; 'I' for Inactive)
REMARK    1  A    between atoms: C_1  and  C_2
REMARK    2  A    between atoms: C_2  and  C_3
REMARK    3  A    between atoms: C_7  and  C_8
REMARK    4  A    between atoms: C_8  and  C_9
REMARK    5  A    between atoms: C_9  and  N_10
REMARK    6  A    between atoms: N_10  and  C_11
REMARK    7  A    between atoms: C_14  and  C_15
REMARK    8  A    between atoms: C_23  and  O_24
REMARK                            x       y       z     vdW  Elec       q    Type
REMARK                         _______ _______ _______ _____ _____    ______ ____
ROOT
ATOM      1  C   UNL     1      45.776   7.185  11.639  0.00  0.00    +0.000 A 
ATOM      2  C   UNL     1      44.917   8.274  11.857  0.00  0.00    +0.000 A 
ATOM      3  C   UNL     1      45.420   9.530  12.213  0.00  0.00    +0.000 A 
ATOM      4  C   UNL     1      46.793   9.727  12.367  0.00  0.00    +0.000 A 
ATOM      5  C   UNL     1      47.682   8.674  12.146  0.00  0.00    +0.000 A 
ATOM      6  C   UNL     1      47.150   7.429  11.768  0.00  0.00    +0.000 A 
ENDROOT
BRANCH   1   8
ATOM      7  C   UNL     1      45.646   5.409   9.910  0.00  0.00    +0.000 C 
ATOM      8  C   UNL     1      45.233   5.763  11.359  0.00  0.00    +0.000 C 
ATOM      9  C   UNL     1      45.843   4.757  12.369  0.00  0.00    +0.000 C 
ATOM     10  C   UNL     1      45.269   3.338  12.260  0.00  0.00    +0.000 C 
ATOM     11  C   UNL     1      43.745   3.296  12.327  0.00  0.00    +0.000 C 
ATOM     12  C   UNL     1      43.103   4.263  11.340  0.00  0.00    +0.000 C 
ATOM     13  C   UNL     1      43.676   5.675  11.464  0.00  0.00    +0.000 C 
BRANCH  11  14
ATOM     14  O   UNL     1      43.301   3.585  13.652  0.00  0.00    +0.000 OA
ATOM     15  H   UNL     1      42.686   2.890  13.939  0.00  0.00    +0.000 HD
ENDBRANCH  11  14
ENDBRANCH   1   8
BRANCH   5  16
ATOM     16  C   UNL     1      49.174   8.877  12.366  0.00  0.00    +0.000 C 
BRANCH  16  17
ATOM     17  C   UNL     1      49.854   7.716  13.108  0.00  0.00    +0.000 C 
BRANCH  17  18
ATOM     18  N   UNL     1      49.949   7.925  14.545  0.00  0.00    +0.000 N 
ATOM     19  H   UNL     1      50.838   8.296  14.869  0.00  0.00    +0.000 HD
BRANCH  18  20
ATOM     20  C   UNL     1      49.446   6.923  15.390  0.00  0.00    +0.000 A 
ATOM     21  C   UNL     1      50.073   6.503  16.575  0.00  0.00    +0.000 A 
ATOM     22  C   UNL     1      49.570   5.438  17.328  0.00  0.00    +0.000 A 
ATOM     23  C   UNL     1      48.437   4.746  16.898  0.00  0.00    +0.000 A 
ATOM     24  C   UNL     1      47.820   5.127  15.704  0.00  0.00    +0.000 A 
ATOM     25  C   UNL     1      48.322   6.204  14.963  0.00  0.00    +0.000 A 
BRANCH  23  26
ATOM     26  C   UNL     1      47.962   3.595  17.707  0.00  0.00    +0.000 C 
ATOM     27  N   UNL     1      46.763   3.036  17.367  0.00  0.00    +0.000 N 
ATOM     28  O   UNL     1      48.598   3.174  18.668  0.00  0.00    +0.000 OA
ATOM     29  H   UNL     1      46.105   3.489  16.750  0.00  0.00    +0.000 HD
ATOM     30  H   UNL     1      46.411   2.321  17.990  0.00  0.00    +0.000 HD
ENDBRANCH  23  26
ENDBRANCH  18  20
ENDBRANCH  17  18
ENDBRANCH  16  17
ENDBRANCH   5  16
TORSDOF 7
ENDMDL
