MODEL 1
REMARK VINA RESULT:    -7.792      0.000      0.000
REMARK INTER + INTRA:         -11.653
REMARK INTER:                 -10.525
REMARK INTRA:                  -1.127
REMARK UNBOUND:                -1.127
REMARK  Name = 
REMARK  7 active torsions:
REMARK  status: ('A' for Active; 'I' for Inactive)
REMARK    1  A    between atoms: C_1  and  N_2
REMARK    2  A    between atoms: N_2  and  C_3
REMARK    3  A    between atoms: C_3  and  C_4
REMARK    4  A    between atoms: C_7  and  C_8
REMARK    5  A    between atoms: C_8  and  C_9
REMARK    6  A    between atoms: C_9  and  C_10
REMARK    7  A    between atoms: C_19  and  C_21
REMARK                            x       y       z     vdW  Elec       q    Type
REMARK                         _______ _______ _______ _____ _____    ______ ____
ROOT
ATOM      1  C   UNL     1      47.127   6.175  12.257  0.00  0.00    +0.000 C 
ENDROOT
BRANCH   1   2
ATOM      2  C   UNL     1      47.391   5.860  13.706  0.00  0.00    +0.000 A 
ATOM      3  C   UNL     1      46.825   4.714  14.292  0.00  0.00    +0.000 A 
ATOM      4  C   UNL     1      47.198   4.311  15.573  0.00  0.00    +0.000 A 
ATOM      5  C   UNL     1      48.154   5.050  16.295  0.00  0.00    +0.000 A 
ATOM      6  C   UNL     1      48.661   6.232  15.737  0.00  0.00    +0.000 A 
ATOM      7  C   UNL     1      48.277   6.637  14.455  0.00  0.00    +0.000 A 
BRANCH   5   8
ATOM      8  C   UNL     1      48.632   4.589  17.649  0.00  0.00    +0.000 C 
BRANCH   8   9
ATOM      9  C   UNL     1      50.142   4.331  17.693  0.00  0.00    +0.000 C 
BRANCH   9  10
ATOM     10  C   UNL     1      50.458   2.882  17.375  0.00  0.00    +0.000 C 
ATOM     11  O   UNL     1      49.658   2.154  16.789  0.00  0.00    +0.000 OA
ATOM     12  N   UNL     1      51.702   2.431  17.757  0.00  0.00    +0.000 N 
ATOM     13  C   UNL     1      52.726   3.140  18.498  0.00  0.00    +0.000 C 
ATOM     14  C   UNL     1      54.012   2.481  18.030  0.00  0.00    +0.000 C 
ATOM     15  C   UNL     1      53.606   1.024  17.824  0.00  0.00    +0.000 C 
ATOM     16  C   UNL     1      52.138   1.089  17.414  0.00  0.00    +0.000 C 
ENDBRANCH   9  10
ENDBRANCH   8   9
ENDBRANCH   5   8
ENDBRANCH   1   2
BRANCH   1  18
ATOM     17  C   UNL     1      46.209   8.526  12.098  0.00  0.00    +0.000 C 
ATOM     18  N   UNL     1      46.051   7.091  11.894  0.00  0.00    +0.000 N 
ATOM     19  C   UNL     1      44.746   6.652  11.576  0.00  0.00    +0.000 C 
ATOM     20  O   UNL     1      43.829   7.458  11.426  0.00  0.00    +0.000 OA
BRANCH  19  21
ATOM     21  C   UNL     1      44.459   5.209  11.447  0.00  0.00    +0.000 A 
ATOM     22  C   UNL     1      43.685   4.467  12.325  0.00  0.00    +0.000 A 
ATOM     23  S   UNL     1      43.503   2.830  11.879  0.00  0.00    +0.000 S 
ATOM     24  C   UNL     1      44.295   3.097  10.399  0.00  0.00    +0.000 A 
ATOM     25  N   UNL     1      44.373   2.111   9.467  0.00  0.00    +0.000 NA
ATOM     26  C   UNL     1      44.938   2.477   8.364  0.00  0.00    +0.000 A 
ATOM     27  N   UNL     1      45.458   3.723   8.126  0.00  0.00    +0.000 N 
ATOM     28  C   UNL     1      45.516   4.710   9.088  0.00  0.00    +0.000 A 
ATOM     29  O   UNL     1      46.184   5.722   8.913  0.00  0.00    +0.000 OA
ATOM     30  C   UNL     1      44.789   4.386  10.303  0.00  0.00    +0.000 A 
ATOM     31  H   UNL     1      45.941   3.923   7.264  0.00  0.00    +0.000 HD
ENDBRANCH  19  21
ENDBRANCH   1  18
TORSDOF 6
ENDMDL
MODEL 2
REMARK VINA RESULT:    -7.774      2.570      8.567
REMARK INTER + INTRA:         -11.629
REMARK INTER:                 -10.685
REMARK INTRA:                  -0.943
REMARK UNBOUND:                -1.127
REMARK  Name = 
REMARK  7 active torsions:
REMARK  status: ('A' for Active; 'I' for Inactive)
REMARK    1  A    between atoms: C_1  and  N_2
REMARK    2  A    between atoms: N_2  and  C_3
REMARK    3  A    between atoms: C_3  and  C_4
REMARK    4  A    between atoms: C_7  and  C_8
REMARK    5  A    between atoms: C_8  and  C_9
REMARK    6  A    between atoms: C_9  and  C_10
REMARK    7  A    between atoms: C_19  and  C_21
REMARK                            x       y       z     vdW  Elec       q    Type
REMARK                         _______ _______ _______ _____ _____    ______ ____
ROOT
ATOM      1  C   UNL     1      48.298   6.242  13.915  0.00  0.00    +0.000 C 
ENDROOT
BRANCH   1   2
ATOM      2  C   UNL     1      47.058   5.968  13.106  0.00  0.00    +0.000 A 
ATOM      3  C   UNL     1      46.901   6.554  11.837  0.00  0.00    +0.000 A 
ATOM      4  C   UNL     1      45.850   6.175  11.003  0.00  0.00    +0.000 A 
ATOM      5  C   UNL     1      44.932   5.194  11.424  0.00  0.00    +0.000 A 
ATOM      6  C   UNL     1      45.050   4.667  12.718  0.00  0.00    +0.000 A 
ATOM      7  C   UNL     1      46.101   5.056  13.555  0.00  0.00    +0.000 A 
BRANCH   5   8
ATOM      8  C   UNL     1      43.836   4.711  10.509  0.00  0.00    +0.000 C 
BRANCH   8   9
ATOM      9  C   UNL     1      44.340   4.359   9.107  0.00  0.00    +0.000 C 
BRANCH   9  10
ATOM     10  C   UNL     1      44.875   2.941   9.057  0.00  0.00    +0.000 C 
ATOM     11  O   UNL     1      44.421   2.048   9.772  0.00  0.00    +0.000 OA
ATOM     12  N   UNL     1      45.881   2.699   8.150  0.00  0.00    +0.000 N 
ATOM     13  C   UNL     1      46.557   3.646   7.284  0.00  0.00    +0.000 C 
ATOM     14  C   UNL     1      47.000   2.788   6.111  0.00  0.00    +0.000 C 
ATOM     15  C   UNL     1      47.338   1.449   6.761  0.00  0.00    +0.000 C 
ATOM     16  C   UNL     1      46.395   1.355   7.957  0.00  0.00    +0.000 C 
ENDBRANCH   9  10
ENDBRANCH   8   9
ENDBRANCH   5   8
ENDBRANCH   1   2
BRANCH   1  18
ATOM     17  C   UNL     1      48.330   8.700  14.506  0.00  0.00    +0.000 C 
ATOM     18  N   UNL     1      48.297   7.302  14.917  0.00  0.00    +0.000 N 
ATOM     19  C   UNL     1      48.514   7.056  16.291  0.00  0.00    +0.000 C 
ATOM     20  O   UNL     1      48.660   7.987  17.083  0.00  0.00    +0.000 OA
BRANCH  19  21
ATOM     21  C   UNL     1      48.599   5.669  16.793  0.00  0.00    +0.000 A 
ATOM     22  C   UNL     1      47.547   4.767  16.829  0.00  0.00    +0.000 A 
ATOM     23  S   UNL     1      47.974   3.226  17.424  0.00  0.00    +0.000 S 
ATOM     24  C   UNL     1      49.618   3.651  17.480  0.00  0.00    +0.000 A 
ATOM     25  N   UNL     1      50.563   2.726  17.794  0.00  0.00    +0.000 NA
ATOM     26  C   UNL     1      51.774   3.171  17.726  0.00  0.00    +0.000 A 
ATOM     27  N   UNL     1      52.119   4.459  17.408  0.00  0.00    +0.000 N 
ATOM     28  C   UNL     1      51.189   5.459  17.210  0.00  0.00    +0.000 A 
ATOM     29  O   UNL     1      51.532   6.634  17.152  0.00  0.00    +0.000 OA
ATOM     30  C   UNL     1      49.819   4.982  17.159  0.00  0.00    +0.000 A 
ATOM     31  H   UNL     1      53.083   4.755  17.434  0.00  0.00    +0.000 HD
ENDBRANCH  19  21
ENDBRANCH   1  18
TORSDOF 6
ENDMDL
MODEL 3
REMARK VINA RESULT:    -7.505      1.335      1.998
REMARK INTER + INTRA:         -11.265
REMARK INTER:                 -10.063
REMARK INTRA:                  -1.202
REMARK UNBOUND:                -1.127
REMARK  Name = 
REMARK  7 active torsions:
REMARK  status: ('A' for Active; 'I' for Inactive)
REMARK    1  A    between atoms: C_1  and  N_2
REMARK    2  A    between atoms: N_2  and  C_3
REMARK    3  A    between atoms: C_3  and  C_4
REMARK    4  A    between atoms: C_7  and  C_8
REMARK    5  A    between atoms: C_8  and  C_9
REMARK    6  A    between atoms: C_9  and  C_10
REMARK    7  A    between atoms: C_19  and  C_21
REMARK                            x       y       z     vdW  Elec       q    Type
REMARK                         _______ _______ _______ _____ _____    ______ ____
ROOT
ATOM      1  C   UNL     1      47.330   6.473  12.441  0.00  0.00    +0.000 C 
ENDROOT
BRANCH   1   2
ATOM      2  C   UNL     1      47.500   5.915  13.829  0.00  0.00    +0.000 A 
ATOM      3  C   UNL     1      46.873   4.708  14.185  0.00  0.00    +0.000 A 
ATOM      4  C   UNL     1      47.159   4.088  15.400  0.00  0.00    +0.000 A 
ATOM      5  C   UNL     1      48.087   4.666  16.287  0.00  0.00    +0.000 A 
ATOM      6  C   UNL     1      48.653   5.906  15.961  0.00  0.00    +0.000 A 
ATOM      7  C   UNL     1      48.357   6.529  14.745  0.00  0.00    +0.000 A 
BRANCH   5   8
ATOM      8  C   UNL     1      48.472   3.974  17.570  0.00  0.00    +0.000 C 
BRANCH   8   9
ATOM      9  C   UNL     1      49.988   3.897  17.774  0.00  0.00    +0.000 C 
BRANCH   9  10
ATOM     10  C   UNL     1      50.531   2.547  17.347  0.00  0.00    +0.000 C 
ATOM     11  O   UNL     1      49.870   1.766  16.663  0.00  0.00    +0.000 OA
ATOM     12  N   UNL     1      51.814   2.250  17.747  0.00  0.00    +0.000 N 
ATOM     13  C   UNL     1      52.695   3.031  18.595  0.00  0.00    +0.000 C 
ATOM     14  C   UNL     1      54.080   2.613  18.133  0.00  0.00    +0.000 C 
ATOM     15  C   UNL     1      53.906   1.139  17.782  0.00  0.00    +0.000 C 
ATOM     16  C   UNL     1      52.459   1.025  17.311  0.00  0.00    +0.000 C 
ENDBRANCH   9  10
ENDBRANCH   8   9
ENDBRANCH   5   8
ENDBRANCH   1   2
BRANCH   1  18
ATOM     17  C   UNL     1      46.373   8.765  12.915  0.00  0.00    +0.000 C 
ATOM     18  N   UNL     1      46.330   7.503  12.185  0.00  0.00    +0.000 N 
ATOM     19  C   UNL     1      45.156   7.262  11.437  0.00  0.00    +0.000 C 
ATOM     20  O   UNL     1      44.264   8.108  11.373  0.00  0.00    +0.000 OA
BRANCH  19  21
ATOM     21  C   UNL     1      44.970   5.972  10.743  0.00  0.00    +0.000 A 
ATOM     22  C   UNL     1      45.537   5.631   9.524  0.00  0.00    +0.000 A 
ATOM     23  S   UNL     1      45.169   4.048   9.004  0.00  0.00    +0.000 S 
ATOM     24  C   UNL     1      44.394   3.695  10.475  0.00  0.00    +0.000 A 
ATOM     25  N   UNL     1      43.947   2.439  10.739  0.00  0.00    +0.000 NA
ATOM     26  C   UNL     1      43.445   2.300  11.921  0.00  0.00    +0.000 A 
ATOM     27  N   UNL     1      43.321   3.307  12.843  0.00  0.00    +0.000 N 
ATOM     28  C   UNL     1      43.642   4.620  12.570  0.00  0.00    +0.000 A 
ATOM     29  O   UNL     1      43.311   5.521  13.332  0.00  0.00    +0.000 OA
ATOM     30  C   UNL     1      44.319   4.805  11.299  0.00  0.00    +0.000 A 
ATOM     31  H   UNL     1      42.863   3.142  13.727  0.00  0.00    +0.000 HD
ENDBRANCH  19  21
ENDBRANCH   1  18
TORSDOF 6
ENDMDL
MODEL 4
REMARK VINA RESULT:    -7.289      3.997      8.453
REMARK INTER + INTRA:         -10.974
REMARK INTER:                  -9.443
REMARK INTRA:                  -1.530
REMARK UNBOUND:                -1.127
REMARK  Name = 
REMARK  7 active torsions:
REMARK  status: ('A' for Active; 'I' for Inactive)
REMARK    1  A    between atoms: C_1  and  N_2
REMARK    2  A    between atoms: N_2  and  C_3
REMARK    3  A    between atoms: C_3  and  C_4
REMARK    4  A    between atoms: C_7  and  C_8
REMARK    5  A    between atoms: C_8  and  C_9
REMARK    6  A    between atoms: C_9  and  C_10
REMARK    7  A    between atoms: C_19  and  C_21
REMARK                            x       y       z     vdW  Elec       q    Type
REMARK                         _______ _______ _______ _____ _____    ______ ____
ROOT
ATOM      1  C   UNL     1      49.272   7.070  12.555  0.00  0.00    +0.000 C 
ENDROOT
BRANCH   1   2
ATOM      2  C   UNL     1      47.822   6.724  12.773  0.00  0.00    +0.000 A 
ATOM      3  C   UNL     1      46.814   7.569  12.276  0.00  0.00    +0.000 A 
ATOM      4  C   UNL     1      45.476   7.178  12.312  0.00  0.00    +0.000 A 
ATOM      5  C   UNL     1      45.120   5.925  12.846  0.00  0.00    +0.000 A 
ATOM      6  C   UNL     1      46.121   5.118  13.406  0.00  0.00    +0.000 A 
ATOM      7  C   UNL     1      47.460   5.518  13.376  0.00  0.00    +0.000 A 
BRANCH   5   8
ATOM      8  C   UNL     1      43.690   5.447  12.823  0.00  0.00    +0.000 C 
BRANCH   8   9
ATOM      9  C   UNL     1      43.188   5.134  11.410  0.00  0.00    +0.000 C 
BRANCH   9  10
ATOM     10  C   UNL     1      43.524   3.709  11.014  0.00  0.00    +0.000 C 
ATOM     11  O   UNL     1      42.974   2.741  11.537  0.00  0.00    +0.000 OA
ATOM     12  N   UNL     1      44.462   3.557  10.018  0.00  0.00    +0.000 N 
ATOM     13  C   UNL     1      45.235   4.585   9.347  0.00  0.00    +0.000 C 
ATOM     14  C   UNL     1      45.523   3.970   7.989  0.00  0.00    +0.000 C 
ATOM     15  C   UNL     1      45.695   2.486   8.302  0.00  0.00    +0.000 C 
ATOM     16  C   UNL     1      44.783   2.239   9.500  0.00  0.00    +0.000 C 
ENDBRANCH   9  10
ENDBRANCH   8   9
ENDBRANCH   5   8
ENDBRANCH   1   2
BRANCH   1  18
ATOM     17  C   UNL     1      49.681   9.337  11.513  0.00  0.00    +0.000 C 
ATOM     18  N   UNL     1      49.717   8.454  12.672  0.00  0.00    +0.000 N 
ATOM     19  C   UNL     1      50.423   8.939  13.797  0.00  0.00    +0.000 C 
ATOM     20  O   UNL     1      50.916  10.066  13.794  0.00  0.00    +0.000 OA
BRANCH  19  21
ATOM     21  C   UNL     1      50.603   8.081  14.986  0.00  0.00    +0.000 A 
ATOM     22  C   UNL     1      51.761   7.390  15.305  0.00  0.00    +0.000 A 
ATOM     23  S   UNL     1      51.672   6.521  16.770  0.00  0.00    +0.000 S 
ATOM     24  C   UNL     1      50.149   7.186  17.126  0.00  0.00    +0.000 A 
ATOM     25  N   UNL     1      49.549   6.945  18.321  0.00  0.00    +0.000 NA
ATOM     26  C   UNL     1      48.432   7.574  18.482  0.00  0.00    +0.000 A 
ATOM     27  N   UNL     1      47.850   8.389  17.546  0.00  0.00    +0.000 N 
ATOM     28  C   UNL     1      48.358   8.557  16.276  0.00  0.00    +0.000 A 
ATOM     29  O   UNL     1      47.698   9.107  15.402  0.00  0.00    +0.000 OA
ATOM     30  C   UNL     1      49.672   7.967  16.088  0.00  0.00    +0.000 A 
ATOM     31  H   UNL     1      46.944   8.800  17.715  0.00  0.00    +0.000 HD
ENDBRANCH  19  21
ENDBRANCH   1  18
TORSDOF 6
ENDMDL
MODEL 5
REMARK VINA RESULT:    -7.104      3.722      8.310
REMARK INTER + INTRA:         -10.723
REMARK INTER:                  -9.320
REMARK INTRA:                  -1.404
REMARK UNBOUND:                -1.127
REMARK  Name = 
REMARK  7 active torsions:
REMARK  status: ('A' for Active; 'I' for Inactive)
REMARK    1  A    between atoms: C_1  and  N_2
REMARK    2  A    between atoms: N_2  and  C_3
REMARK    3  A    between atoms: C_3  and  C_4
REMARK    4  A    between atoms: C_7  and  C_8
REMARK    5  A    between atoms: C_8  and  C_9
REMARK    6  A    between atoms: C_9  and  C_10
REMARK    7  A    between atoms: C_19  and  C_21
REMARK                            x       y       z     vdW  Elec       q    Type
REMARK                         _______ _______ _______ _____ _____    ______ ____
ROOT
ATOM      1  C   UNL     1      48.802   7.928  12.270  0.00  0.00    +0.000 C 
ENDROOT
BRANCH   1   2
ATOM      2  C   UNL     1      47.487   7.270  12.596  0.00  0.00    +0.000 A 
ATOM      3  C   UNL     1      46.283   7.838  12.145  0.00  0.00    +0.000 A 
ATOM      4  C   UNL     1      45.076   7.155  12.284  0.00  0.00    +0.000 A 
ATOM      5  C   UNL     1      45.052   5.879  12.877  0.00  0.00    +0.000 A 
ATOM      6  C   UNL     1      46.243   5.348  13.392  0.00  0.00    +0.000 A 
ATOM      7  C   UNL     1      47.450   6.041  13.258  0.00  0.00    +0.000 A 
BRANCH   5   8
ATOM      8  C   UNL     1      43.772   5.086  12.966  0.00  0.00    +0.000 C 
BRANCH   8   9
ATOM      9  C   UNL     1      43.140   4.819  11.597  0.00  0.00    +0.000 C 
BRANCH   9  10
ATOM     10  C   UNL     1      43.505   3.439  11.084  0.00  0.00    +0.000 C 
ATOM     11  O   UNL     1      42.992   2.418  11.539  0.00  0.00    +0.000 OA
ATOM     12  N   UNL     1      44.429   3.391  10.064  0.00  0.00    +0.000 N 
ATOM     13  C   UNL     1      45.161   4.489   9.463  0.00  0.00    +0.000 C 
ATOM     14  C   UNL     1      45.441   3.990   8.057  0.00  0.00    +0.000 C 
ATOM     15  C   UNL     1      45.658   2.492   8.250  0.00  0.00    +0.000 C 
ATOM     16  C   UNL     1      44.775   2.127   9.440  0.00  0.00    +0.000 C 
ENDBRANCH   9  10
ENDBRANCH   8   9
ENDBRANCH   5   8
ENDBRANCH   1   2
BRANCH   1  18
ATOM     17  C   UNL     1      48.984  10.246  11.276  0.00  0.00    +0.000 C 
ATOM     18  N   UNL     1      48.959   9.368  12.440  0.00  0.00    +0.000 N 
ATOM     19  C   UNL     1      49.339   9.958  13.666  0.00  0.00    +0.000 C 
ATOM     20  O   UNL     1      49.612  11.156  13.733  0.00  0.00    +0.000 OA
BRANCH  19  21
ATOM     21  C   UNL     1      49.443   9.132  14.887  0.00  0.00    +0.000 A 
ATOM     22  C   UNL     1      48.403   8.872  15.766  0.00  0.00    +0.000 A 
ATOM     23  S   UNL     1      48.829   7.844  17.061  0.00  0.00    +0.000 S 
ATOM     24  C   UNL     1      50.364   7.558  16.391  0.00  0.00    +0.000 A 
ATOM     25  N   UNL     1      51.206   6.651  16.951  0.00  0.00    +0.000 NA
ATOM     26  C   UNL     1      52.307   6.484  16.294  0.00  0.00    +0.000 A 
ATOM     27  N   UNL     1      52.650   7.165  15.155  0.00  0.00    +0.000 N 
ATOM     28  C   UNL     1      51.884   8.183  14.627  0.00  0.00    +0.000 A 
ATOM     29  O   UNL     1      52.326   8.913  13.748  0.00  0.00    +0.000 OA
ATOM     30  C   UNL     1      50.585   8.325  15.260  0.00  0.00    +0.000 A 
ATOM     31  H   UNL     1      53.554   7.029  14.728  0.00  0.00    +0.000 HD
ENDBRANCH  19  21
ENDBRANCH   1  18
TORSDOF 6
ENDMDL
MODEL 6
REMARK VINA RESULT:    -6.920      3.490      8.667
REMARK INTER + INTRA:         -10.475
REMARK INTER:                  -9.481
REMARK INTRA:                  -0.994
REMARK UNBOUND:                -1.127
REMARK  Name = 
REMARK  7 active torsions:
REMARK  status: ('A' for Active; 'I' for Inactive)
REMARK    1  A    between atoms: C_1  and  N_2
REMARK    2  A    between atoms: N_2  and  C_3
REMARK    3  A    between atoms: C_3  and  C_4
REMARK    4  A    between atoms: C_7  and  C_8
REMARK    5  A    between atoms: C_8  and  C_9
REMARK    6  A    between atoms: C_9  and  C_10
REMARK    7  A    between atoms: C_19  and  C_21
REMARK                            x       y       z     vdW  Elec       q    Type
REMARK                         _______ _______ _______ _____ _____    ______ ____
ROOT
ATOM      1  C   UNL     1      48.402   7.171  13.115  0.00  0.00    +0.000 C 
ENDROOT
BRANCH   1   2
ATOM      2  C   UNL     1      47.208   6.444  12.555  0.00  0.00    +0.000 A 
ATOM      3  C   UNL     1      46.776   6.705  11.243  0.00  0.00    +0.000 A 
ATOM      4  C   UNL     1      45.788   5.920  10.649  0.00  0.00    +0.000 A 
ATOM      5  C   UNL     1      45.214   4.850  11.361  0.00  0.00    +0.000 A 
ATOM      6  C   UNL     1      45.595   4.639  12.693  0.00  0.00    +0.000 A 
ATOM      7  C   UNL     1      46.580   5.435  13.288  0.00  0.00    +0.000 A 
BRANCH   5   8
ATOM      8  C   UNL     1      44.203   3.938  10.712  0.00  0.00    +0.000 C 
BRANCH   8   9
ATOM      9  C   UNL     1      44.386   3.827   9.195  0.00  0.00    +0.000 C 
BRANCH   9  10
ATOM     10  C   UNL     1      45.072   2.528   8.820  0.00  0.00    +0.000 C 
ATOM     11  O   UNL     1      44.730   1.448   9.301  0.00  0.00    +0.000 OA
ATOM     12  N   UNL     1      46.086   2.618   7.893  0.00  0.00    +0.000 N 
ATOM     13  C   UNL     1      46.641   3.810   7.282  0.00  0.00    +0.000 C 
ATOM     14  C   UNL     1      47.158   3.305   5.946  0.00  0.00    +0.000 C 
ATOM     15  C   UNL     1      47.651   1.898   6.267  0.00  0.00    +0.000 C 
ATOM     16  C   UNL     1      46.742   1.422   7.396  0.00  0.00    +0.000 C 
ENDBRANCH   9  10
ENDBRANCH   8   9
ENDBRANCH   5   8
ENDBRANCH   1   2
BRANCH   1  18
ATOM     17  C   UNL     1      47.752   9.612  13.012  0.00  0.00    +0.000 C 
ATOM     18  N   UNL     1      48.229   8.462  13.771  0.00  0.00    +0.000 N 
ATOM     19  C   UNL     1      48.734   8.740  15.061  0.00  0.00    +0.000 C 
ATOM     20  O   UNL     1      48.705   9.882  15.517  0.00  0.00    +0.000 OA
BRANCH  19  21
ATOM     21  C   UNL     1      49.333   7.660  15.872  0.00  0.00    +0.000 A 
ATOM     22  C   UNL     1      48.623   6.675  16.540  0.00  0.00    +0.000 A 
ATOM     23  S   UNL     1      49.605   5.541  17.355  0.00  0.00    +0.000 S 
ATOM     24  C   UNL     1      51.016   6.216  16.690  0.00  0.00    +0.000 A 
ATOM     25  N   UNL     1      52.225   5.630  16.892  0.00  0.00    +0.000 NA
ATOM     26  C   UNL     1      53.197   6.209  16.268  0.00  0.00    +0.000 A 
ATOM     27  N   UNL     1      53.072   7.334  15.494  0.00  0.00    +0.000 N 
ATOM     28  C   UNL     1      51.890   8.032  15.368  0.00  0.00    +0.000 A 
ATOM     29  O   UNL     1      51.867   9.146  14.857  0.00  0.00    +0.000 OA
ATOM     30  C   UNL     1      50.745   7.355  15.953  0.00  0.00    +0.000 A 
ATOM     31  H   UNL     1      53.885   7.770  15.085  0.00  0.00    +0.000 HD
ENDBRANCH  19  21
ENDBRANCH   1  18
TORSDOF 6
ENDMDL
MODEL 7
REMARK VINA RESULT:    -6.805      3.167      8.289
REMARK INTER + INTRA:         -10.319
REMARK INTER:                  -8.749
REMARK INTRA:                  -1.570
REMARK UNBOUND:                -1.127
REMARK  Name = 
REMARK  7 active torsions:
REMARK  status: ('A' for Active; 'I' for Inactive)
REMARK    1  A    between atoms: C_1  and  N_2
REMARK    2  A    between atoms: N_2  and  C_3
REMARK    3  A    between atoms: C_3  and  C_4
REMARK    4  A    between atoms: C_7  and  C_8
REMARK    5  A    between atoms: C_8  and  C_9
REMARK    6  A    between atoms: C_9  and  C_10
REMARK    7  A    between atoms: C_19  and  C_21
REMARK                            x       y       z     vdW  Elec       q    Type
REMARK                         _______ _______ _______ _____ _____    ______ ____
ROOT
ATOM      1  C   UNL     1      49.368   8.260  16.994  0.00  0.00    +0.000 C 
ENDROOT
BRANCH   1   2
ATOM      2  C   UNL     1      48.892   8.068  15.578  0.00  0.00    +0.000 A 
ATOM      3  C   UNL     1      49.220   6.894  14.878  0.00  0.00    +0.000 A 
ATOM      4  C   UNL     1      48.645   6.621  13.637  0.00  0.00    +0.000 A 
ATOM      5  C   UNL     1      47.723   7.522  13.072  0.00  0.00    +0.000 A 
ATOM      6  C   UNL     1      47.456   8.726  13.739  0.00  0.00    +0.000 A 
ATOM      7  C   UNL     1      48.042   9.000  14.979  0.00  0.00    +0.000 A 
BRANCH   5   8
ATOM      8  C   UNL     1      47.028   7.210  11.771  0.00  0.00    +0.000 C 
BRANCH   8   9
ATOM      9  C   UNL     1      45.530   6.941  11.943  0.00  0.00    +0.000 C 
BRANCH   9  10
ATOM     10  C   UNL     1      45.267   5.474  12.222  0.00  0.00    +0.000 C 
ATOM     11  O   UNL     1      45.139   5.040  13.367  0.00  0.00    +0.000 OA
ATOM     12  N   UNL     1      45.155   4.654  11.122  0.00  0.00    +0.000 N 
ATOM     13  C   UNL     1      45.334   4.996   9.724  0.00  0.00    +0.000 C 
ATOM     14  C   UNL     1      44.456   3.987   9.005  0.00  0.00    +0.000 C 
ATOM     15  C   UNL     1      44.589   2.730   9.860  0.00  0.00    +0.000 C 
ATOM     16  C   UNL     1      44.808   3.252  11.277  0.00  0.00    +0.000 C 
ENDBRANCH   9  10
ENDBRANCH   8   9
ENDBRANCH   5   8
ENDBRANCH   1   2
BRANCH   1  18
ATOM     17  C   UNL     1      47.553   8.920  18.626  0.00  0.00    +0.000 C 
ATOM     18  N   UNL     1      48.490   7.929  18.110  0.00  0.00    +0.000 N 
ATOM     19  C   UNL     1      48.657   6.768  18.899  0.00  0.00    +0.000 C 
ATOM     20  O   UNL     1      47.997   6.601  19.923  0.00  0.00    +0.000 OA
BRANCH  19  21
ATOM     21  C   UNL     1      49.656   5.749  18.516  0.00  0.00    +0.000 A 
ATOM     22  C   UNL     1      50.965   5.704  18.969  0.00  0.00    +0.000 A 
ATOM     23  S   UNL     1      51.860   4.376  18.379  0.00  0.00    +0.000 S 
ATOM     24  C   UNL     1      50.477   3.710  17.648  0.00  0.00    +0.000 A 
ATOM     25  N   UNL     1      50.525   2.484  17.064  0.00  0.00    +0.000 NA
ATOM     26  C   UNL     1      49.385   2.074  16.615  0.00  0.00    +0.000 A 
ATOM     27  N   UNL     1      48.218   2.792  16.668  0.00  0.00    +0.000 N 
ATOM     28  C   UNL     1      48.153   4.088  17.134  0.00  0.00    +0.000 A 
ATOM     29  O   UNL     1      47.150   4.770  16.959  0.00  0.00    +0.000 OA
ATOM     30  C   UNL     1      49.381   4.548  17.757  0.00  0.00    +0.000 A 
ATOM     31  H   UNL     1      47.375   2.436  16.242  0.00  0.00    +0.000 HD
ENDBRANCH  19  21
ENDBRANCH   1  18
TORSDOF 6
ENDMDL
MODEL 8
REMARK VINA RESULT:    -6.618      2.610      8.380
REMARK INTER + INTRA:         -10.066
REMARK INTER:                  -8.702
REMARK INTRA:                  -1.365
REMARK UNBOUND:                -1.127
REMARK  Name = 
REMARK  7 active torsions:
REMARK  status: ('A' for Active; 'I' for Inactive)
REMARK    1  A    between atoms: C_1  and  N_2
REMARK    2  A    between atoms: N_2  and  C_3
REMARK    3  A    between atoms: C_3  and  C_4
REMARK    4  A    between atoms: C_7  and  C_8
REMARK    5  A    between atoms: C_8  and  C_9
REMARK    6  A    between atoms: C_9  and  C_10
REMARK    7  A    between atoms: C_19  and  C_21
REMARK                            x       y       z     vdW  Elec       q    Type
REMARK                         _______ _______ _______ _____ _____    ______ ____
ROOT
ATOM      1  C   UNL     1      49.251   7.513  17.014  0.00  0.00    +0.000 C 
ENDROOT
BRANCH   1   2
ATOM      2  C   UNL     1      48.730   7.576  15.602  0.00  0.00    +0.000 A 
ATOM      3  C   UNL     1      48.982   6.519  14.710  0.00  0.00    +0.000 A 
ATOM      4  C   UNL     1      48.362   6.477  13.462  0.00  0.00    +0.000 A 
ATOM      5  C   UNL     1      47.469   7.497  13.083  0.00  0.00    +0.000 A 
ATOM      6  C   UNL     1      47.277   8.585  13.945  0.00  0.00    +0.000 A 
ATOM      7  C   UNL     1      47.908   8.628  15.192  0.00  0.00    +0.000 A 
BRANCH   5   8
ATOM      8  C   UNL     1      46.725   7.432  11.773  0.00  0.00    +0.000 C 
BRANCH   8   9
ATOM      9  C   UNL     1      45.254   7.041  11.940  0.00  0.00    +0.000 C 
BRANCH   9  10
ATOM     10  C   UNL     1      45.110   5.555  12.209  0.00  0.00    +0.000 C 
ATOM     11  O   UNL     1      44.981   5.108  13.348  0.00  0.00    +0.000 OA
ATOM     12  N   UNL     1      45.108   4.732  11.105  0.00  0.00    +0.000 N 
ATOM     13  C   UNL     1      45.305   5.093   9.714  0.00  0.00    +0.000 C 
ATOM     14  C   UNL     1      44.544   4.014   8.965  0.00  0.00    +0.000 C 
ATOM     15  C   UNL     1      44.756   2.771   9.824  0.00  0.00    +0.000 C 
ATOM     16  C   UNL     1      44.880   3.305  11.248  0.00  0.00    +0.000 C 
ENDBRANCH   9  10
ENDBRANCH   8   9
ENDBRANCH   5   8
ENDBRANCH   1   2
BRANCH   1  18
ATOM     17  C   UNL     1      48.050   8.650  18.926  0.00  0.00    +0.000 C 
ATOM     18  N   UNL     1      48.320   7.455  18.135  0.00  0.00    +0.000 N 
ATOM     19  C   UNL     1      47.836   6.240  18.667  0.00  0.00    +0.000 C 
ATOM     20  O   UNL     1      47.177   6.223  19.706  0.00  0.00    +0.000 OA
BRANCH  19  21
ATOM     21  C   UNL     1      48.143   4.961  17.994  0.00  0.00    +0.000 A 
ATOM     22  C   UNL     1      47.346   4.349  17.039  0.00  0.00    +0.000 A 
ATOM     23  S   UNL     1      47.995   2.899  16.416  0.00  0.00    +0.000 S 
ATOM     24  C   UNL     1      49.451   3.133  17.261  0.00  0.00    +0.000 A 
ATOM     25  N   UNL     1      50.505   2.297  17.071  0.00  0.00    +0.000 NA
ATOM     26  C   UNL     1      51.567   2.638  17.723  0.00  0.00    +0.000 A 
ATOM     27  N   UNL     1      51.656   3.714  18.569  0.00  0.00    +0.000 N 
ATOM     28  C   UNL     1      50.577   4.509  18.889  0.00  0.00    +0.000 A 
ATOM     29  O   UNL     1      50.639   5.314  19.812  0.00  0.00    +0.000 OA
ATOM     30  C   UNL     1      49.393   4.239  18.092  0.00  0.00    +0.000 A 
ATOM     31  H   UNL     1      52.500   3.886  19.094  0.00  0.00    +0.000 HD
ENDBRANCH  19  21
ENDBRANCH   1  18
TORSDOF 6
ENDMDL
MODEL 9
REMARK VINA RESULT:    -6.512      3.660      9.239
REMARK INTER + INTRA:          -9.924
REMARK INTER:                  -9.655
REMARK INTRA:                  -0.269
REMARK UNBOUND:                -1.127
REMARK  Name = 
REMARK  7 active torsions:
REMARK  status: ('A' for Active; 'I' for Inactive)
REMARK    1  A    between atoms: C_1  and  N_2
REMARK    2  A    between atoms: N_2  and  C_3
REMARK    3  A    between atoms: C_3  and  C_4
REMARK    4  A    between atoms: C_7  and  C_8
REMARK    5  A    between atoms: C_8  and  C_9
REMARK    6  A    between atoms: C_9  and  C_10
REMARK    7  A    between atoms: C_19  and  C_21
REMARK                            x       y       z     vdW  Elec       q    Type
REMARK                         _______ _______ _______ _____ _____    ______ ____
ROOT
ATOM      1  C   UNL     1      47.826   5.676  15.150  0.00  0.00    +0.000 C 
ENDROOT
BRANCH   1   2
ATOM      2  C   UNL     1      46.987   5.218  13.986  0.00  0.00    +0.000 A 
ATOM      3  C   UNL     1      46.909   3.851  13.668  0.00  0.00    +0.000 A 
ATOM      4  C   UNL     1      46.004   3.392  12.712  0.00  0.00    +0.000 A 
ATOM      5  C   UNL     1      45.151   4.299  12.055  0.00  0.00    +0.000 A 
ATOM      6  C   UNL     1      45.283   5.669  12.322  0.00  0.00    +0.000 A 
ATOM      7  C   UNL     1      46.199   6.125  13.275  0.00  0.00    +0.000 A 
BRANCH   5   8
ATOM      8  C   UNL     1      44.110   3.818  11.076  0.00  0.00    +0.000 C 
BRANCH   8   9
ATOM      9  C   UNL     1      44.664   2.814  10.061  0.00  0.00    +0.000 C 
BRANCH   9  10
ATOM     10  C   UNL     1      45.140   3.513   8.802  0.00  0.00    +0.000 C 
ATOM     11  O   UNL     1      44.883   4.696   8.578  0.00  0.00    +0.000 OA
ATOM     12  N   UNL     1      45.896   2.760   7.933  0.00  0.00    +0.000 N 
ATOM     13  C   UNL     1      46.234   1.353   8.025  0.00  0.00    +0.000 C 
ATOM     14  C   UNL     1      47.550   1.263   7.271  0.00  0.00    +0.000 C 
ATOM     15  C   UNL     1      47.387   2.290   6.154  0.00  0.00    +0.000 C 
ATOM     16  C   UNL     1      46.479   3.362   6.748  0.00  0.00    +0.000 C 
ENDBRANCH   9  10
ENDBRANCH   8   9
ENDBRANCH   5   8
ENDBRANCH   1   2
BRANCH   1  18
ATOM     17  C   UNL     1      47.137   3.672  16.530  0.00  0.00    +0.000 C 
ATOM     18  N   UNL     1      48.042   4.789  16.288  0.00  0.00    +0.000 N 
ATOM     19  C   UNL     1      48.946   5.088  17.331  0.00  0.00    +0.000 C 
ATOM     20  O   UNL     1      48.989   4.396  18.348  0.00  0.00    +0.000 OA
BRANCH  19  21
ATOM     21  C   UNL     1      49.838   6.262  17.227  0.00  0.00    +0.000 A 
ATOM     22  C   UNL     1      51.053   6.285  16.560  0.00  0.00    +0.000 A 
ATOM     23  S   UNL     1      51.829   7.805  16.581  0.00  0.00    +0.000 S 
ATOM     24  C   UNL     1      50.483   8.534  17.320  0.00  0.00    +0.000 A 
ATOM     25  N   UNL     1      50.441   9.878  17.512  0.00  0.00    +0.000 NA
ATOM     26  C   UNL     1      49.329  10.301  18.016  0.00  0.00    +0.000 A 
ATOM     27  N   UNL     1      48.276   9.498  18.374  0.00  0.00    +0.000 N 
ATOM     28  C   UNL     1      48.327   8.122  18.316  0.00  0.00    +0.000 A 
ATOM     29  O   UNL     1      47.462   7.437  18.850  0.00  0.00    +0.000 OA
ATOM     30  C   UNL     1      49.509   7.607  17.647  0.00  0.00    +0.000 A 
ATOM     31  H   UNL     1      47.460   9.889  18.820  0.00  0.00    +0.000 HD
ENDBRANCH  19  21
ENDBRANCH   1  18
TORSDOF 6
ENDMDL
