MODEL 1
REMARK VINA RESULT:    -8.257      0.000      0.000
REMARK INTER + INTRA:         -11.665
REMARK INTER:                 -11.394
REMARK INTRA:                  -0.271
REMARK UNBOUND:                -0.271
REMARK  Name = 
REMARK  7 active torsions:
REMARK  status: ('A' for Active; 'I' for Inactive)
REMARK    1  A    between atoms: N_1  and  C_2
REMARK    2  A    between atoms: C_2  and  C_3
REMARK    3  A    between atoms: C_3  and  N_4
REMARK    4  A    between atoms: C_3  and  C_17
REMARK    5  A    between atoms: C_5  and  C_7
REMARK    6  A    between atoms: C_20  and  C_21
REMARK    7  A    between atoms: C_21  and  C_22
REMARK                            x       y       z     vdW  Elec       q    Type
REMARK                         _______ _______ _______ _____ _____    ______ ____
ROOT
ATOM      1  C   UNL     1      46.079   7.660  12.829  0.00  0.00    +0.000 C 
ENDROOT
BRANCH   1   2
ATOM      2  C   UNL     1      45.672   6.449  12.001  0.00  0.00    +0.000 A 
ATOM      3  C   UNL     1      46.043   6.386  10.647  0.00  0.00    +0.000 A 
ATOM      4  C   UNL     1      45.678   5.294   9.855  0.00  0.00    +0.000 A 
ATOM      5  C   UNL     1      44.933   4.238  10.397  0.00  0.00    +0.000 A 
ATOM      6  C   UNL     1      44.550   4.305  11.741  0.00  0.00    +0.000 A 
ATOM      7  C   UNL     1      44.902   5.403  12.529  0.00  0.00    +0.000 A 
BRANCH   5   8
ATOM      8  C   UNL     1      44.539   3.045   9.555  0.00  0.00    +0.000 C 
BRANCH   8   9
ATOM      9  C   UNL     1      45.543   2.608   8.510  0.00  0.00    +0.000 A 
ATOM     10  C   UNL     1      45.870   3.433   7.434  0.00  0.00    +0.000 A 
ATOM     11  C   UNL     1      46.683   2.935   6.419  0.00  0.00    +0.000 A 
ATOM     12  C   UNL     1      47.158   1.634   6.503  0.00  0.00    +0.000 A 
ATOM     13  C   UNL     1      46.811   0.885   7.614  0.00  0.00    +0.000 A 
ATOM     14  N   UNL     1      46.015   1.338   8.609  0.00  0.00    +0.000 NA
ENDBRANCH   8   9
ENDBRANCH   5   8
ENDBRANCH   1   2
BRANCH   1  15
ATOM     15  N   UNL     1      46.769   7.190  14.024  0.00  0.00    +0.000 N 
ATOM     16  C   UNL     1      48.016   6.614  13.957  0.00  0.00    +0.000 C 
ATOM     17  O   UNL     1      48.614   6.453  12.900  0.00  0.00    +0.000 OA
ATOM     18  H   UNL     1      46.254   7.181  14.891  0.00  0.00    +0.000 HD
BRANCH  16  19
ATOM     19  C   UNL     1      48.605   6.260  15.248  0.00  0.00    +0.000 A 
ATOM     20  C   UNL     1      49.624   6.977  15.856  0.00  0.00    +0.000 A 
ATOM     21  S   UNL     1      50.235   6.214  17.260  0.00  0.00    +0.000 S 
ATOM     22  C   UNL     1      49.159   4.905  17.089  0.00  0.00    +0.000 A 
ATOM     23  N   UNL     1      49.195   3.843  17.937  0.00  0.00    +0.000 NA
ATOM     24  C   UNL     1      48.332   2.920  17.663  0.00  0.00    +0.000 A 
ATOM     25  N   UNL     1      47.418   2.977  16.642  0.00  0.00    +0.000 N 
ATOM     26  C   UNL     1      47.264   4.086  15.839  0.00  0.00    +0.000 A 
ATOM     27  O   UNL     1      46.283   4.213  15.117  0.00  0.00    +0.000 OA
ATOM     28  C   UNL     1      48.298   5.086  16.024  0.00  0.00    +0.000 A 
ATOM     29  H   UNL     1      46.712   2.263  16.540  0.00  0.00    +0.000 HD
ENDBRANCH  16  19
ENDBRANCH   1  15
BRANCH   1  30
ATOM     30  C   UNL     1      46.933   8.725  12.077  0.00  0.00    +0.000 C 
BRANCH  30  31
ATOM     31  N   UNL     1      47.178   9.953  12.842  0.00  0.00    +0.000 NA
ATOM     32  H   UNL     1      46.292  10.324  13.183  0.00  0.00    +0.000 HD
ATOM     33  H   UNL     1      47.564  10.663  12.219  0.00  0.00    +0.000 HD
ENDBRANCH  30  31
ENDBRANCH   1  30
TORSDOF 7
ENDMDL
MODEL 2
REMARK VINA RESULT:    -8.226      1.474      2.239
REMARK INTER + INTRA:         -11.622
REMARK INTER:                 -11.007
REMARK INTRA:                  -0.615
REMARK UNBOUND:                -0.271
REMARK  Name = 
REMARK  7 active torsions:
REMARK  status: ('A' for Active; 'I' for Inactive)
REMARK    1  A    between atoms: N_1  and  C_2
REMARK    2  A    between atoms: C_2  and  C_3
REMARK    3  A    between atoms: C_3  and  N_4
REMARK    4  A    between atoms: C_3  and  C_17
REMARK    5  A    between atoms: C_5  and  C_7
REMARK    6  A    between atoms: C_20  and  C_21
REMARK    7  A    between atoms: C_21  and  C_22
REMARK                            x       y       z     vdW  Elec       q    Type
REMARK                         _______ _______ _______ _____ _____    ______ ____
ROOT
ATOM      1  C   UNL     1      45.355   6.604  12.938  0.00  0.00    +0.000 C 
ENDROOT
BRANCH   1   2
ATOM      2  C   UNL     1      45.159   5.666  11.755  0.00  0.00    +0.000 A 
ATOM      3  C   UNL     1      44.403   4.495  11.923  0.00  0.00    +0.000 A 
ATOM      4  C   UNL     1      44.211   3.607  10.861  0.00  0.00    +0.000 A 
ATOM      5  C   UNL     1      44.771   3.869   9.604  0.00  0.00    +0.000 A 
ATOM      6  C   UNL     1      45.536   5.028   9.437  0.00  0.00    +0.000 A 
ATOM      7  C   UNL     1      45.741   5.908  10.502  0.00  0.00    +0.000 A 
BRANCH   5   8
ATOM      8  C   UNL     1      44.564   2.923   8.442  0.00  0.00    +0.000 C 
BRANCH   8   9
ATOM      9  C   UNL     1      45.794   2.602   7.620  0.00  0.00    +0.000 A 
ATOM     10  C   UNL     1      46.106   3.330   6.472  0.00  0.00    +0.000 A 
ATOM     11  C   UNL     1      47.161   2.909   5.666  0.00  0.00    +0.000 A 
ATOM     12  C   UNL     1      47.883   1.780   6.025  0.00  0.00    +0.000 A 
ATOM     13  C   UNL     1      47.530   1.124   7.191  0.00  0.00    +0.000 A 
ATOM     14  N   UNL     1      46.505   1.504   7.988  0.00  0.00    +0.000 NA
ENDBRANCH   8   9
ENDBRANCH   5   8
ENDBRANCH   1   2
BRANCH   1  15
ATOM     15  N   UNL     1      45.940   5.845  14.036  0.00  0.00    +0.000 N 
ATOM     16  C   UNL     1      47.264   5.474  14.032  0.00  0.00    +0.000 C 
ATOM     17  O   UNL     1      48.024   5.748  13.111  0.00  0.00    +0.000 OA
ATOM     18  H   UNL     1      45.316   5.484  14.743  0.00  0.00    +0.000 HD
BRANCH  16  19
ATOM     19  C   UNL     1      47.716   4.778  15.236  0.00  0.00    +0.000 A 
ATOM     20  C   UNL     1      47.543   3.419  15.454  0.00  0.00    +0.000 A 
ATOM     21  S   UNL     1      48.000   2.930  17.028  0.00  0.00    +0.000 S 
ATOM     22  C   UNL     1      48.435   4.518  17.460  0.00  0.00    +0.000 A 
ATOM     23  N   UNL     1      48.854   4.822  18.718  0.00  0.00    +0.000 NA
ATOM     24  C   UNL     1      49.125   6.073  18.896  0.00  0.00    +0.000 A 
ATOM     25  N   UNL     1      49.046   7.040  17.926  0.00  0.00    +0.000 N 
ATOM     26  C   UNL     1      48.747   6.756  16.612  0.00  0.00    +0.000 A 
ATOM     27  O   UNL     1      48.936   7.582  15.727  0.00  0.00    +0.000 OA
ATOM     28  C   UNL     1      48.306   5.391  16.397  0.00  0.00    +0.000 A 
ATOM     29  H   UNL     1      49.360   7.982  18.109  0.00  0.00    +0.000 HD
ENDBRANCH  16  19
ENDBRANCH   1  15
BRANCH   1  30
ATOM     30  C   UNL     1      46.193   7.885  12.641  0.00  0.00    +0.000 C 
BRANCH  30  31
ATOM     31  N   UNL     1      46.585   8.641  13.836  0.00  0.00    +0.000 NA
ATOM     32  H   UNL     1      47.535   8.388  14.103  0.00  0.00    +0.000 HD
ATOM     33  H   UNL     1      45.987   8.366  14.616  0.00  0.00    +0.000 HD
ENDBRANCH  30  31
ENDBRANCH   1  30
TORSDOF 7
ENDMDL
MODEL 3
REMARK VINA RESULT:    -8.026      2.910      4.080
REMARK INTER + INTRA:         -11.347
REMARK INTER:                  -9.950
REMARK INTRA:                  -1.397
REMARK UNBOUND:                -0.271
REMARK  Name = 
REMARK  7 active torsions:
REMARK  status: ('A' for Active; 'I' for Inactive)
REMARK    1  A    between atoms: N_1  and  C_2
REMARK    2  A    between atoms: C_2  and  C_3
REMARK    3  A    between atoms: C_3  and  N_4
REMARK    4  A    between atoms: C_3  and  C_17
REMARK    5  A    between atoms: C_5  and  C_7
REMARK    6  A    between atoms: C_20  and  C_21
REMARK    7  A    between atoms: C_21  and  C_22
REMARK                            x       y       z     vdW  Elec       q    Type
REMARK                         _______ _______ _______ _____ _____    ______ ____
ROOT
ATOM      1  C   UNL     1      47.922   4.542  15.383  0.00  0.00    +0.000 C 
ENDROOT
BRANCH   1   2
ATOM      2  C   UNL     1      47.100   4.635  14.105  0.00  0.00    +0.000 A 
ATOM      3  C   UNL     1      46.396   3.505  13.657  0.00  0.00    +0.000 A 
ATOM      4  C   UNL     1      45.640   3.552  12.482  0.00  0.00    +0.000 A 
ATOM      5  C   UNL     1      45.570   4.730  11.727  0.00  0.00    +0.000 A 
ATOM      6  C   UNL     1      46.281   5.852  12.163  0.00  0.00    +0.000 A 
ATOM      7  C   UNL     1      47.050   5.801  13.328  0.00  0.00    +0.000 A 
BRANCH   5   8
ATOM      8  C   UNL     1      44.748   4.799  10.459  0.00  0.00    +0.000 C 
BRANCH   8   9
ATOM      9  C   UNL     1      45.280   4.015   9.279  0.00  0.00    +0.000 A 
ATOM     10  C   UNL     1      45.203   2.622   9.243  0.00  0.00    +0.000 A 
ATOM     11  C   UNL     1      45.835   1.933   8.212  0.00  0.00    +0.000 A 
ATOM     12  C   UNL     1      46.520   2.644   7.237  0.00  0.00    +0.000 A 
ATOM     13  C   UNL     1      46.531   4.025   7.326  0.00  0.00    +0.000 A 
ATOM     14  N   UNL     1      45.935   4.720   8.321  0.00  0.00    +0.000 NA
ENDBRANCH   8   9
ENDBRANCH   5   8
ENDBRANCH   1   2
BRANCH   1  15
ATOM     15  N   UNL     1      47.761   5.786  16.125  0.00  0.00    +0.000 N 
ATOM     16  C   UNL     1      48.844   6.542  16.511  0.00  0.00    +0.000 C 
ATOM     17  O   UNL     1      49.999   6.216  16.264  0.00  0.00    +0.000 OA
ATOM     18  H   UNL     1      46.838   6.015  16.464  0.00  0.00    +0.000 HD
BRANCH  16  19
ATOM     19  C   UNL     1      48.514   7.796  17.186  0.00  0.00    +0.000 A 
ATOM     20  C   UNL     1      48.705   9.050  16.625  0.00  0.00    +0.000 A 
ATOM     21  S   UNL     1      48.408  10.328  17.722  0.00  0.00    +0.000 S 
ATOM     22  C   UNL     1      48.024   9.242  18.976  0.00  0.00    +0.000 A 
ATOM     23  N   UNL     1      47.734   9.680  20.230  0.00  0.00    +0.000 NA
ATOM     24  C   UNL     1      47.487   8.734  21.075  0.00  0.00    +0.000 A 
ATOM     25  N   UNL     1      47.469   7.396  20.774  0.00  0.00    +0.000 N 
ATOM     26  C   UNL     1      47.633   6.917  19.492  0.00  0.00    +0.000 A 
ATOM     27  O   UNL     1      47.358   5.757  19.210  0.00  0.00    +0.000 OA
ATOM     28  C   UNL     1      48.047   7.930  18.541  0.00  0.00    +0.000 A 
ATOM     29  H   UNL     1      47.178   6.715  21.461  0.00  0.00    +0.000 HD
ENDBRANCH  16  19
ENDBRANCH   1  15
BRANCH   1  30
ATOM     30  C   UNL     1      47.610   3.312  16.288  0.00  0.00    +0.000 C 
BRANCH  30  31
ATOM     31  N   UNL     1      46.665   3.587  17.377  0.00  0.00    +0.000 NA
ATOM     32  H   UNL     1      46.741   4.565  17.654  0.00  0.00    +0.000 HD
ATOM     33  H   UNL     1      46.929   3.038  18.195  0.00  0.00    +0.000 HD
ENDBRANCH  30  31
ENDBRANCH   1  30
TORSDOF 7
ENDMDL
MODEL 4
REMARK VINA RESULT:    -8.023      1.525      1.851
REMARK INTER + INTRA:         -11.343
REMARK INTER:                 -10.077
REMARK INTRA:                  -1.266
REMARK UNBOUND:                -0.271
REMARK  Name = 
REMARK  7 active torsions:
REMARK  status: ('A' for Active; 'I' for Inactive)
REMARK    1  A    between atoms: N_1  and  C_2
REMARK    2  A    between atoms: C_2  and  C_3
REMARK    3  A    between atoms: C_3  and  N_4
REMARK    4  A    between atoms: C_3  and  C_17
REMARK    5  A    between atoms: C_5  and  C_7
REMARK    6  A    between atoms: C_20  and  C_21
REMARK    7  A    between atoms: C_21  and  C_22
REMARK                            x       y       z     vdW  Elec       q    Type
REMARK                         _______ _______ _______ _____ _____    ______ ____
ROOT
ATOM      1  C   UNL     1      47.429   7.616  13.875  0.00  0.00    +0.000 C 
ENDROOT
BRANCH   1   2
ATOM      2  C   UNL     1      46.651   6.685  12.954  0.00  0.00    +0.000 A 
ATOM      3  C   UNL     1      46.044   7.209  11.801  0.00  0.00    +0.000 A 
ATOM      4  C   UNL     1      45.314   6.385  10.939  0.00  0.00    +0.000 A 
ATOM      5  C   UNL     1      45.174   5.018  11.210  0.00  0.00    +0.000 A 
ATOM      6  C   UNL     1      45.766   4.496  12.365  0.00  0.00    +0.000 A 
ATOM      7  C   UNL     1      46.482   5.322  13.235  0.00  0.00    +0.000 A 
BRANCH   5   8
ATOM      8  C   UNL     1      44.396   4.112  10.282  0.00  0.00    +0.000 C 
BRANCH   8   9
ATOM      9  C   UNL     1      45.177   3.502   9.138  0.00  0.00    +0.000 A 
ATOM     10  C   UNL     1      45.382   2.124   9.058  0.00  0.00    +0.000 A 
ATOM     11  C   UNL     1      46.229   1.620   8.074  0.00  0.00    +0.000 A 
ATOM     12  C   UNL     1      46.845   2.496   7.191  0.00  0.00    +0.000 A 
ATOM     13  C   UNL     1      46.573   3.847   7.318  0.00  0.00    +0.000 A 
ATOM     14  N   UNL     1      45.763   4.365   8.269  0.00  0.00    +0.000 NA
ENDBRANCH   8   9
ENDBRANCH   5   8
ENDBRANCH   1   2
BRANCH   1  15
ATOM     15  N   UNL     1      48.366   6.816  14.653  0.00  0.00    +0.000 N 
ATOM     16  C   UNL     1      48.801   7.218  15.895  0.00  0.00    +0.000 C 
ATOM     17  O   UNL     1      48.437   8.266  16.415  0.00  0.00    +0.000 OA
ATOM     18  H   UNL     1      48.791   6.019  14.202  0.00  0.00    +0.000 HD
BRANCH  16  19
ATOM     19  C   UNL     1      49.684   6.273  16.578  0.00  0.00    +0.000 A 
ATOM     20  C   UNL     1      50.981   6.571  16.967  0.00  0.00    +0.000 A 
ATOM     21  S   UNL     1      51.829   5.212  17.567  0.00  0.00    +0.000 S 
ATOM     22  C   UNL     1      50.489   4.191  17.318  0.00  0.00    +0.000 A 
ATOM     23  N   UNL     1      50.559   2.856  17.567  0.00  0.00    +0.000 NA
ATOM     24  C   UNL     1      49.468   2.213  17.306  0.00  0.00    +0.000 A 
ATOM     25  N   UNL     1      48.307   2.787  16.852  0.00  0.00    +0.000 N 
ATOM     26  C   UNL     1      48.155   4.148  16.707  0.00  0.00    +0.000 A 
ATOM     27  O   UNL     1      47.047   4.648  16.554  0.00  0.00    +0.000 OA
ATOM     28  C   UNL     1      49.391   4.892  16.857  0.00  0.00    +0.000 A 
ATOM     29  H   UNL     1      47.464   2.240  16.756  0.00  0.00    +0.000 HD
ENDBRANCH  16  19
ENDBRANCH   1  15
BRANCH   1  30
ATOM     30  C   UNL     1      48.162   8.795  13.166  0.00  0.00    +0.000 C 
BRANCH  30  31
ATOM     31  N   UNL     1      47.966  10.100  13.805  0.00  0.00    +0.000 NA
ATOM     32  H   UNL     1      47.508  10.734  13.152  0.00  0.00    +0.000 HD
ATOM     33  H   UNL     1      48.876  10.512  14.011  0.00  0.00    +0.000 HD
ENDBRANCH  30  31
ENDBRANCH   1  30
TORSDOF 7
ENDMDL
MODEL 5
REMARK VINA RESULT:    -7.606      2.284      3.214
REMARK INTER + INTRA:         -10.767
REMARK INTER:                  -9.328
REMARK INTRA:                  -1.438
REMARK UNBOUND:                -0.271
REMARK  Name = 
REMARK  7 active torsions:
REMARK  status: ('A' for Active; 'I' for Inactive)
REMARK    1  A    between atoms: N_1  and  C_2
REMARK    2  A    between atoms: C_2  and  C_3
REMARK    3  A    between atoms: C_3  and  N_4
REMARK    4  A    between atoms: C_3  and  C_17
REMARK    5  A    between atoms: C_5  and  C_7
REMARK    6  A    between atoms: C_20  and  C_21
REMARK    7  A    between atoms: C_21  and  C_22
REMARK                            x       y       z     vdW  Elec       q    Type
REMARK                         _______ _______ _______ _____ _____    ______ ____
ROOT
ATOM      1  C   UNL     1      47.999   7.685  14.057  0.00  0.00    +0.000 C 
ENDROOT
BRANCH   1   2
ATOM      2  C   UNL     1      47.036   6.937  13.144  0.00  0.00    +0.000 A 
ATOM      3  C   UNL     1      46.844   5.558  13.329  0.00  0.00    +0.000 A 
ATOM      4  C   UNL     1      45.975   4.839  12.503  0.00  0.00    +0.000 A 
ATOM      5  C   UNL     1      45.277   5.482  11.472  0.00  0.00    +0.000 A 
ATOM      6  C   UNL     1      45.478   6.853  11.277  0.00  0.00    +0.000 A 
ATOM      7  C   UNL     1      46.358   7.569  12.092  0.00  0.00    +0.000 A 
BRANCH   5   8
ATOM      8  C   UNL     1      44.326   4.720  10.576  0.00  0.00    +0.000 C 
BRANCH   8   9
ATOM      9  C   UNL     1      44.964   3.898   9.478  0.00  0.00    +0.000 A 
ATOM     10  C   UNL     1      44.983   2.504   9.538  0.00  0.00    +0.000 A 
ATOM     11  C   UNL     1      45.707   1.793   8.584  0.00  0.00    +0.000 A 
ATOM     12  C   UNL     1      46.387   2.483   7.591  0.00  0.00    +0.000 A 
ATOM     13  C   UNL     1      46.300   3.865   7.582  0.00  0.00    +0.000 A 
ATOM     14  N   UNL     1      45.613   4.581   8.500  0.00  0.00    +0.000 NA
ENDBRANCH   8   9
ENDBRANCH   5   8
ENDBRANCH   1   2
BRANCH   1  15
ATOM     15  N   UNL     1      48.456   6.769  15.094  0.00  0.00    +0.000 N 
ATOM     16  C   UNL     1      48.628   7.179  16.395  0.00  0.00    +0.000 C 
ATOM     17  O   UNL     1      48.419   8.331  16.758  0.00  0.00    +0.000 OA
ATOM     18  H   UNL     1      48.768   5.852  14.808  0.00  0.00    +0.000 HD
BRANCH  16  19
ATOM     19  C   UNL     1      49.023   6.127  17.330  0.00  0.00    +0.000 A 
ATOM     20  C   UNL     1      48.134   5.445  18.147  0.00  0.00    +0.000 A 
ATOM     21  S   UNL     1      48.910   4.410  19.266  0.00  0.00    +0.000 S 
ATOM     22  C   UNL     1      50.452   4.850  18.694  0.00  0.00    +0.000 A 
ATOM     23  N   UNL     1      51.586   4.370  19.270  0.00  0.00    +0.000 NA
ATOM     24  C   UNL     1      52.678   4.814  18.738  0.00  0.00    +0.000 A 
ATOM     25  N   UNL     1      52.738   5.665  17.664  0.00  0.00    +0.000 N 
ATOM     26  C   UNL     1      51.619   6.075  16.973  0.00  0.00    +0.000 A 
ATOM     27  O   UNL     1      51.714   6.616  15.877  0.00  0.00    +0.000 OA
ATOM     28  C   UNL     1      50.371   5.712  17.616  0.00  0.00    +0.000 A 
ATOM     29  H   UNL     1      53.624   5.901  17.240  0.00  0.00    +0.000 HD
ENDBRANCH  16  19
ENDBRANCH   1  15
BRANCH   1  30
ATOM     30  C   UNL     1      49.209   8.358  13.340  0.00  0.00    +0.000 C 
BRANCH  30  31
ATOM     31  N   UNL     1      50.406   7.514  13.255  0.00  0.00    +0.000 NA
ATOM     32  H   UNL     1      51.213   8.033  13.598  0.00  0.00    +0.000 HD
ATOM     33  H   UNL     1      50.598   7.305  12.275  0.00  0.00    +0.000 HD
ENDBRANCH  30  31
ENDBRANCH   1  30
TORSDOF 7
ENDMDL
MODEL 6
REMARK VINA RESULT:    -7.571      3.738      4.496
REMARK INTER + INTRA:         -10.719
REMARK INTER:                  -9.865
REMARK INTRA:                  -0.854
REMARK UNBOUND:                -0.271
REMARK  Name = 
REMARK  7 active torsions:
REMARK  status: ('A' for Active; 'I' for Inactive)
REMARK    1  A    between atoms: N_1  and  C_2
REMARK    2  A    between atoms: C_2  and  C_3
REMARK    3  A    between atoms: C_3  and  N_4
REMARK    4  A    between atoms: C_3  and  C_17
REMARK    5  A    between atoms: C_5  and  C_7
REMARK    6  A    between atoms: C_20  and  C_21
REMARK    7  A    between atoms: C_21  and  C_22
REMARK                            x       y       z     vdW  Elec       q    Type
REMARK                         _______ _______ _______ _____ _____    ______ ____
ROOT
ATOM      1  C   UNL     1      44.724   8.430  11.852  0.00  0.00    +0.000 C 
ENDROOT
BRANCH   1   2
ATOM      2  C   UNL     1      44.687   7.018  11.282  0.00  0.00    +0.000 A 
ATOM      3  C   UNL     1      43.477   6.304  11.292  0.00  0.00    +0.000 A 
ATOM      4  C   UNL     1      43.409   5.003  10.786  0.00  0.00    +0.000 A 
ATOM      5  C   UNL     1      44.550   4.384  10.258  0.00  0.00    +0.000 A 
ATOM      6  C   UNL     1      45.759   5.087  10.260  0.00  0.00    +0.000 A 
ATOM      7  C   UNL     1      45.831   6.382  10.779  0.00  0.00    +0.000 A 
BRANCH   5   8
ATOM      8  C   UNL     1      44.491   2.980   9.698  0.00  0.00    +0.000 C 
BRANCH   8   9
ATOM      9  C   UNL     1      45.388   2.700   8.511  0.00  0.00    +0.000 A 
ATOM     10  C   UNL     1      46.082   1.495   8.400  0.00  0.00    +0.000 A 
ATOM     11  C   UNL     1      47.008   1.337   7.372  0.00  0.00    +0.000 A 
ATOM     12  C   UNL     1      47.215   2.376   6.477  0.00  0.00    +0.000 A 
ATOM     13  C   UNL     1      46.471   3.532   6.637  0.00  0.00    +0.000 A 
ATOM     14  N   UNL     1      45.573   3.717   7.630  0.00  0.00    +0.000 NA
ENDBRANCH   8   9
ENDBRANCH   5   8
ENDBRANCH   1   2
BRANCH   1  15
ATOM     15  N   UNL     1      46.047   8.990  11.608  0.00  0.00    +0.000 N 
ATOM     16  C   UNL     1      46.960   9.155  12.623  0.00  0.00    +0.000 C 
ATOM     17  O   UNL     1      46.717   8.852  13.785  0.00  0.00    +0.000 OA
ATOM     18  H   UNL     1      46.232   9.377  10.694  0.00  0.00    +0.000 HD
BRANCH  16  19
ATOM     19  C   UNL     1      48.266   9.664  12.206  0.00  0.00    +0.000 A 
ATOM     20  C   UNL     1      48.542  11.008  12.002  0.00  0.00    +0.000 A 
ATOM     21  S   UNL     1      50.094  11.279  11.334  0.00  0.00    +0.000 S 
ATOM     22  C   UNL     1      50.433   9.611  11.294  0.00  0.00    +0.000 A 
ATOM     23  N   UNL     1      51.593   9.136  10.765  0.00  0.00    +0.000 NA
ATOM     24  C   UNL     1      51.693   7.847  10.786  0.00  0.00    +0.000 A 
ATOM     25  N   UNL     1      50.757   6.995  11.316  0.00  0.00    +0.000 N 
ATOM     26  C   UNL     1      49.630   7.438  11.972  0.00  0.00    +0.000 A 
ATOM     27  O   UNL     1      48.953   6.677  12.653  0.00  0.00    +0.000 OA
ATOM     28  C   UNL     1      49.411   8.867  11.852  0.00  0.00    +0.000 A 
ATOM     29  H   UNL     1      50.940   6.004  11.383  0.00  0.00    +0.000 HD
ENDBRANCH  16  19
ENDBRANCH   1  15
BRANCH   1  30
ATOM     30  C   UNL     1      43.611   9.388  11.330  0.00  0.00    +0.000 C 
BRANCH  30  31
ATOM     31  N   UNL     1      43.509  10.653  12.067  0.00  0.00    +0.000 NA
ATOM     32  H   UNL     1      42.991  10.503  12.931  0.00  0.00    +0.000 HD
ATOM     33  H   UNL     1      42.962  11.316  11.517  0.00  0.00    +0.000 HD
ENDBRANCH  30  31
ENDBRANCH   1  30
TORSDOF 7
ENDMDL
MODEL 7
REMARK VINA RESULT:    -7.563      1.983      2.848
REMARK INTER + INTRA:         -10.708
REMARK INTER:                  -9.921
REMARK INTRA:                  -0.787
REMARK UNBOUND:                -0.271
REMARK  Name = 
REMARK  7 active torsions:
REMARK  status: ('A' for Active; 'I' for Inactive)
REMARK    1  A    between atoms: N_1  and  C_2
REMARK    2  A    between atoms: C_2  and  C_3
REMARK    3  A    between atoms: C_3  and  N_4
REMARK    4  A    between atoms: C_3  and  C_17
REMARK    5  A    between atoms: C_5  and  C_7
REMARK    6  A    between atoms: C_20  and  C_21
REMARK    7  A    between atoms: C_21  and  C_22
REMARK                            x       y       z     vdW  Elec       q    Type
REMARK                         _______ _______ _______ _____ _____    ______ ____
ROOT
ATOM      1  C   UNL     1      44.440   4.356  13.242  0.00  0.00    +0.000 C 
ENDROOT
BRANCH   1   2
ATOM      2  C   UNL     1      44.536   4.137  11.738  0.00  0.00    +0.000 A 
ATOM      3  C   UNL     1      45.118   5.131  10.934  0.00  0.00    +0.000 A 
ATOM      4  C   UNL     1      45.213   4.967   9.549  0.00  0.00    +0.000 A 
ATOM      5  C   UNL     1      44.728   3.805   8.935  0.00  0.00    +0.000 A 
ATOM      6  C   UNL     1      44.135   2.820   9.731  0.00  0.00    +0.000 A 
ATOM      7  C   UNL     1      44.026   2.990  11.113  0.00  0.00    +0.000 A 
BRANCH   5   8
ATOM      8  C   UNL     1      44.833   3.608   7.439  0.00  0.00    +0.000 C 
BRANCH   8   9
ATOM      9  C   UNL     1      46.116   2.980   6.939  0.00  0.00    +0.000 A 
ATOM     10  C   UNL     1      46.663   3.339   5.707  0.00  0.00    +0.000 A 
ATOM     11  C   UNL     1      47.760   2.633   5.219  0.00  0.00    +0.000 A 
ATOM     12  C   UNL     1      48.290   1.594   5.972  0.00  0.00    +0.000 A 
ATOM     13  C   UNL     1      47.708   1.314   7.196  0.00  0.00    +0.000 A 
ATOM     14  N   UNL     1      46.638   1.976   7.690  0.00  0.00    +0.000 NA
ENDBRANCH   8   9
ENDBRANCH   5   8
ENDBRANCH   1   2
BRANCH   1  15
ATOM     15  N   UNL     1      45.525   5.238  13.649  0.00  0.00    +0.000 N 
ATOM     16  C   UNL     1      46.725   4.745  14.106  0.00  0.00    +0.000 C 
ATOM     17  O   UNL     1      46.950   3.545  14.206  0.00  0.00    +0.000 OA
ATOM     18  H   UNL     1      45.329   6.227  13.711  0.00  0.00    +0.000 HD
BRANCH  16  19
ATOM     19  C   UNL     1      47.736   5.756  14.409  0.00  0.00    +0.000 A 
ATOM     20  C   UNL     1      48.221   6.667  13.482  0.00  0.00    +0.000 A 
ATOM     21  S   UNL     1      49.530   7.594  14.075  0.00  0.00    +0.000 S 
ATOM     22  C   UNL     1      49.487   6.801  15.581  0.00  0.00    +0.000 A 
ATOM     23  N   UNL     1      50.400   7.073  16.552  0.00  0.00    +0.000 NA
ATOM     24  C   UNL     1      50.250   6.373  17.628  0.00  0.00    +0.000 A 
ATOM     25  N   UNL     1      49.254   5.452  17.834  0.00  0.00    +0.000 N 
ATOM     26  C   UNL     1      48.238   5.236  16.929  0.00  0.00    +0.000 A 
ATOM     27  O   UNL     1      47.233   4.610  17.242  0.00  0.00    +0.000 OA
ATOM     28  C   UNL     1      48.443   5.899  15.655  0.00  0.00    +0.000 A 
ATOM     29  H   UNL     1      49.140   5.006  18.733  0.00  0.00    +0.000 HD
ENDBRANCH  16  19
ENDBRANCH   1  15
BRANCH   1  30
ATOM     30  C   UNL     1      43.068   4.893  13.750  0.00  0.00    +0.000 C 
BRANCH  30  31
ATOM     31  N   UNL     1      42.326   5.686  12.764  0.00  0.00    +0.000 NA
ATOM     32  H   UNL     1      42.821   5.671  11.873  0.00  0.00    +0.000 HD
ATOM     33  H   UNL     1      42.308   6.661  13.064  0.00  0.00    +0.000 HD
ENDBRANCH  30  31
ENDBRANCH   1  30
TORSDOF 7
ENDMDL
MODEL 8
REMARK VINA RESULT:    -7.466      2.329      2.984
REMARK INTER + INTRA:         -10.574
REMARK INTER:                  -9.532
REMARK INTRA:                  -1.042
REMARK UNBOUND:                -0.271
REMARK  Name = 
REMARK  7 active torsions:
REMARK  status: ('A' for Active; 'I' for Inactive)
REMARK    1  A    between atoms: N_1  and  C_2
REMARK    2  A    between atoms: C_2  and  C_3
REMARK    3  A    between atoms: C_3  and  N_4
REMARK    4  A    between atoms: C_3  and  C_17
REMARK    5  A    between atoms: C_5  and  C_7
REMARK    6  A    between atoms: C_20  and  C_21
REMARK    7  A    between atoms: C_21  and  C_22
REMARK                            x       y       z     vdW  Elec       q    Type
REMARK                         _______ _______ _______ _____ _____    ______ ____
ROOT
ATOM      1  C   UNL     1      48.207   8.068  13.822  0.00  0.00    +0.000 C 
ENDROOT
BRANCH   1   2
ATOM      2  C   UNL     1      47.201   7.250  13.024  0.00  0.00    +0.000 A 
ATOM      3  C   UNL     1      46.323   7.906  12.145  0.00  0.00    +0.000 A 
ATOM      4  C   UNL     1      45.381   7.186  11.404  0.00  0.00    +0.000 A 
ATOM      5  C   UNL     1      45.294   5.793  11.525  0.00  0.00    +0.000 A 
ATOM      6  C   UNL     1      46.157   5.139  12.410  0.00  0.00    +0.000 A 
ATOM      7  C   UNL     1      47.088   5.859  13.162  0.00  0.00    +0.000 A 
BRANCH   5   8
ATOM      8  C   UNL     1      44.286   5.000  10.723  0.00  0.00    +0.000 C 
BRANCH   8   9
ATOM      9  C   UNL     1      44.853   4.106   9.641  0.00  0.00    +0.000 A 
ATOM     10  C   UNL     1      44.778   2.716   9.740  0.00  0.00    +0.000 A 
ATOM     11  C   UNL     1      45.440   1.932   8.799  0.00  0.00    +0.000 A 
ATOM     12  C   UNL     1      46.154   2.547   7.781  0.00  0.00    +0.000 A 
ATOM     13  C   UNL     1      46.162   3.930   7.735  0.00  0.00    +0.000 A 
ATOM     14  N   UNL     1      45.537   4.717   8.639  0.00  0.00    +0.000 NA
ENDBRANCH   8   9
ENDBRANCH   5   8
ENDBRANCH   1   2
BRANCH   1  15
ATOM     15  N   UNL     1      48.050   7.742  15.233  0.00  0.00    +0.000 N 
ATOM     16  C   UNL     1      48.579   8.538  16.222  0.00  0.00    +0.000 C 
ATOM     17  O   UNL     1      49.217   9.556  15.980  0.00  0.00    +0.000 OA
ATOM     18  H   UNL     1      47.652   6.844  15.467  0.00  0.00    +0.000 HD
BRANCH  16  19
ATOM     19  C   UNL     1      48.276   8.114  17.588  0.00  0.00    +0.000 A 
ATOM     20  C   UNL     1      47.679   8.930  18.537  0.00  0.00    +0.000 A 
ATOM     21  S   UNL     1      47.628   8.223  20.093  0.00  0.00    +0.000 S 
ATOM     22  C   UNL     1      48.406   6.812  19.543  0.00  0.00    +0.000 A 
ATOM     23  N   UNL     1      48.735   5.805  20.395  0.00  0.00    +0.000 NA
ATOM     24  C   UNL     1      49.342   4.813  19.831  0.00  0.00    +0.000 A 
ATOM     25  N   UNL     1      49.619   4.721  18.490  0.00  0.00    +0.000 N 
ATOM     26  C   UNL     1      49.193   5.659  17.574  0.00  0.00    +0.000 A 
ATOM     27  O   UNL     1      49.226   5.428  16.372  0.00  0.00    +0.000 OA
ATOM     28  C   UNL     1      48.630   6.850  18.180  0.00  0.00    +0.000 A 
ATOM     29  H   UNL     1      50.014   3.878  18.101  0.00  0.00    +0.000 HD
ENDBRANCH  16  19
ENDBRANCH   1  15
BRANCH   1  30
ATOM     30  C   UNL     1      49.693   7.913  13.379  0.00  0.00    +0.000 C 
BRANCH  30  31
ATOM     31  N   UNL     1      50.522   7.134  14.306  0.00  0.00    +0.000 NA
ATOM     32  H   UNL     1      49.961   6.849  15.107  0.00  0.00    +0.000 HD
ATOM     33  H   UNL     1      51.263   7.731  14.674  0.00  0.00    +0.000 HD
ENDBRANCH  30  31
ENDBRANCH   1  30
TORSDOF 7
ENDMDL
MODEL 9
REMARK VINA RESULT:    -7.325      4.761      7.092
REMARK INTER + INTRA:         -10.379
REMARK INTER:                  -8.923
REMARK INTRA:                  -1.456
REMARK UNBOUND:                -0.271
REMARK  Name = 
REMARK  7 active torsions:
REMARK  status: ('A' for Active; 'I' for Inactive)
REMARK    1  A    between atoms: N_1  and  C_2
REMARK    2  A    between atoms: C_2  and  C_3
REMARK    3  A    between atoms: C_3  and  N_4
REMARK    4  A    between atoms: C_3  and  C_17
REMARK    5  A    between atoms: C_5  and  C_7
REMARK    6  A    between atoms: C_20  and  C_21
REMARK    7  A    between atoms: C_21  and  C_22
REMARK                            x       y       z     vdW  Elec       q    Type
REMARK                         _______ _______ _______ _____ _____    ______ ____
ROOT
ATOM      1  C   UNL     1      47.936   7.608  13.177  0.00  0.00    +0.000 C 
ENDROOT
BRANCH   1   2
ATOM      2  C   UNL     1      49.064   8.208  12.350  0.00  0.00    +0.000 A 
ATOM      3  C   UNL     1      50.130   7.388  11.943  0.00  0.00    +0.000 A 
ATOM      4  C   UNL     1      51.187   7.908  11.192  0.00  0.00    +0.000 A 
ATOM      5  C   UNL     1      51.205   9.261  10.829  0.00  0.00    +0.000 A 
ATOM      6  C   UNL     1      50.152  10.083  11.245  0.00  0.00    +0.000 A 
ATOM      7  C   UNL     1      49.103   9.567  12.009  0.00  0.00    +0.000 A 
BRANCH   5   8
ATOM      8  C   UNL     1      52.337   9.837  10.007  0.00  0.00    +0.000 C 
BRANCH   8   9
ATOM      9  C   UNL     1      53.258   8.832   9.349  0.00  0.00    +0.000 A 
ATOM     10  C   UNL     1      52.895   8.187   8.166  0.00  0.00    +0.000 A 
ATOM     11  C   UNL     1      53.702   7.165   7.675  0.00  0.00    +0.000 A 
ATOM     12  C   UNL     1      54.854   6.814   8.365  0.00  0.00    +0.000 A 
ATOM     13  C   UNL     1      55.161   7.517   9.517  0.00  0.00    +0.000 A 
ATOM     14  N   UNL     1      54.391   8.507  10.023  0.00  0.00    +0.000 NA
ENDBRANCH   8   9
ENDBRANCH   5   8
ENDBRANCH   1   2
BRANCH   1  15
ATOM     15  N   UNL     1      47.308   6.547  12.400  0.00  0.00    +0.000 N 
ATOM     16  C   UNL     1      46.169   6.769  11.662  0.00  0.00    +0.000 C 
ATOM     17  O   UNL     1      45.613   7.859  11.619  0.00  0.00    +0.000 OA
ATOM     18  H   UNL     1      47.658   5.607  12.519  0.00  0.00    +0.000 HD
BRANCH  16  19
ATOM     19  C   UNL     1      45.703   5.623  10.882  0.00  0.00    +0.000 A 
ATOM     20  C   UNL     1      45.818   5.528   9.504  0.00  0.00    +0.000 A 
ATOM     21  S   UNL     1      45.012   4.165   8.857  0.00  0.00    +0.000 S 
ATOM     22  C   UNL     1      44.484   3.671  10.398  0.00  0.00    +0.000 A 
ATOM     23  N   UNL     1      43.676   2.589  10.558  0.00  0.00    +0.000 NA
ATOM     24  C   UNL     1      43.342   2.356  11.785  0.00  0.00    +0.000 A 
ATOM     25  N   UNL     1      43.769   3.084  12.867  0.00  0.00    +0.000 N 
ATOM     26  C   UNL     1      44.685   4.108  12.763  0.00  0.00    +0.000 A 
ATOM     27  O   UNL     1      45.239   4.564  13.756  0.00  0.00    +0.000 OA
ATOM     28  C   UNL     1      44.980   4.489  11.395  0.00  0.00    +0.000 A 
ATOM     29  H   UNL     1      43.544   2.793  13.807  0.00  0.00    +0.000 HD
ENDBRANCH  16  19
ENDBRANCH   1  15
BRANCH   1  30
ATOM     30  C   UNL     1      48.347   7.091  14.590  0.00  0.00    +0.000 C 
BRANCH  30  31
ATOM     31  N   UNL     1      47.871   5.739  14.900  0.00  0.00    +0.000 NA
ATOM     32  H   UNL     1      47.330   5.379  14.116  0.00  0.00    +0.000 HD
ATOM     33  H   UNL     1      47.230   5.784  15.693  0.00  0.00    +0.000 HD
ENDBRANCH  30  31
ENDBRANCH   1  30
TORSDOF 7
ENDMDL
