MODEL 1
REMARK VINA RESULT:    -7.953      0.000      0.000
REMARK INTER + INTRA:         -13.473
REMARK INTER:                 -12.370
REMARK INTRA:                  -1.102
REMARK UNBOUND:                -1.102
REMARK  Name = 
REMARK  10 active torsions:
REMARK  status: ('A' for Active; 'I' for Inactive)
REMARK    1  A    between atoms: N_1  and  C_2
REMARK    2  A    between atoms: C_2  and  C_3
REMARK    3  A    between atoms: C_3  and  N_4
REMARK    4  A    between atoms: C_3  and  C_20
REMARK    5  A    between atoms: N_4  and  C_5
REMARK    6  A    between atoms: C_5  and  C_6
REMARK    7  A    between atoms: C_9  and  C_10
REMARK    8  A    between atoms: C_10  and  N_11
REMARK    9  A    between atoms: N_11  and  C_12
REMARK   10  A    between atoms: C_12  and  C_13
REMARK                            x       y       z     vdW  Elec       q    Type
REMARK                         _______ _______ _______ _____ _____    ______ ____
ROOT
ATOM      1  N   UNL     1      47.952   5.943  15.900  0.00  0.00    +0.000 NA
ATOM      2  H   UNL     1      48.645   6.587  16.293  0.00  0.00    +0.000 HD
ENDROOT
BRANCH   1   3
ATOM      3  C   UNL     1      48.127   4.624  16.544  0.00  0.00    +0.000 C 
BRANCH   3   4
ATOM      4  C   UNL     1      49.495   4.612  17.218  0.00  0.00    +0.000 A 
ATOM      5  C   UNL     1      50.066   5.680  17.895  0.00  0.00    +0.000 A 
ATOM      6  S   UNL     1      51.597   5.324  18.561  0.00  0.00    +0.000 S 
ATOM      7  C   UNL     1      51.536   3.721  17.991  0.00  0.00    +0.000 A 
ATOM      8  N   UNL     1      52.547   2.845  18.237  0.00  0.00    +0.000 NA
ATOM      9  C   UNL     1      52.344   1.658  17.765  0.00  0.00    +0.000 A 
ATOM     10  N   UNL     1      51.225   1.270  17.067  0.00  0.00    +0.000 N 
ATOM     11  C   UNL     1      50.177   2.120  16.796  0.00  0.00    +0.000 A 
ATOM     12  O   UNL     1      49.180   1.741  16.190  0.00  0.00    +0.000 OA
ATOM     13  C   UNL     1      50.366   3.466  17.301  0.00  0.00    +0.000 A 
ATOM     14  H   UNL     1      51.128   0.323  16.733  0.00  0.00    +0.000 HD
ENDBRANCH   3   4
BRANCH   3  15
ATOM     15  C   UNL     1      47.005   4.284  17.580  0.00  0.00    +0.000 C 
BRANCH  15  16
ATOM     16  N   UNL     1      46.677   2.854  17.665  0.00  0.00    +0.000 NA
ATOM     17  H   UNL     1      46.357   2.621  18.601  0.00  0.00    +0.000 HD
ATOM     18  H   UNL     1      47.524   2.318  17.472  0.00  0.00    +0.000 HD
ENDBRANCH  15  16
ENDBRANCH   3  15
ENDBRANCH   1   3
BRANCH   1  19
ATOM     19  C   UNL     1      48.204   5.912  14.456  0.00  0.00    +0.000 C 
BRANCH  19  20
ATOM     20  C   UNL     1      46.991   5.396  13.703  0.00  0.00    +0.000 A 
ATOM     21  C   UNL     1      46.828   4.029  13.500  0.00  0.00    +0.000 A 
ATOM     22  C   UNL     1      45.683   3.578  12.851  0.00  0.00    +0.000 A 
ATOM     23  C   UNL     1      44.714   4.491  12.431  0.00  0.00    +0.000 A 
ATOM     24  C   UNL     1      44.969   5.840  12.662  0.00  0.00    +0.000 A 
ATOM     25  N   UNL     1      46.078   6.311  13.279  0.00  0.00    +0.000 NA
BRANCH  23  26
ATOM     26  C   UNL     1      43.450   4.031  11.758  0.00  0.00    +0.000 C 
BRANCH  26  27
ATOM     27  N   UNL     1      43.761   3.241  10.562  0.00  0.00    +0.000 NA
ATOM     28  H   UNL     1      42.905   2.764  10.271  0.00  0.00    +0.000 HD
BRANCH  27  29
ATOM     29  C   UNL     1      44.181   4.123   9.467  0.00  0.00    +0.000 C 
BRANCH  29  30
ATOM     30  C   UNL     1      45.211   3.467   8.605  0.00  0.00    +0.000 A 
ATOM     31  N   UNL     1      45.913   4.027   7.640  0.00  0.00    +0.000 NA
ATOM     32  C   UNL     1      46.729   3.039   7.153  0.00  0.00    +0.000 A 
ATOM     33  C   UNL     1      46.521   1.859   7.824  0.00  0.00    +0.000 A 
ATOM     34  N   UNL     1      45.559   2.144   8.750  0.00  0.00    +0.000 N 
ATOM     35  H   UNL     1      45.136   1.513   9.418  0.00  0.00    +0.000 HD
ENDBRANCH  29  30
ENDBRANCH  27  29
ENDBRANCH  26  27
ENDBRANCH  23  26
ENDBRANCH  19  20
ENDBRANCH   1  19
TORSDOF 10
ENDMDL
MODEL 2
REMARK VINA RESULT:    -7.349      1.335      2.074
REMARK INTER + INTRA:         -12.533
REMARK INTER:                 -11.521
REMARK INTRA:                  -1.012
REMARK UNBOUND:                -1.102
REMARK  Name = 
REMARK  10 active torsions:
REMARK  status: ('A' for Active; 'I' for Inactive)
REMARK    1  A    between atoms: N_1  and  C_2
REMARK    2  A    between atoms: C_2  and  C_3
REMARK    3  A    between atoms: C_3  and  N_4
REMARK    4  A    between atoms: C_3  and  C_20
REMARK    5  A    between atoms: N_4  and  C_5
REMARK    6  A    between atoms: C_5  and  C_6
REMARK    7  A    between atoms: C_9  and  C_10
REMARK    8  A    between atoms: C_10  and  N_11
REMARK    9  A    between atoms: N_11  and  C_12
REMARK   10  A    between atoms: C_12  and  C_13
REMARK                            x       y       z     vdW  Elec       q    Type
REMARK                         _______ _______ _______ _____ _____    ______ ____
ROOT
ATOM      1  N   UNL     1      48.965   6.344  16.831  0.00  0.00    +0.000 NA
ATOM      2  H   UNL     1      49.671   6.753  17.452  0.00  0.00    +0.000 HD
ENDROOT
BRANCH   1   3
ATOM      3  C   UNL     1      48.883   4.896  17.114  0.00  0.00    +0.000 C 
BRANCH   3   4
ATOM      4  C   UNL     1      50.189   4.475  17.779  0.00  0.00    +0.000 A 
ATOM      5  C   UNL     1      50.928   5.252  18.659  0.00  0.00    +0.000 A 
ATOM      6  S   UNL     1      52.327   4.470  19.249  0.00  0.00    +0.000 S 
ATOM      7  C   UNL     1      51.976   3.055  18.370  0.00  0.00    +0.000 A 
ATOM      8  N   UNL     1      52.782   1.962  18.440  0.00  0.00    +0.000 NA
ATOM      9  C   UNL     1      52.369   0.956  17.740  0.00  0.00    +0.000 A 
ATOM     10  N   UNL     1      51.229   0.947  16.972  0.00  0.00    +0.000 N 
ATOM     11  C   UNL     1      50.383   2.028  16.871  0.00  0.00    +0.000 A 
ATOM     12  O   UNL     1      49.360   1.984  16.196  0.00  0.00    +0.000 OA
ATOM     13  C   UNL     1      50.811   3.183  17.636  0.00  0.00    +0.000 A 
ATOM     14  H   UNL     1      50.962   0.122  16.455  0.00  0.00    +0.000 HD
ENDBRANCH   3   4
BRANCH   3  15
ATOM     15  C   UNL     1      47.662   4.506  18.012  0.00  0.00    +0.000 C 
BRANCH  15  16
ATOM     16  N   UNL     1      46.953   3.296  17.572  0.00  0.00    +0.000 NA
ATOM     17  H   UNL     1      46.444   2.884  18.349  0.00  0.00    +0.000 HD
ATOM     18  H   UNL     1      47.644   2.620  17.245  0.00  0.00    +0.000 HD
ENDBRANCH  15  16
ENDBRANCH   3  15
ENDBRANCH   1   3
BRANCH   1  19
ATOM     19  C   UNL     1      49.412   6.635  15.465  0.00  0.00    +0.000 C 
BRANCH  19  20
ATOM     20  C   UNL     1      48.240   6.634  14.499  0.00  0.00    +0.000 A 
ATOM     21  C   UNL     1      47.758   7.836  13.989  0.00  0.00    +0.000 A 
ATOM     22  C   UNL     1      46.717   7.805  13.068  0.00  0.00    +0.000 A 
ATOM     23  C   UNL     1      46.184   6.582  12.659  0.00  0.00    +0.000 A 
ATOM     24  C   UNL     1      46.716   5.432  13.235  0.00  0.00    +0.000 A 
ATOM     25  N   UNL     1      47.721   5.429  14.142  0.00  0.00    +0.000 NA
BRANCH  23  26
ATOM     26  C   UNL     1      45.080   6.516  11.639  0.00  0.00    +0.000 C 
BRANCH  26  27
ATOM     27  N   UNL     1      44.052   5.556  12.053  0.00  0.00    +0.000 NA
ATOM     28  H   UNL     1      43.461   6.012  12.751  0.00  0.00    +0.000 HD
BRANCH  27  29
ATOM     29  C   UNL     1      43.204   5.196  10.910  0.00  0.00    +0.000 C 
BRANCH  29  30
ATOM     30  C   UNL     1      43.853   4.152  10.059  0.00  0.00    +0.000 A 
ATOM     31  N   UNL     1      44.151   2.916  10.408  0.00  0.00    +0.000 NA
ATOM     32  C   UNL     1      44.716   2.343   9.298  0.00  0.00    +0.000 A 
ATOM     33  C   UNL     1      44.768   3.239   8.259  0.00  0.00    +0.000 A 
ATOM     34  N   UNL     1      44.211   4.384   8.752  0.00  0.00    +0.000 N 
ATOM     35  H   UNL     1      44.092   5.269   8.277  0.00  0.00    +0.000 HD
ENDBRANCH  29  30
ENDBRANCH  27  29
ENDBRANCH  26  27
ENDBRANCH  23  26
ENDBRANCH  19  20
ENDBRANCH   1  19
TORSDOF 10
ENDMDL
MODEL 3
REMARK VINA RESULT:    -6.999      1.841      2.416
REMARK INTER + INTRA:         -11.989
REMARK INTER:                 -10.896
REMARK INTRA:                  -1.092
REMARK UNBOUND:                -1.102
REMARK  Name = 
REMARK  10 active torsions:
REMARK  status: ('A' for Active; 'I' for Inactive)
REMARK    1  A    between atoms: N_1  and  C_2
REMARK    2  A    between atoms: C_2  and  C_3
REMARK    3  A    between atoms: C_3  and  N_4
REMARK    4  A    between atoms: C_3  and  C_20
REMARK    5  A    between atoms: N_4  and  C_5
REMARK    6  A    between atoms: C_5  and  C_6
REMARK    7  A    between atoms: C_9  and  C_10
REMARK    8  A    between atoms: C_10  and  N_11
REMARK    9  A    between atoms: N_11  and  C_12
REMARK   10  A    between atoms: C_12  and  C_13
REMARK                            x       y       z     vdW  Elec       q    Type
REMARK                         _______ _______ _______ _____ _____    ______ ____
ROOT
ATOM      1  N   UNL     1      48.370   5.969  14.755  0.00  0.00    +0.000 NA
ATOM      2  H   UNL     1      47.414   5.683  14.985  0.00  0.00    +0.000 HD
ENDROOT
BRANCH   1   3
ATOM      3  C   UNL     1      48.816   6.952  15.763  0.00  0.00    +0.000 C 
BRANCH   3   4
ATOM      4  C   UNL     1      50.274   6.651  16.097  0.00  0.00    +0.000 A 
ATOM      5  C   UNL     1      51.364   7.398  15.677  0.00  0.00    +0.000 A 
ATOM      6  S   UNL     1      52.858   6.805  16.253  0.00  0.00    +0.000 S 
ATOM      7  C   UNL     1      52.095   5.545  17.106  0.00  0.00    +0.000 A 
ATOM      8  N   UNL     1      52.812   4.657  17.847  0.00  0.00    +0.000 NA
ATOM      9  C   UNL     1      52.090   3.776  18.459  0.00  0.00    +0.000 A 
ATOM     10  N   UNL     1      50.720   3.699  18.393  0.00  0.00    +0.000 N 
ATOM     11  C   UNL     1      49.952   4.575  17.659  0.00  0.00    +0.000 A 
ATOM     12  O   UNL     1      48.728   4.496  17.636  0.00  0.00    +0.000 OA
ATOM     13  C   UNL     1      50.722   5.578  16.949  0.00  0.00    +0.000 A 
ATOM     14  H   UNL     1      50.218   2.988  18.904  0.00  0.00    +0.000 HD
ENDBRANCH   3   4
BRANCH   3  15
ATOM     15  C   UNL     1      48.660   8.438  15.296  0.00  0.00    +0.000 C 
BRANCH  15  16
ATOM     16  N   UNL     1      47.667   9.208  16.059  0.00  0.00    +0.000 NA
ATOM     17  H   UNL     1      47.192   9.869  15.452  0.00  0.00    +0.000 HD
ATOM     18  H   UNL     1      48.157   9.732  16.785  0.00  0.00    +0.000 HD
ENDBRANCH  15  16
ENDBRANCH   3  15
ENDBRANCH   1   3
BRANCH   1  19
ATOM     19  C   UNL     1      48.310   6.527  13.400  0.00  0.00    +0.000 C 
BRANCH  19  20
ATOM     20  C   UNL     1      47.052   6.071  12.681  0.00  0.00    +0.000 A 
ATOM     21  C   UNL     1      46.149   5.230  13.324  0.00  0.00    +0.000 A 
ATOM     22  C   UNL     1      44.981   4.866  12.663  0.00  0.00    +0.000 A 
ATOM     23  C   UNL     1      44.724   5.357  11.382  0.00  0.00    +0.000 A 
ATOM     24  C   UNL     1      45.691   6.179  10.810  0.00  0.00    +0.000 A 
ATOM     25  N   UNL     1      46.843   6.541  11.422  0.00  0.00    +0.000 NA
BRANCH  23  26
ATOM     26  C   UNL     1      43.454   5.008  10.656  0.00  0.00    +0.000 C 
BRANCH  26  27
ATOM     27  N   UNL     1      43.750   4.489   9.317  0.00  0.00    +0.000 NA
ATOM     28  H   UNL     1      44.435   5.112   8.884  0.00  0.00    +0.000 HD
BRANCH  27  29
ATOM     29  C   UNL     1      44.353   3.154   9.412  0.00  0.00    +0.000 C 
BRANCH  29  30
ATOM     30  C   UNL     1      45.469   2.989   8.432  0.00  0.00    +0.000 A 
ATOM     31  N   UNL     1      46.008   3.927   7.679  0.00  0.00    +0.000 NA
ATOM     32  C   UNL     1      46.997   3.304   6.962  0.00  0.00    +0.000 A 
ATOM     33  C   UNL     1      47.060   1.969   7.277  0.00  0.00    +0.000 A 
ATOM     34  N   UNL     1      46.090   1.781   8.218  0.00  0.00    +0.000 N 
ATOM     35  H   UNL     1      45.829   0.917   8.675  0.00  0.00    +0.000 HD
ENDBRANCH  29  30
ENDBRANCH  27  29
ENDBRANCH  26  27
ENDBRANCH  23  26
ENDBRANCH  19  20
ENDBRANCH   1  19
TORSDOF 10
ENDMDL
MODEL 4
REMARK VINA RESULT:    -6.388      2.396      3.444
REMARK INTER + INTRA:         -11.038
REMARK INTER:                 -10.013
REMARK INTRA:                  -1.024
REMARK UNBOUND:                -1.102
REMARK  Name = 
REMARK  10 active torsions:
REMARK  status: ('A' for Active; 'I' for Inactive)
REMARK    1  A    between atoms: N_1  and  C_2
REMARK    2  A    between atoms: C_2  and  C_3
REMARK    3  A    between atoms: C_3  and  N_4
REMARK    4  A    between atoms: C_3  and  C_20
REMARK    5  A    between atoms: N_4  and  C_5
REMARK    6  A    between atoms: C_5  and  C_6
REMARK    7  A    between atoms: C_9  and  C_10
REMARK    8  A    between atoms: C_10  and  N_11
REMARK    9  A    between atoms: N_11  and  C_12
REMARK   10  A    between atoms: C_12  and  C_13
REMARK                            x       y       z     vdW  Elec       q    Type
REMARK                         _______ _______ _______ _____ _____    ______ ____
ROOT
ATOM      1  N   UNL     1      49.978   6.852  14.769  0.00  0.00    +0.000 NA
ATOM      2  H   UNL     1      49.365   6.169  15.223  0.00  0.00    +0.000 HD
ENDROOT
BRANCH   1   3
ATOM      3  C   UNL     1      50.303   7.908  15.751  0.00  0.00    +0.000 C 
BRANCH   3   4
ATOM      4  C   UNL     1      49.374   7.732  16.949  0.00  0.00    +0.000 A 
ATOM      5  C   UNL     1      48.473   8.680  17.412  0.00  0.00    +0.000 A 
ATOM      6  S   UNL     1      47.563   8.153  18.756  0.00  0.00    +0.000 S 
ATOM      7  C   UNL     1      48.322   6.629  18.747  0.00  0.00    +0.000 A 
ATOM      8  N   UNL     1      47.986   5.667  19.648  0.00  0.00    +0.000 NA
ATOM      9  C   UNL     1      48.628   4.555  19.496  0.00  0.00    +0.000 A 
ATOM     10  N   UNL     1      49.578   4.320  18.531  0.00  0.00    +0.000 N 
ATOM     11  C   UNL     1      49.948   5.262  17.597  0.00  0.00    +0.000 A 
ATOM     12  O   UNL     1      50.783   5.017  16.732  0.00  0.00    +0.000 OA
ATOM     13  C   UNL     1      49.257   6.529  17.735  0.00  0.00    +0.000 A 
ATOM     14  H   UNL     1      50.036   3.424  18.465  0.00  0.00    +0.000 HD
ENDBRANCH   3   4
BRANCH   3  15
ATOM     15  C   UNL     1      51.798   7.891  16.212  0.00  0.00    +0.000 C 
BRANCH  15  16
ATOM     16  N   UNL     1      52.659   6.994  15.427  0.00  0.00    +0.000 NA
ATOM     17  H   UNL     1      53.185   7.525  14.739  0.00  0.00    +0.000 HD
ATOM     18  H   UNL     1      52.064   6.327  14.934  0.00  0.00    +0.000 HD
ENDBRANCH  15  16
ENDBRANCH   3  15
ENDBRANCH   1   3
BRANCH   1  19
ATOM     19  C   UNL     1      49.233   7.357  13.611  0.00  0.00    +0.000 C 
BRANCH  19  20
ATOM     20  C   UNL     1      47.999   6.513  13.349  0.00  0.00    +0.000 A 
ATOM     21  C   UNL     1      47.220   6.751  12.221  0.00  0.00    +0.000 A 
ATOM     22  C   UNL     1      46.122   5.932  11.977  0.00  0.00    +0.000 A 
ATOM     23  C   UNL     1      45.829   4.883  12.849  0.00  0.00    +0.000 A 
ATOM     24  C   UNL     1      46.652   4.729  13.960  0.00  0.00    +0.000 A 
ATOM     25  N   UNL     1      47.720   5.517  14.232  0.00  0.00    +0.000 NA
BRANCH  23  26
ATOM     26  C   UNL     1      44.669   3.960  12.593  0.00  0.00    +0.000 C 
BRANCH  26  27
ATOM     27  N   UNL     1      45.054   2.891  11.667  0.00  0.00    +0.000 NA
ATOM     28  H   UNL     1      44.819   1.997  12.104  0.00  0.00    +0.000 HD
BRANCH  27  29
ATOM     29  C   UNL     1      44.289   2.999  10.419  0.00  0.00    +0.000 C 
BRANCH  29  30
ATOM     30  C   UNL     1      45.165   2.802   9.224  0.00  0.00    +0.000 A 
ATOM     31  N   UNL     1      45.765   1.687   8.855  0.00  0.00    +0.000 NA
ATOM     32  C   UNL     1      46.439   1.993   7.701  0.00  0.00    +0.000 A 
ATOM     33  C   UNL     1      46.254   3.312   7.363  0.00  0.00    +0.000 A 
ATOM     34  N   UNL     1      45.436   3.814   8.334  0.00  0.00    +0.000 N 
ATOM     35  H   UNL     1      45.096   4.762   8.427  0.00  0.00    +0.000 HD
ENDBRANCH  29  30
ENDBRANCH  27  29
ENDBRANCH  26  27
ENDBRANCH  23  26
ENDBRANCH  19  20
ENDBRANCH   1  19
TORSDOF 10
ENDMDL
MODEL 5
REMARK VINA RESULT:    -6.049      3.229      4.134
REMARK INTER + INTRA:         -10.511
REMARK INTER:                  -9.639
REMARK INTRA:                  -0.871
REMARK UNBOUND:                -1.102
REMARK  Name = 
REMARK  10 active torsions:
REMARK  status: ('A' for Active; 'I' for Inactive)
REMARK    1  A    between atoms: N_1  and  C_2
REMARK    2  A    between atoms: C_2  and  C_3
REMARK    3  A    between atoms: C_3  and  N_4
REMARK    4  A    between atoms: C_3  and  C_20
REMARK    5  A    between atoms: N_4  and  C_5
REMARK    6  A    between atoms: C_5  and  C_6
REMARK    7  A    between atoms: C_9  and  C_10
REMARK    8  A    between atoms: C_10  and  N_11
REMARK    9  A    between atoms: N_11  and  C_12
REMARK   10  A    between atoms: C_12  and  C_13
REMARK                            x       y       z     vdW  Elec       q    Type
REMARK                         _______ _______ _______ _____ _____    ______ ____
ROOT
ATOM      1  N   UNL     1      47.250   8.245  14.233  0.00  0.00    +0.000 NA
ATOM      2  H   UNL     1      46.814   9.159  14.390  0.00  0.00    +0.000 HD
ENDROOT
BRANCH   1   3
ATOM      3  C   UNL     1      48.594   8.261  14.847  0.00  0.00    +0.000 C 
BRANCH   3   4
ATOM      4  C   UNL     1      48.600   7.241  15.982  0.00  0.00    +0.000 A 
ATOM      5  C   UNL     1      48.580   5.863  15.822  0.00  0.00    +0.000 A 
ATOM      6  S   UNL     1      48.626   5.006  17.298  0.00  0.00    +0.000 S 
ATOM      7  C   UNL     1      48.704   6.448  18.200  0.00  0.00    +0.000 A 
ATOM      8  N   UNL     1      48.784   6.429  19.557  0.00  0.00    +0.000 NA
ATOM      9  C   UNL     1      48.865   7.601  20.098  0.00  0.00    +0.000 A 
ATOM     10  N   UNL     1      48.868   8.788  19.405  0.00  0.00    +0.000 N 
ATOM     11  C   UNL     1      48.791   8.857  18.032  0.00  0.00    +0.000 A 
ATOM     12  O   UNL     1      48.819   9.930  17.438  0.00  0.00    +0.000 OA
ATOM     13  C   UNL     1      48.691   7.564  17.384  0.00  0.00    +0.000 A 
ATOM     14  H   UNL     1      48.942   9.669  19.891  0.00  0.00    +0.000 HD
ENDBRANCH   3   4
BRANCH   3  15
ATOM     15  C   UNL     1      49.745   7.956  13.833  0.00  0.00    +0.000 C 
BRANCH  15  16
ATOM     16  N   UNL     1      51.012   7.554  14.462  0.00  0.00    +0.000 NA
ATOM     17  H   UNL     1      51.704   8.290  14.360  0.00  0.00    +0.000 HD
ATOM     18  H   UNL     1      51.356   6.719  13.985  0.00  0.00    +0.000 HD
ENDBRANCH  15  16
ENDBRANCH   3  15
ENDBRANCH   1   3
BRANCH   1  19
ATOM     19  C   UNL     1      47.288   8.060  12.779  0.00  0.00    +0.000 C 
BRANCH  19  20
ATOM     20  C   UNL     1      46.497   6.832  12.367  0.00  0.00    +0.000 A 
ATOM     21  C   UNL     1      46.033   5.946  13.335  0.00  0.00    +0.000 A 
ATOM     22  C   UNL     1      45.269   4.854  12.937  0.00  0.00    +0.000 A 
ATOM     23  C   UNL     1      44.967   4.671  11.586  0.00  0.00    +0.000 A 
ATOM     24  C   UNL     1      45.487   5.597  10.687  0.00  0.00    +0.000 A 
ATOM     25  N   UNL     1      46.244   6.662  11.042  0.00  0.00    +0.000 NA
BRANCH  23  26
ATOM     26  C   UNL     1      44.115   3.519  11.129  0.00  0.00    +0.000 C 
BRANCH  26  27
ATOM     27  N   UNL     1      44.949   2.441  10.591  0.00  0.00    +0.000 NA
ATOM     28  H   UNL     1      44.775   1.602  11.148  0.00  0.00    +0.000 HD
BRANCH  27  29
ATOM     29  C   UNL     1      44.570   2.149   9.203  0.00  0.00    +0.000 C 
BRANCH  29  30
ATOM     30  C   UNL     1      45.771   2.055   8.319  0.00  0.00    +0.000 A 
ATOM     31  N   UNL     1      46.467   0.971   8.039  0.00  0.00    +0.000 NA
ATOM     32  C   UNL     1      47.458   1.377   7.183  0.00  0.00    +0.000 A 
ATOM     33  C   UNL     1      47.371   2.726   6.940  0.00  0.00    +0.000 A 
ATOM     34  N   UNL     1      46.290   3.145   7.662  0.00  0.00    +0.000 N 
ATOM     35  H   UNL     1      45.927   4.086   7.742  0.00  0.00    +0.000 HD
ENDBRANCH  29  30
ENDBRANCH  27  29
ENDBRANCH  26  27
ENDBRANCH  23  26
ENDBRANCH  19  20
ENDBRANCH   1  19
TORSDOF 10
ENDMDL
MODEL 6
REMARK VINA RESULT:    -5.996      3.485      8.159
REMARK INTER + INTRA:         -10.429
REMARK INTER:                  -8.873
REMARK INTRA:                  -1.555
REMARK UNBOUND:                -1.102
REMARK  Name = 
REMARK  10 active torsions:
REMARK  status: ('A' for Active; 'I' for Inactive)
REMARK    1  A    between atoms: N_1  and  C_2
REMARK    2  A    between atoms: C_2  and  C_3
REMARK    3  A    between atoms: C_3  and  N_4
REMARK    4  A    between atoms: C_3  and  C_20
REMARK    5  A    between atoms: N_4  and  C_5
REMARK    6  A    between atoms: C_5  and  C_6
REMARK    7  A    between atoms: C_9  and  C_10
REMARK    8  A    between atoms: C_10  and  N_11
REMARK    9  A    between atoms: N_11  and  C_12
REMARK   10  A    between atoms: C_12  and  C_13
REMARK                            x       y       z     vdW  Elec       q    Type
REMARK                         _______ _______ _______ _____ _____    ______ ____
ROOT
ATOM      1  N   UNL     1      47.908   8.024  12.119  0.00  0.00    +0.000 NA
ATOM      2  H   UNL     1      48.146   8.313  11.165  0.00  0.00    +0.000 HD
ENDROOT
BRANCH   1   3
ATOM      3  C   UNL     1      46.465   7.707  12.160  0.00  0.00    +0.000 C 
BRANCH   3   4
ATOM      4  C   UNL     1      46.321   6.244  12.570  0.00  0.00    +0.000 A 
ATOM      5  C   UNL     1      47.240   5.527  13.321  0.00  0.00    +0.000 A 
ATOM      6  S   UNL     1      46.759   3.918  13.630  0.00  0.00    +0.000 S 
ATOM      7  C   UNL     1      45.292   4.135  12.795  0.00  0.00    +0.000 A 
ATOM      8  N   UNL     1      44.381   3.130  12.694  0.00  0.00    +0.000 NA
ATOM      9  C   UNL     1      43.304   3.455  12.055  0.00  0.00    +0.000 A 
ATOM     10  N   UNL     1      43.059   4.690  11.505  0.00  0.00    +0.000 N 
ATOM     11  C   UNL     1      43.949   5.738  11.584  0.00  0.00    +0.000 A 
ATOM     12  O   UNL     1      43.695   6.837  11.103  0.00  0.00    +0.000 OA
ATOM     13  C   UNL     1      45.176   5.415  12.287  0.00  0.00    +0.000 A 
ATOM     14  H   UNL     1      42.192   4.879  11.025  0.00  0.00    +0.000 HD
ENDBRANCH   3   4
BRANCH   3  15
ATOM     15  C   UNL     1      45.653   8.628  13.131  0.00  0.00    +0.000 C 
BRANCH  15  16
ATOM     16  N   UNL     1      44.575   9.385  12.480  0.00  0.00    +0.000 NA
ATOM     17  H   UNL     1      43.696   9.236  12.968  0.00  0.00    +0.000 HD
ATOM     18  H   UNL     1      44.474   9.043  11.523  0.00  0.00    +0.000 HD
ENDBRANCH  15  16
ENDBRANCH   3  15
ENDBRANCH   1   3
BRANCH   1  19
ATOM     19  C   UNL     1      48.270   9.151  12.984  0.00  0.00    +0.000 C 
BRANCH  19  20
ATOM     20  C   UNL     1      48.929   8.663  14.263  0.00  0.00    +0.000 A 
ATOM     21  C   UNL     1      49.986   7.759  14.200  0.00  0.00    +0.000 A 
ATOM     22  C   UNL     1      50.605   7.366  15.381  0.00  0.00    +0.000 A 
ATOM     23  C   UNL     1      50.173   7.888  16.601  0.00  0.00    +0.000 A 
ATOM     24  C   UNL     1      49.099   8.773  16.570  0.00  0.00    +0.000 A 
ATOM     25  N   UNL     1      48.468   9.166  15.439  0.00  0.00    +0.000 NA
BRANCH  23  26
ATOM     26  C   UNL     1      50.845   7.507  17.892  0.00  0.00    +0.000 C 
BRANCH  26  27
ATOM     27  N   UNL     1      50.774   6.058  18.103  0.00  0.00    +0.000 NA
ATOM     28  H   UNL     1      51.529   5.797  18.740  0.00  0.00    +0.000 HD
BRANCH  27  29
ATOM     29  C   UNL     1      49.501   5.700  18.741  0.00  0.00    +0.000 C 
BRANCH  29  30
ATOM     30  C   UNL     1      48.840   4.560  18.035  0.00  0.00    +0.000 A 
ATOM     31  N   UNL     1      49.373   3.780  17.115  0.00  0.00    +0.000 NA
ATOM     32  C   UNL     1      48.395   2.881  16.779  0.00  0.00    +0.000 A 
ATOM     33  C   UNL     1      47.248   3.116  17.498  0.00  0.00    +0.000 A 
ATOM     34  N   UNL     1      47.545   4.181  18.298  0.00  0.00    +0.000 N 
ATOM     35  H   UNL     1      46.937   4.649  18.957  0.00  0.00    +0.000 HD
ENDBRANCH  29  30
ENDBRANCH  27  29
ENDBRANCH  26  27
ENDBRANCH  23  26
ENDBRANCH  19  20
ENDBRANCH   1  19
TORSDOF 10
ENDMDL
MODEL 7
REMARK VINA RESULT:    -5.912      3.319      8.694
REMARK INTER + INTRA:         -10.298
REMARK INTER:                  -9.495
REMARK INTRA:                  -0.803
REMARK UNBOUND:                -1.102
REMARK  Name = 
REMARK  10 active torsions:
REMARK  status: ('A' for Active; 'I' for Inactive)
REMARK    1  A    between atoms: N_1  and  C_2
REMARK    2  A    between atoms: C_2  and  C_3
REMARK    3  A    between atoms: C_3  and  N_4
REMARK    4  A    between atoms: C_3  and  C_20
REMARK    5  A    between atoms: N_4  and  C_5
REMARK    6  A    between atoms: C_5  and  C_6
REMARK    7  A    between atoms: C_9  and  C_10
REMARK    8  A    between atoms: C_10  and  N_11
REMARK    9  A    between atoms: N_11  and  C_12
REMARK   10  A    between atoms: C_12  and  C_13
REMARK                            x       y       z     vdW  Elec       q    Type
REMARK                         _______ _______ _______ _____ _____    ______ ____
ROOT
ATOM      1  N   UNL     1      46.029   7.094  13.180  0.00  0.00    +0.000 NA
ATOM      2  H   UNL     1      46.738   6.390  13.404  0.00  0.00    +0.000 HD
ENDROOT
BRANCH   1   3
ATOM      3  C   UNL     1      45.538   6.836  11.810  0.00  0.00    +0.000 C 
BRANCH   3   4
ATOM      4  C   UNL     1      44.934   5.435  11.787  0.00  0.00    +0.000 A 
ATOM      5  C   UNL     1      44.257   4.835  12.838  0.00  0.00    +0.000 A 
ATOM      6  S   UNL     1      43.680   3.271  12.472  0.00  0.00    +0.000 S 
ATOM      7  C   UNL     1      44.290   3.354  10.885  0.00  0.00    +0.000 A 
ATOM      8  N   UNL     1      44.121   2.328  10.008  0.00  0.00    +0.000 NA
ATOM      9  C   UNL     1      44.615   2.551   8.834  0.00  0.00    +0.000 A 
ATOM     10  N   UNL     1      45.266   3.702   8.460  0.00  0.00    +0.000 N 
ATOM     11  C   UNL     1      45.460   4.766   9.311  0.00  0.00    +0.000 A 
ATOM     12  O   UNL     1      46.025   5.791   8.943  0.00  0.00    +0.000 OA
ATOM     13  C   UNL     1      44.927   4.557  10.644  0.00  0.00    +0.000 A 
ATOM     14  H   UNL     1      45.621   3.812   7.521  0.00  0.00    +0.000 HD
ENDBRANCH   3   4
BRANCH   3  15
ATOM     15  C   UNL     1      44.491   7.890  11.316  0.00  0.00    +0.000 C 
BRANCH  15  16
ATOM     16  N   UNL     1      43.167   7.327  11.014  0.00  0.00    +0.000 NA
ATOM     17  H   UNL     1      42.829   6.782  11.802  0.00  0.00    +0.000 HD
ATOM     18  H   UNL     1      43.258   6.707  10.209  0.00  0.00    +0.000 HD
ENDBRANCH  15  16
ENDBRANCH   3  15
ENDBRANCH   1   3
BRANCH   1  19
ATOM     19  C   UNL     1      46.693   8.394  13.314  0.00  0.00    +0.000 C 
BRANCH  19  20
ATOM     20  C   UNL     1      47.960   8.274  14.143  0.00  0.00    +0.000 A 
ATOM     21  C   UNL     1      48.028   8.871  15.398  0.00  0.00    +0.000 A 
ATOM     22  C   UNL     1      49.181   8.705  16.159  0.00  0.00    +0.000 A 
ATOM     23  C   UNL     1      50.236   7.936  15.666  0.00  0.00    +0.000 A 
ATOM     24  C   UNL     1      50.087   7.391  14.395  0.00  0.00    +0.000 A 
ATOM     25  N   UNL     1      48.984   7.544  13.625  0.00  0.00    +0.000 NA
BRANCH  23  26
ATOM     26  C   UNL     1      51.481   7.711  16.481  0.00  0.00    +0.000 C 
BRANCH  26  27
ATOM     27  N   UNL     1      51.183   6.903  17.667  0.00  0.00    +0.000 NA
ATOM     28  H   UNL     1      50.193   7.029  17.891  0.00  0.00    +0.000 HD
BRANCH  27  29
ATOM     29  C   UNL     1      51.403   5.480  17.380  0.00  0.00    +0.000 C 
BRANCH  29  30
ATOM     30  C   UNL     1      50.130   4.702  17.475  0.00  0.00    +0.000 A 
ATOM     31  N   UNL     1      49.112   4.742  16.639  0.00  0.00    +0.000 NA
ATOM     32  C   UNL     1      48.192   3.853  17.133  0.00  0.00    +0.000 A 
ATOM     33  C   UNL     1      48.651   3.266  18.287  0.00  0.00    +0.000 A 
ATOM     34  N   UNL     1      49.887   3.808  18.491  0.00  0.00    +0.000 N 
ATOM     35  H   UNL     1      50.523   3.628  19.256  0.00  0.00    +0.000 HD
ENDBRANCH  29  30
ENDBRANCH  27  29
ENDBRANCH  26  27
ENDBRANCH  23  26
ENDBRANCH  19  20
ENDBRANCH   1  19
TORSDOF 10
ENDMDL
MODEL 8
REMARK VINA RESULT:    -5.842      2.022      2.494
REMARK INTER + INTRA:         -10.188
REMARK INTER:                 -10.113
REMARK INTRA:                  -0.075
REMARK UNBOUND:                -1.102
REMARK  Name = 
REMARK  10 active torsions:
REMARK  status: ('A' for Active; 'I' for Inactive)
REMARK    1  A    between atoms: N_1  and  C_2
REMARK    2  A    between atoms: C_2  and  C_3
REMARK    3  A    between atoms: C_3  and  N_4
REMARK    4  A    between atoms: C_3  and  C_20
REMARK    5  A    between atoms: N_4  and  C_5
REMARK    6  A    between atoms: C_5  and  C_6
REMARK    7  A    between atoms: C_9  and  C_10
REMARK    8  A    between atoms: C_10  and  N_11
REMARK    9  A    between atoms: N_11  and  C_12
REMARK   10  A    between atoms: C_12  and  C_13
REMARK                            x       y       z     vdW  Elec       q    Type
REMARK                         _______ _______ _______ _____ _____    ______ ____
ROOT
ATOM      1  N   UNL     1      48.116   4.609  15.021  0.00  0.00    +0.000 NA
ATOM      2  H   UNL     1      47.372   3.911  14.926  0.00  0.00    +0.000 HD
ENDROOT
BRANCH   1   3
ATOM      3  C   UNL     1      48.412   4.778  16.459  0.00  0.00    +0.000 C 
BRANCH   3   4
ATOM      4  C   UNL     1      49.119   6.119  16.635  0.00  0.00    +0.000 A 
ATOM      5  C   UNL     1      48.511   7.363  16.557  0.00  0.00    +0.000 A 
ATOM      6  S   UNL     1      49.583   8.663  16.834  0.00  0.00    +0.000 S 
ATOM      7  C   UNL     1      50.890   7.604  17.097  0.00  0.00    +0.000 A 
ATOM      8  N   UNL     1      52.129   8.074  17.406  0.00  0.00    +0.000 NA
ATOM      9  C   UNL     1      53.010   7.149  17.604  0.00  0.00    +0.000 A 
ATOM     10  N   UNL     1      52.767   5.799  17.516  0.00  0.00    +0.000 N 
ATOM     11  C   UNL     1      51.531   5.277  17.208  0.00  0.00    +0.000 A 
ATOM     12  O   UNL     1      51.337   4.067  17.158  0.00  0.00    +0.000 OA
ATOM     13  C   UNL     1      50.512   6.281  16.970  0.00  0.00    +0.000 A 
ATOM     14  H   UNL     1      53.502   5.130  17.691  0.00  0.00    +0.000 HD
ENDBRANCH   3   4
BRANCH   3  15
ATOM     15  C   UNL     1      47.140   4.708  17.368  0.00  0.00    +0.000 C 
BRANCH  15  16
ATOM     16  N   UNL     1      46.545   3.368  17.469  0.00  0.00    +0.000 NA
ATOM     17  H   UNL     1      45.633   3.421  17.914  0.00  0.00    +0.000 HD
ATOM     18  H   UNL     1      47.153   2.789  18.050  0.00  0.00    +0.000 HD
ENDBRANCH  15  16
ENDBRANCH   3  15
ENDBRANCH   1   3
BRANCH   1  19
ATOM     19  C   UNL     1      47.603   5.833  14.396  0.00  0.00    +0.000 C 
BRANCH  19  20
ATOM     20  C   UNL     1      46.552   5.508  13.349  0.00  0.00    +0.000 A 
ATOM     21  C   UNL     1      45.643   4.478  13.573  0.00  0.00    +0.000 A 
ATOM     22  C   UNL     1      44.659   4.232  12.622  0.00  0.00    +0.000 A 
ATOM     23  C   UNL     1      44.586   5.023  11.474  0.00  0.00    +0.000 A 
ATOM     24  C   UNL     1      45.546   6.019  11.326  0.00  0.00    +0.000 A 
ATOM     25  N   UNL     1      46.524   6.275  12.227  0.00  0.00    +0.000 NA
BRANCH  23  26
ATOM     26  C   UNL     1      43.511   4.802  10.445  0.00  0.00    +0.000 C 
BRANCH  26  27
ATOM     27  N   UNL     1      44.102   4.460   9.148  0.00  0.00    +0.000 NA
ATOM     28  H   UNL     1      44.920   5.057   9.008  0.00  0.00    +0.000 HD
BRANCH  27  29
ATOM     29  C   UNL     1      44.557   3.064   9.150  0.00  0.00    +0.000 C 
BRANCH  29  30
ATOM     30  C   UNL     1      45.632   2.841   8.135  0.00  0.00    +0.000 A 
ATOM     31  N   UNL     1      46.028   3.681   7.200  0.00  0.00    +0.000 NA
ATOM     32  C   UNL     1      47.038   3.042   6.530  0.00  0.00    +0.000 A 
ATOM     33  C   UNL     1      47.260   1.793   7.058  0.00  0.00    +0.000 A 
ATOM     34  N   UNL     1      46.365   1.679   8.083  0.00  0.00    +0.000 N 
ATOM     35  H   UNL     1      46.223   0.886   8.694  0.00  0.00    +0.000 HD
ENDBRANCH  29  30
ENDBRANCH  27  29
ENDBRANCH  26  27
ENDBRANCH  23  26
ENDBRANCH  19  20
ENDBRANCH   1  19
TORSDOF 10
ENDMDL
MODEL 9
REMARK VINA RESULT:    -5.661      2.330      3.282
REMARK INTER + INTRA:          -9.908
REMARK INTER:                  -8.808
REMARK INTRA:                  -1.099
REMARK UNBOUND:                -1.102
REMARK  Name = 
REMARK  10 active torsions:
REMARK  status: ('A' for Active; 'I' for Inactive)
REMARK    1  A    between atoms: N_1  and  C_2
REMARK    2  A    between atoms: C_2  and  C_3
REMARK    3  A    between atoms: C_3  and  N_4
REMARK    4  A    between atoms: C_3  and  C_20
REMARK    5  A    between atoms: N_4  and  C_5
REMARK    6  A    between atoms: C_5  and  C_6
REMARK    7  A    between atoms: C_9  and  C_10
REMARK    8  A    between atoms: C_10  and  N_11
REMARK    9  A    between atoms: N_11  and  C_12
REMARK   10  A    between atoms: C_12  and  C_13
REMARK                            x       y       z     vdW  Elec       q    Type
REMARK                         _______ _______ _______ _____ _____    ______ ____
ROOT
ATOM      1  N   UNL     1      48.050   8.351  16.812  0.00  0.00    +0.000 NA
ATOM      2  H   UNL     1      47.545   9.233  16.936  0.00  0.00    +0.000 HD
ENDROOT
BRANCH   1   3
ATOM      3  C   UNL     1      48.908   8.137  17.997  0.00  0.00    +0.000 C 
BRANCH   3   4
ATOM      4  C   UNL     1      49.658   6.823  17.799  0.00  0.00    +0.000 A 
ATOM      5  C   UNL     1      51.011   6.706  17.519  0.00  0.00    +0.000 A 
ATOM      6  S   UNL     1      51.542   5.089  17.388  0.00  0.00    +0.000 S 
ATOM      7  C   UNL     1      49.985   4.490  17.730  0.00  0.00    +0.000 A 
ATOM      8  N   UNL     1      49.741   3.153  17.792  0.00  0.00    +0.000 NA
ATOM      9  C   UNL     1      48.518   2.853  18.089  0.00  0.00    +0.000 A 
ATOM     10  N   UNL     1      47.519   3.768  18.324  0.00  0.00    +0.000 N 
ATOM     11  C   UNL     1      47.720   5.129  18.274  0.00  0.00    +0.000 A 
ATOM     12  O   UNL     1      46.814   5.923  18.510  0.00  0.00    +0.000 OA
ATOM     13  C   UNL     1      49.077   5.511  17.936  0.00  0.00    +0.000 A 
ATOM     14  H   UNL     1      46.586   3.464  18.559  0.00  0.00    +0.000 HD
ENDBRANCH   3   4
BRANCH   3  15
ATOM     15  C   UNL     1      49.915   9.307  18.255  0.00  0.00    +0.000 C 
BRANCH  15  16
ATOM     16  N   UNL     1      50.104   9.637  19.675  0.00  0.00    +0.000 NA
ATOM     17  H   UNL     1      49.521   9.040  20.255  0.00  0.00    +0.000 HD
ATOM     18  H   UNL     1      49.817  10.606  19.820  0.00  0.00    +0.000 HD
ENDBRANCH  15  16
ENDBRANCH   3  15
ENDBRANCH   1   3
BRANCH   1  19
ATOM     19  C   UNL     1      48.817   8.495  15.570  0.00  0.00    +0.000 C 
BRANCH  19  20
ATOM     20  C   UNL     1      48.059   7.908  14.393  0.00  0.00    +0.000 A 
ATOM     21  C   UNL     1      48.332   6.612  13.966  0.00  0.00    +0.000 A 
ATOM     22  C   UNL     1      47.590   6.079  12.917  0.00  0.00    +0.000 A 
ATOM     23  C   UNL     1      46.580   6.838  12.323  0.00  0.00    +0.000 A 
ATOM     24  C   UNL     1      46.388   8.129  12.803  0.00  0.00    +0.000 A 
ATOM     25  N   UNL     1      47.101   8.681  13.814  0.00  0.00    +0.000 NA
BRANCH  23  26
ATOM     26  C   UNL     1      45.739   6.276  11.210  0.00  0.00    +0.000 C 
BRANCH  26  27
ATOM     27  N   UNL     1      44.977   5.113  11.675  0.00  0.00    +0.000 NA
ATOM     28  H   UNL     1      44.452   5.394  12.505  0.00  0.00    +0.000 HD
BRANCH  27  29
ATOM     29  C   UNL     1      44.012   4.695  10.650  0.00  0.00    +0.000 C 
BRANCH  29  30
ATOM     30  C   UNL     1      44.661   3.845   9.606  0.00  0.00    +0.000 A 
ATOM     31  N   UNL     1      45.009   4.211   8.388  0.00  0.00    +0.000 NA
ATOM     32  C   UNL     1      45.574   3.101   7.815  0.00  0.00    +0.000 A 
ATOM     33  C   UNL     1      45.569   2.043   8.690  0.00  0.00    +0.000 A 
ATOM     34  N   UNL     1      44.992   2.529   9.829  0.00  0.00    +0.000 N 
ATOM     35  H   UNL     1      44.803   2.030  10.688  0.00  0.00    +0.000 HD
ENDBRANCH  29  30
ENDBRANCH  27  29
ENDBRANCH  26  27
ENDBRANCH  23  26
ENDBRANCH  19  20
ENDBRANCH   1  19
TORSDOF 10
ENDMDL
