MODEL 1
REMARK VINA RESULT:    -7.829      0.000      0.000
REMARK INTER + INTRA:         -10.031
REMARK INTER:                  -9.889
REMARK INTRA:                  -0.142
REMARK UNBOUND:                -0.142
REMARK  Name = 
REMARK  5 active torsions:
REMARK  status: ('A' for Active; 'I' for Inactive)
REMARK    1  A    between atoms: N_1  and  C_2
REMARK    2  A    between atoms: C_2  and  C_3
REMARK    3  A    between atoms: C_6  and  C_7
REMARK    4  A    between atoms: C_7  and  N_8
REMARK    5  A    between atoms: C_12  and  C_13
REMARK                            x       y       z     vdW  Elec       q    Type
REMARK                         _______ _______ _______ _____ _____    ______ ____
ROOT
ATOM      1  N   UNL     1      44.603   5.512  10.307  0.00  0.00    +0.000 N 
ATOM      2  C   UNL     1      45.255   5.181  11.508  0.00  0.00    +0.000 A 
ATOM      3  C   UNL     1      45.898   6.184  12.249  0.00  0.00    +0.000 A 
ATOM      4  N   UNL     1      46.554   5.973  13.422  0.00  0.00    +0.000 NA
ATOM      5  C   UNL     1      46.550   4.678  13.838  0.00  0.00    +0.000 A 
ATOM      6  C   UNL     1      45.933   3.670  13.114  0.00  0.00    +0.000 A 
ATOM      7  N   UNL     1      45.287   3.901  11.938  0.00  0.00    +0.000 NA
ATOM      8  H   UNL     1      43.911   6.235  10.498  0.00  0.00    +0.000 HD
ENDROOT
BRANCH   5   9
ATOM      9  C   UNL     1      47.233   4.351  15.120  0.00  0.00    +0.000 C 
ATOM     10  N   UNL     1      47.489   5.404  15.952  0.00  0.00    +0.000 N 
ATOM     11  O   UNL     1      47.546   3.206  15.416  0.00  0.00    +0.000 OA
ATOM     12  H   UNL     1      47.229   6.347  15.682  0.00  0.00    +0.000 HD
ATOM     13  H   UNL     1      47.953   5.238  16.834  0.00  0.00    +0.000 HD
ENDBRANCH   5   9
BRANCH   1  14
ATOM     14  C   UNL     1      43.974   4.370   9.632  0.00  0.00    +0.000 C 
BRANCH  14  18
ATOM     15  C   UNL     1      46.880   2.263   7.409  0.00  0.00    +0.000 A 
ATOM     16  C   UNL     1      46.706   3.635   7.257  0.00  0.00    +0.000 A 
ATOM     17  N   UNL     1      45.775   4.343   7.944  0.00  0.00    +0.000 NA
ATOM     18  C   UNL     1      44.996   3.628   8.797  0.00  0.00    +0.000 A 
ATOM     19  C   UNL     1      45.157   2.253   8.931  0.00  0.00    +0.000 A 
ATOM     20  N   UNL     1      46.095   1.546   8.253  0.00  0.00    +0.000 NA
BRANCH  15  21
ATOM     21  C   UNL     1      47.973   1.541   6.658  0.00  0.00    +0.000 C 
BRANCH  21  22
ATOM     22  N   UNL     1      48.383   2.249   5.441  0.00  0.00    +0.000 NA
ATOM     23  H   UNL     1      47.549   2.513   4.919  0.00  0.00    +0.000 HD
ATOM     24  H   UNL     1      48.883   1.588   4.845  0.00  0.00    +0.000 HD
ENDBRANCH  21  22
ENDBRANCH  15  21
ENDBRANCH  14  18
ENDBRANCH   1  14
TORSDOF 5
ENDMDL
MODEL 2
REMARK VINA RESULT:    -7.639      1.953      2.888
REMARK INTER + INTRA:          -9.790
REMARK INTER:                  -9.638
REMARK INTRA:                  -0.152
REMARK UNBOUND:                -0.142
REMARK  Name = 
REMARK  5 active torsions:
REMARK  status: ('A' for Active; 'I' for Inactive)
REMARK    1  A    between atoms: N_1  and  C_2
REMARK    2  A    between atoms: C_2  and  C_3
REMARK    3  A    between atoms: C_6  and  C_7
REMARK    4  A    between atoms: C_7  and  N_8
REMARK    5  A    between atoms: C_12  and  C_13
REMARK                            x       y       z     vdW  Elec       q    Type
REMARK                         _______ _______ _______ _____ _____    ______ ____
ROOT
ATOM      1  N   UNL     1      44.987   3.023  11.480  0.00  0.00    +0.000 N 
ATOM      2  C   UNL     1      45.127   4.380  11.820  0.00  0.00    +0.000 A 
ATOM      3  C   UNL     1      45.878   4.740  12.950  0.00  0.00    +0.000 A 
ATOM      4  N   UNL     1      46.080   6.019  13.365  0.00  0.00    +0.000 NA
ATOM      5  C   UNL     1      45.477   6.959  12.588  0.00  0.00    +0.000 A 
ATOM      6  C   UNL     1      44.719   6.624  11.476  0.00  0.00    +0.000 A 
ATOM      7  N   UNL     1      44.524   5.336  11.082  0.00  0.00    +0.000 NA
ATOM      8  H   UNL     1      45.914   2.615  11.368  0.00  0.00    +0.000 HD
ENDROOT
BRANCH   5   9
ATOM      9  C   UNL     1      45.651   8.390  12.956  0.00  0.00    +0.000 C 
ATOM     10  N   UNL     1      44.636   9.232  12.596  0.00  0.00    +0.000 N 
ATOM     11  O   UNL     1      46.642   8.794  13.548  0.00  0.00    +0.000 OA
ATOM     12  H   UNL     1      43.827   8.877  12.097  0.00  0.00    +0.000 HD
ATOM     13  H   UNL     1      44.705  10.215  12.819  0.00  0.00    +0.000 HD
ENDBRANCH   5   9
BRANCH   1  14
ATOM     14  C   UNL     1      44.175   2.787  10.280  0.00  0.00    +0.000 C 
BRANCH  14  18
ATOM     15  C   UNL     1      46.542   2.643   6.787  0.00  0.00    +0.000 A 
ATOM     16  C   UNL     1      46.473   1.563   7.660  0.00  0.00    +0.000 A 
ATOM     17  N   UNL     1      45.734   1.576   8.797  0.00  0.00    +0.000 NA
ATOM     18  C   UNL     1      45.060   2.728   9.053  0.00  0.00    +0.000 A 
ATOM     19  C   UNL     1      45.148   3.816   8.190  0.00  0.00    +0.000 A 
ATOM     20  N   UNL     1      45.877   3.798   7.046  0.00  0.00    +0.000 NA
BRANCH  15  21
ATOM     21  C   UNL     1      47.336   2.545   5.507  0.00  0.00    +0.000 C 
BRANCH  21  22
ATOM     22  N   UNL     1      48.610   1.839   5.686  0.00  0.00    +0.000 NA
ATOM     23  H   UNL     1      48.558   0.944   5.202  0.00  0.00    +0.000 HD
ATOM     24  H   UNL     1      48.708   1.612   6.676  0.00  0.00    +0.000 HD
ENDBRANCH  21  22
ENDBRANCH  15  21
ENDBRANCH  14  18
ENDBRANCH   1  14
TORSDOF 5
ENDMDL
MODEL 3
REMARK VINA RESULT:    -7.237      2.589      6.749
REMARK INTER + INTRA:          -9.283
REMARK INTER:                  -9.117
REMARK INTRA:                  -0.167
REMARK UNBOUND:                -0.142
REMARK  Name = 
REMARK  5 active torsions:
REMARK  status: ('A' for Active; 'I' for Inactive)
REMARK    1  A    between atoms: N_1  and  C_2
REMARK    2  A    between atoms: C_2  and  C_3
REMARK    3  A    between atoms: C_6  and  C_7
REMARK    4  A    between atoms: C_7  and  N_8
REMARK    5  A    between atoms: C_12  and  C_13
REMARK                            x       y       z     vdW  Elec       q    Type
REMARK                         _______ _______ _______ _____ _____    ______ ____
ROOT
ATOM      1  N   UNL     1      43.747   3.560  10.542  0.00  0.00    +0.000 N 
ATOM      2  C   UNL     1      44.672   3.305   9.515  0.00  0.00    +0.000 A 
ATOM      3  C   UNL     1      45.079   1.987   9.257  0.00  0.00    +0.000 A 
ATOM      4  N   UNL     1      45.964   1.630   8.288  0.00  0.00    +0.000 NA
ATOM      5  C   UNL     1      46.452   2.674   7.566  0.00  0.00    +0.000 A 
ATOM      6  C   UNL     1      46.074   3.985   7.814  0.00  0.00    +0.000 A 
ATOM      7  N   UNL     1      45.191   4.321   8.794  0.00  0.00    +0.000 NA
ATOM      8  H   UNL     1      42.904   3.014  10.368  0.00  0.00    +0.000 HD
ENDROOT
BRANCH   5   9
ATOM      9  C   UNL     1      47.419   2.382   6.474  0.00  0.00    +0.000 C 
ATOM     10  N   UNL     1      47.297   3.139   5.342  0.00  0.00    +0.000 N 
ATOM     11  O   UNL     1      48.277   1.515   6.578  0.00  0.00    +0.000 OA
ATOM     12  H   UNL     1      46.572   3.846   5.273  0.00  0.00    +0.000 HD
ATOM     13  H   UNL     1      47.927   2.979   4.569  0.00  0.00    +0.000 HD
ENDBRANCH   5   9
BRANCH   1  14
ATOM     14  C   UNL     1      43.411   4.979  10.707  0.00  0.00    +0.000 C 
BRANCH  14  18
ATOM     15  C   UNL     1      46.394   6.920  12.977  0.00  0.00    +0.000 A 
ATOM     16  C   UNL     1      46.001   5.616  13.261  0.00  0.00    +0.000 A 
ATOM     17  N   UNL     1      45.039   4.965  12.562  0.00  0.00    +0.000 NA
ATOM     18  C   UNL     1      44.455   5.669  11.558  0.00  0.00    +0.000 A 
ATOM     19  C   UNL     1      44.833   6.982  11.290  0.00  0.00    +0.000 A 
ATOM     20  N   UNL     1      45.804   7.630  11.981  0.00  0.00    +0.000 NA
BRANCH  15  21
ATOM     21  C   UNL     1      47.512   7.570  13.755  0.00  0.00    +0.000 C 
BRANCH  21  22
ATOM     22  N   UNL     1      47.098   8.819  14.403  0.00  0.00    +0.000 NA
ATOM     23  H   UNL     1      46.097   8.946  14.259  0.00  0.00    +0.000 HD
ATOM     24  H   UNL     1      47.546   9.594  13.913  0.00  0.00    +0.000 HD
ENDBRANCH  21  22
ENDBRANCH  15  21
ENDBRANCH  14  18
ENDBRANCH   1  14
TORSDOF 5
ENDMDL
MODEL 4
REMARK VINA RESULT:    -6.805      3.374      7.561
REMARK INTER + INTRA:          -8.738
REMARK INTER:                  -8.379
REMARK INTRA:                  -0.359
REMARK UNBOUND:                -0.142
REMARK  Name = 
REMARK  5 active torsions:
REMARK  status: ('A' for Active; 'I' for Inactive)
REMARK    1  A    between atoms: N_1  and  C_2
REMARK    2  A    between atoms: C_2  and  C_3
REMARK    3  A    between atoms: C_6  and  C_7
REMARK    4  A    between atoms: C_7  and  N_8
REMARK    5  A    between atoms: C_12  and  C_13
REMARK                            x       y       z     vdW  Elec       q    Type
REMARK                         _______ _______ _______ _____ _____    ______ ____
ROOT
ATOM      1  N   UNL     1      47.371   5.381  15.220  0.00  0.00    +0.000 N 
ATOM      2  C   UNL     1      46.700   5.119  14.014  0.00  0.00    +0.000 A 
ATOM      3  C   UNL     1      46.819   6.018  12.942  0.00  0.00    +0.000 A 
ATOM      4  N   UNL     1      46.215   5.859  11.734  0.00  0.00    +0.000 NA
ATOM      5  C   UNL     1      45.457   4.735  11.633  0.00  0.00    +0.000 A 
ATOM      6  C   UNL     1      45.315   3.842  12.683  0.00  0.00    +0.000 A 
ATOM      7  N   UNL     1      45.922   4.023  13.888  0.00  0.00    +0.000 NA
ATOM      8  H   UNL     1      48.366   5.488  15.027  0.00  0.00    +0.000 HD
ENDROOT
BRANCH   5   9
ATOM      9  C   UNL     1      44.767   4.468  10.342  0.00  0.00    +0.000 C 
ATOM     10  N   UNL     1      45.244   5.141   9.253  0.00  0.00    +0.000 N 
ATOM     11  O   UNL     1      43.826   3.690  10.255  0.00  0.00    +0.000 OA
ATOM     12  H   UNL     1      46.020   5.789   9.348  0.00  0.00    +0.000 HD
ATOM     13  H   UNL     1      44.810   4.998   8.351  0.00  0.00    +0.000 HD
ENDBRANCH   5   9
BRANCH   1  14
ATOM     14  C   UNL     1      47.160   4.364  16.258  0.00  0.00    +0.000 C 
BRANCH  14  18
ATOM     15  C   UNL     1      50.712   2.269  17.160  0.00  0.00    +0.000 A 
ATOM     16  C   UNL     1      50.564   3.616  17.477  0.00  0.00    +0.000 A 
ATOM     17  N   UNL     1      49.444   4.324  17.193  0.00  0.00    +0.000 NA
ATOM     18  C   UNL     1      48.456   3.642  16.556  0.00  0.00    +0.000 A 
ATOM     19  C   UNL     1      48.615   2.301  16.218  0.00  0.00    +0.000 A 
ATOM     20  N   UNL     1      49.731   1.589  16.514  0.00  0.00    +0.000 NA
BRANCH  15  21
ATOM     21  C   UNL     1      51.962   1.521  17.556  0.00  0.00    +0.000 C 
BRANCH  21  22
ATOM     22  N   UNL     1      51.673   0.198  18.118  0.00  0.00    +0.000 NA
ATOM     23  H   UNL     1      51.419  -0.432  17.359  0.00  0.00    +0.000 HD
ATOM     24  H   UNL     1      50.839   0.277  18.701  0.00  0.00    +0.000 HD
ENDBRANCH  21  22
ENDBRANCH  15  21
ENDBRANCH  14  18
ENDBRANCH   1  14
TORSDOF 5
ENDMDL
MODEL 5
REMARK VINA RESULT:    -5.946      3.239      8.471
REMARK INTER + INTRA:          -7.652
REMARK INTER:                  -7.410
REMARK INTRA:                  -0.243
REMARK UNBOUND:                -0.142
REMARK  Name = 
REMARK  5 active torsions:
REMARK  status: ('A' for Active; 'I' for Inactive)
REMARK    1  A    between atoms: N_1  and  C_2
REMARK    2  A    between atoms: C_2  and  C_3
REMARK    3  A    between atoms: C_6  and  C_7
REMARK    4  A    between atoms: C_7  and  N_8
REMARK    5  A    between atoms: C_12  and  C_13
REMARK                            x       y       z     vdW  Elec       q    Type
REMARK                         _______ _______ _______ _____ _____    ______ ____
ROOT
ATOM      1  N   UNL     1      46.969   5.100  14.846  0.00  0.00    +0.000 N 
ATOM      2  C   UNL     1      46.332   4.758  13.640  0.00  0.00    +0.000 A 
ATOM      3  C   UNL     1      46.117   5.742  12.664  0.00  0.00    +0.000 A 
ATOM      4  N   UNL     1      45.515   5.518  11.465  0.00  0.00    +0.000 NA
ATOM      5  C   UNL     1      45.115   4.233  11.273  0.00  0.00    +0.000 A 
ATOM      6  C   UNL     1      45.306   3.248  12.230  0.00  0.00    +0.000 A 
ATOM      7  N   UNL     1      45.905   3.495  13.427  0.00  0.00    +0.000 NA
ATOM      8  H   UNL     1      47.875   5.515  14.633  0.00  0.00    +0.000 HD
ENDROOT
BRANCH   5   9
ATOM      9  C   UNL     1      44.457   3.887   9.984  0.00  0.00    +0.000 C 
ATOM     10  N   UNL     1      44.593   4.799   8.975  0.00  0.00    +0.000 N 
ATOM     11  O   UNL     1      43.830   2.847   9.831  0.00  0.00    +0.000 OA
ATOM     12  H   UNL     1      45.110   5.659   9.125  0.00  0.00    +0.000 HD
ATOM     13  H   UNL     1      44.163   4.614   8.079  0.00  0.00    +0.000 HD
ENDBRANCH   5   9
BRANCH   1  14
ATOM     14  C   UNL     1      47.129   3.978  15.779  0.00  0.00    +0.000 C 
BRANCH  14  18
ATOM     15  C   UNL     1      49.621   5.190  18.964  0.00  0.00    +0.000 A 
ATOM     16  C   UNL     1      50.151   4.783  17.743  0.00  0.00    +0.000 A 
ATOM     17  N   UNL     1      49.384   4.376  16.702  0.00  0.00    +0.000 NA
ATOM     18  C   UNL     1      48.042   4.372  16.920  0.00  0.00    +0.000 A 
ATOM     19  C   UNL     1      47.515   4.757  18.149  0.00  0.00    +0.000 A 
ATOM     20  N   UNL     1      48.282   5.176  19.186  0.00  0.00    +0.000 NA
BRANCH  15  21
ATOM     21  C   UNL     1      50.526   5.688  20.064  0.00  0.00    +0.000 C 
BRANCH  21  22
ATOM     22  N   UNL     1      51.029   4.604  20.915  0.00  0.00    +0.000 NA
ATOM     23  H   UNL     1      51.903   4.904  21.344  0.00  0.00    +0.000 HD
ATOM     24  H   UNL     1      51.273   3.817  20.313  0.00  0.00    +0.000 HD
ENDBRANCH  21  22
ENDBRANCH  15  21
ENDBRANCH  14  18
ENDBRANCH   1  14
TORSDOF 5
ENDMDL
MODEL 6
REMARK VINA RESULT:    -5.832      2.684      4.883
REMARK INTER + INTRA:          -7.509
REMARK INTER:                  -7.254
REMARK INTRA:                  -0.255
REMARK UNBOUND:                -0.142
REMARK  Name = 
REMARK  5 active torsions:
REMARK  status: ('A' for Active; 'I' for Inactive)
REMARK    1  A    between atoms: N_1  and  C_2
REMARK    2  A    between atoms: C_2  and  C_3
REMARK    3  A    between atoms: C_6  and  C_7
REMARK    4  A    between atoms: C_7  and  N_8
REMARK    5  A    between atoms: C_12  and  C_13
REMARK                            x       y       z     vdW  Elec       q    Type
REMARK                         _______ _______ _______ _____ _____    ______ ____
ROOT
ATOM      1  N   UNL     1      46.595   4.398  14.956  0.00  0.00    +0.000 N 
ATOM      2  C   UNL     1      47.548   4.443  15.988  0.00  0.00    +0.000 A 
ATOM      3  C   UNL     1      47.527   3.469  16.998  0.00  0.00    +0.000 A 
ATOM      4  N   UNL     1      48.403   3.419  18.038  0.00  0.00    +0.000 NA
ATOM      5  C   UNL     1      49.328   4.416  18.036  0.00  0.00    +0.000 A 
ATOM      6  C   UNL     1      49.358   5.396  17.056  0.00  0.00    +0.000 A 
ATOM      7  N   UNL     1      48.468   5.432  16.027  0.00  0.00    +0.000 NA
ATOM      8  H   UNL     1      46.649   3.489  14.498  0.00  0.00    +0.000 HD
ENDROOT
BRANCH   5   9
ATOM      9  C   UNL     1      50.338   4.437  19.129  0.00  0.00    +0.000 C 
ATOM     10  N   UNL     1      51.457   3.678  18.930  0.00  0.00    +0.000 N 
ATOM     11  O   UNL     1      50.181   5.097  20.148  0.00  0.00    +0.000 OA
ATOM     12  H   UNL     1      51.562   3.131  18.081  0.00  0.00    +0.000 HD
ATOM     13  H   UNL     1      52.173   3.654  19.642  0.00  0.00    +0.000 HD
ENDBRANCH   5   9
BRANCH   1  14
ATOM     14  C   UNL     1      46.729   5.476  13.969  0.00  0.00    +0.000 C 
BRANCH  14  18
ATOM     15  C   UNL     1      44.973   4.268  10.325  0.00  0.00    +0.000 A 
ATOM     16  C   UNL     1      45.516   5.539  10.481  0.00  0.00    +0.000 A 
ATOM     17  N   UNL     1      46.077   5.967  11.639  0.00  0.00    +0.000 NA
ATOM     18  C   UNL     1      46.070   5.077  12.666  0.00  0.00    +0.000 A 
ATOM     19  C   UNL     1      45.507   3.814  12.514  0.00  0.00    +0.000 A 
ATOM     20  N   UNL     1      44.956   3.381  11.353  0.00  0.00    +0.000 NA
BRANCH  15  21
ATOM     21  C   UNL     1      44.416   3.831   8.992  0.00  0.00    +0.000 C 
BRANCH  21  22
ATOM     22  N   UNL     1      45.345   4.076   7.883  0.00  0.00    +0.000 NA
ATOM     23  H   UNL     1      46.084   4.699   8.208  0.00  0.00    +0.000 HD
ATOM     24  H   UNL     1      44.845   4.595   7.161  0.00  0.00    +0.000 HD
ENDBRANCH  21  22
ENDBRANCH  15  21
ENDBRANCH  14  18
ENDBRANCH   1  14
TORSDOF 5
ENDMDL
MODEL 7
REMARK VINA RESULT:    -5.702      3.953      6.133
REMARK INTER + INTRA:          -7.344
REMARK INTER:                  -7.012
REMARK INTRA:                  -0.333
REMARK UNBOUND:                -0.142
REMARK  Name = 
REMARK  5 active torsions:
REMARK  status: ('A' for Active; 'I' for Inactive)
REMARK    1  A    between atoms: N_1  and  C_2
REMARK    2  A    between atoms: C_2  and  C_3
REMARK    3  A    between atoms: C_6  and  C_7
REMARK    4  A    between atoms: C_7  and  N_8
REMARK    5  A    between atoms: C_12  and  C_13
REMARK                            x       y       z     vdW  Elec       q    Type
REMARK                         _______ _______ _______ _____ _____    ______ ____
ROOT
ATOM      1  N   UNL     1      46.891   3.798  15.909  0.00  0.00    +0.000 N 
ATOM      2  C   UNL     1      47.711   4.608  16.713  0.00  0.00    +0.000 A 
ATOM      3  C   UNL     1      47.381   4.812  18.061  0.00  0.00    +0.000 A 
ATOM      4  N   UNL     1      48.105   5.573  18.925  0.00  0.00    +0.000 NA
ATOM      5  C   UNL     1      49.206   6.149  18.372  0.00  0.00    +0.000 A 
ATOM      6  C   UNL     1      49.543   5.972  17.039  0.00  0.00    +0.000 A 
ATOM      7  N   UNL     1      48.800   5.212  16.189  0.00  0.00    +0.000 NA
ATOM      8  H   UNL     1      46.813   2.878  16.341  0.00  0.00    +0.000 HD
ENDROOT
BRANCH   5   9
ATOM      9  C   UNL     1      50.070   6.991  19.244  0.00  0.00    +0.000 C 
ATOM     10  N   UNL     1      50.772   6.331  20.213  0.00  0.00    +0.000 N 
ATOM     11  O   UNL     1      50.150   8.204  19.104  0.00  0.00    +0.000 OA
ATOM     12  H   UNL     1      50.684   5.326  20.318  0.00  0.00    +0.000 HD
ATOM     13  H   UNL     1      51.373   6.856  20.834  0.00  0.00    +0.000 HD
ENDBRANCH   5   9
BRANCH   1  14
ATOM     14  C   UNL     1      47.350   3.671  14.520  0.00  0.00    +0.000 C 
BRANCH  14  18
ATOM     15  C   UNL     1      44.196   4.810  11.955  0.00  0.00    +0.000 A 
ATOM     16  C   UNL     1      44.662   3.500  11.993  0.00  0.00    +0.000 A 
ATOM     17  N   UNL     1      45.680   3.099  12.794  0.00  0.00    +0.000 NA
ATOM     18  C   UNL     1      46.244   4.066  13.565  0.00  0.00    +0.000 A 
ATOM     19  C   UNL     1      45.792   5.381  13.509  0.00  0.00    +0.000 A 
ATOM     20  N   UNL     1      44.765   5.779  12.717  0.00  0.00    +0.000 NA
BRANCH  15  21
ATOM     21  C   UNL     1      43.020   5.180  11.084  0.00  0.00    +0.000 C 
BRANCH  21  22
ATOM     22  N   UNL     1      42.151   6.184  11.707  0.00  0.00    +0.000 NA
ATOM     23  H   UNL     1      42.559   6.462  12.599  0.00  0.00    +0.000 HD
ATOM     24  H   UNL     1      41.264   5.735  11.939  0.00  0.00    +0.000 HD
ENDBRANCH  21  22
ENDBRANCH  15  21
ENDBRANCH  14  18
ENDBRANCH   1  14
TORSDOF 5
ENDMDL
MODEL 8
REMARK VINA RESULT:    -5.444      3.462      6.969
REMARK INTER + INTRA:          -7.018
REMARK INTER:                  -6.706
REMARK INTRA:                  -0.312
REMARK UNBOUND:                -0.142
REMARK  Name = 
REMARK  5 active torsions:
REMARK  status: ('A' for Active; 'I' for Inactive)
REMARK    1  A    between atoms: N_1  and  C_2
REMARK    2  A    between atoms: C_2  and  C_3
REMARK    3  A    between atoms: C_6  and  C_7
REMARK    4  A    between atoms: C_7  and  N_8
REMARK    5  A    between atoms: C_12  and  C_13
REMARK                            x       y       z     vdW  Elec       q    Type
REMARK                         _______ _______ _______ _____ _____    ______ ____
ROOT
ATOM      1  N   UNL     1      45.567   6.395  13.295  0.00  0.00    +0.000 N 
ATOM      2  C   UNL     1      45.367   5.563  12.180  0.00  0.00    +0.000 A 
ATOM      3  C   UNL     1      44.823   4.282  12.356  0.00  0.00    +0.000 A 
ATOM      4  N   UNL     1      44.586   3.401  11.347  0.00  0.00    +0.000 NA
ATOM      5  C   UNL     1      44.933   3.859  10.114  0.00  0.00    +0.000 A 
ATOM      6  C   UNL     1      45.485   5.115   9.920  0.00  0.00    +0.000 A 
ATOM      7  N   UNL     1      45.720   5.980  10.945  0.00  0.00    +0.000 NA
ATOM      8  H   UNL     1      44.679   6.510  13.782  0.00  0.00    +0.000 HD
ENDROOT
BRANCH   5   9
ATOM      9  C   UNL     1      44.699   2.969   8.944  0.00  0.00    +0.000 C 
ATOM     10  N   UNL     1      44.595   1.634   9.214  0.00  0.00    +0.000 N 
ATOM     11  O   UNL     1      44.604   3.405   7.804  0.00  0.00    +0.000 OA
ATOM     12  H   UNL     1      44.687   1.293  10.165  0.00  0.00    +0.000 HD
ATOM     13  H   UNL     1      44.439   0.985   8.455  0.00  0.00    +0.000 HD
ENDBRANCH   5   9
BRANCH   1  14
ATOM     14  C   UNL     1      46.145   7.705  12.971  0.00  0.00    +0.000 C 
BRANCH  14  18
ATOM     15  C   UNL     1      50.110   7.885  14.409  0.00  0.00    +0.000 A 
ATOM     16  C   UNL     1      49.550   8.938  13.692  0.00  0.00    +0.000 A 
ATOM     17  N   UNL     1      48.285   8.912  13.205  0.00  0.00    +0.000 NA
ATOM     18  C   UNL     1      47.581   7.775  13.444  0.00  0.00    +0.000 A 
ATOM     19  C   UNL     1      48.150   6.714  14.142  0.00  0.00    +0.000 A 
ATOM     20  N   UNL     1      49.411   6.745  14.640  0.00  0.00    +0.000 NA
BRANCH  15  21
ATOM     21  C   UNL     1      51.504   8.000  14.976  0.00  0.00    +0.000 C 
BRANCH  21  22
ATOM     22  N   UNL     1      52.543   7.890  13.946  0.00  0.00    +0.000 NA
ATOM     23  H   UNL     1      53.352   8.437  14.238  0.00  0.00    +0.000 HD
ATOM     24  H   UNL     1      52.196   8.341  13.099  0.00  0.00    +0.000 HD
ENDBRANCH  21  22
ENDBRANCH  15  21
ENDBRANCH  14  18
ENDBRANCH   1  14
TORSDOF 5
ENDMDL
MODEL 9
REMARK VINA RESULT:    -5.431      4.065      8.067
REMARK INTER + INTRA:          -7.003
REMARK INTER:                  -6.675
REMARK INTRA:                  -0.327
REMARK UNBOUND:                -0.142
REMARK  Name = 
REMARK  5 active torsions:
REMARK  status: ('A' for Active; 'I' for Inactive)
REMARK    1  A    between atoms: N_1  and  C_2
REMARK    2  A    between atoms: C_2  and  C_3
REMARK    3  A    between atoms: C_6  and  C_7
REMARK    4  A    between atoms: C_7  and  N_8
REMARK    5  A    between atoms: C_12  and  C_13
REMARK                            x       y       z     vdW  Elec       q    Type
REMARK                         _______ _______ _______ _____ _____    ______ ____
ROOT
ATOM      1  N   UNL     1      47.508   7.410  13.968  0.00  0.00    +0.000 N 
ATOM      2  C   UNL     1      46.565   6.659  13.247  0.00  0.00    +0.000 A 
ATOM      3  C   UNL     1      45.366   7.260  12.834  0.00  0.00    +0.000 A 
ATOM      4  N   UNL     1      44.389   6.626  12.131  0.00  0.00    +0.000 NA
ATOM      5  C   UNL     1      44.659   5.322  11.853  0.00  0.00    +0.000 A 
ATOM      6  C   UNL     1      45.831   4.706  12.264  0.00  0.00    +0.000 A 
ATOM      7  N   UNL     1      46.793   5.357  12.973  0.00  0.00    +0.000 NA
ATOM      8  H   UNL     1      47.758   8.235  13.423  0.00  0.00    +0.000 HD
ENDROOT
BRANCH   5   9
ATOM      9  C   UNL     1      43.654   4.548  11.075  0.00  0.00    +0.000 C 
ATOM     10  N   UNL     1      43.014   3.545  11.748  0.00  0.00    +0.000 N 
ATOM     11  O   UNL     1      43.409   4.793   9.901  0.00  0.00    +0.000 OA
ATOM     12  H   UNL     1      43.239   3.353  12.719  0.00  0.00    +0.000 HD
ATOM     13  H   UNL     1      42.324   2.986  11.266  0.00  0.00    +0.000 HD
ENDBRANCH   5   9
BRANCH   1  14
ATOM     14  C   UNL     1      48.715   6.661  14.340  0.00  0.00    +0.000 C 
BRANCH  14  18
ATOM     15  C   UNL     1      48.594   5.459  18.385  0.00  0.00    +0.000 A 
ATOM     16  C   UNL     1      48.403   4.547  17.352  0.00  0.00    +0.000 A 
ATOM     17  N   UNL     1      48.422   4.897  16.042  0.00  0.00    +0.000 NA
ATOM     18  C   UNL     1      48.629   6.215  15.784  0.00  0.00    +0.000 A 
ATOM     19  C   UNL     1      48.798   7.130  16.819  0.00  0.00    +0.000 A 
ATOM     20  N   UNL     1      48.790   6.777  18.129  0.00  0.00    +0.000 NA
BRANCH  15  21
ATOM     21  C   UNL     1      48.619   4.996  19.822  0.00  0.00    +0.000 C 
BRANCH  21  22
ATOM     22  N   UNL     1      48.421   3.548  19.952  0.00  0.00    +0.000 NA
ATOM     23  H   UNL     1      47.426   3.363  20.068  0.00  0.00    +0.000 HD
ATOM     24  H   UNL     1      48.861   3.246  20.821  0.00  0.00    +0.000 HD
ENDBRANCH  21  22
ENDBRANCH  15  21
ENDBRANCH  14  18
ENDBRANCH   1  14
TORSDOF 5
ENDMDL
