MODEL 1
REMARK VINA RESULT:    -8.843      0.000      0.000
REMARK INTER + INTRA:         -13.476
REMARK INTER:                 -12.461
REMARK INTRA:                  -1.015
REMARK UNBOUND:                -1.015
REMARK  Name = 
REMARK  10 active torsions:
REMARK  status: ('A' for Active; 'I' for Inactive)
REMARK    1  A    between atoms: C_1  and  N_2
REMARK    2  A    between atoms: C_4  and  O_5
REMARK    3  A    between atoms: O_5  and  C_6
REMARK    4  A    between atoms: C_10  and  C_11
REMARK    5  A    between atoms: C_11  and  C_12
REMARK    6  A    between atoms: C_11  and  C_13
REMARK    7  A    between atoms: C_11  and  C_14
REMARK    8  A    between atoms: C_14  and  N_15
REMARK    9  A    between atoms: N_15  and  C_16
REMARK   10  A    between atoms: C_19  and  C_20
REMARK                            x       y       z     vdW  Elec       q    Type
REMARK                         _______ _______ _______ _____ _____    ______ ____
ROOT
ATOM      1  C   UNL     1      43.578   5.660  11.784  0.00  0.00    +0.000 C 
ATOM      2  C   UNL     1      42.748   5.140  12.983  0.00  0.00    +0.000 C 
ATOM      3  C   UNL     1      43.014   7.042  11.371  0.00  0.00    +0.000 C 
ENDROOT
BRANCH   1   8
ATOM      4  C   UNL     1      47.003   5.084  13.496  0.00  0.00    +0.000 A 
ATOM      5  C   UNL     1      47.816   5.983  12.821  0.00  0.00    +0.000 A 
ATOM      6  C   UNL     1      47.255   6.830  11.867  0.00  0.00    +0.000 A 
ATOM      7  C   UNL     1      45.891   6.748  11.562  0.00  0.00    +0.000 A 
ATOM      8  C   UNL     1      45.053   5.823  12.208  0.00  0.00    +0.000 A 
ATOM      9  C   UNL     1      45.638   5.027  13.206  0.00  0.00    +0.000 A 
BRANCH   4  10
ATOM     10  O   UNL     1      47.426   4.163  14.419  0.00  0.00    +0.000 OA
BRANCH  10  14
ATOM     11  C   UNL     1      49.538   3.994  18.250  0.00  0.00    +0.000 C 
ATOM     12  N   UNL     1      49.055   3.972  16.878  0.00  0.00    +0.000 NA
ATOM     13  C   UNL     1      48.424   5.262  16.517  0.00  0.00    +0.000 C 
ATOM     14  C   UNL     1      47.289   4.465  15.825  0.00  0.00    +0.000 C 
ATOM     15  C   UNL     1      47.725   3.323  16.783  0.00  0.00    +0.000 C 
ENDBRANCH  10  14
ENDBRANCH   4  10
ENDBRANCH   1   8
BRANCH   1  16
ATOM     16  C   UNL     1      43.333   4.648  10.616  0.00  0.00    +0.000 C 
BRANCH  16  17
ATOM     17  N   UNL     1      44.305   3.558  10.577  0.00  0.00    +0.000 N 
ATOM     18  H   UNL     1      44.502   3.068  11.443  0.00  0.00    +0.000 HD
BRANCH  17  19
ATOM     19  C   UNL     1      45.115   3.287   9.494  0.00  0.00    +0.000 A 
ATOM     20  C   UNL     1      45.610   4.277   8.641  0.00  0.00    +0.000 A 
ATOM     21  C   UNL     1      46.408   3.951   7.539  0.00  0.00    +0.000 A 
ATOM     22  C   UNL     1      46.708   2.617   7.253  0.00  0.00    +0.000 A 
ATOM     23  C   UNL     1      46.182   1.624   8.074  0.00  0.00    +0.000 A 
ATOM     24  F   UNL     1      46.418   0.323   7.834  0.00  0.00    +0.000 F 
ATOM     25  C   UNL     1      45.389   1.952   9.174  0.00  0.00    +0.000 A 
BRANCH  22  26
ATOM     26  C   UNL     1      47.575   2.325   6.078  0.00  0.00    +0.000 C 
ATOM     27  N   UNL     1      47.446   3.110   4.973  0.00  0.00    +0.000 N 
ATOM     28  O   UNL     1      48.392   1.409   6.101  0.00  0.00    +0.000 OA
ATOM     29  H   UNL     1      46.802   3.889   4.918  0.00  0.00    +0.000 HD
ATOM     30  H   UNL     1      48.047   2.920   4.183  0.00  0.00    +0.000 HD
ENDBRANCH  22  26
ENDBRANCH  17  19
ENDBRANCH  16  17
ENDBRANCH   1  16
TORSDOF 7
ENDMDL
MODEL 2
REMARK VINA RESULT:    -6.775      3.268      5.015
REMARK INTER + INTRA:         -10.562
REMARK INTER:                  -9.257
REMARK INTRA:                  -1.305
REMARK UNBOUND:                -1.015
REMARK  Name = 
REMARK  10 active torsions:
REMARK  status: ('A' for Active; 'I' for Inactive)
REMARK    1  A    between atoms: C_1  and  N_2
REMARK    2  A    between atoms: C_4  and  O_5
REMARK    3  A    between atoms: O_5  and  C_6
REMARK    4  A    between atoms: C_10  and  C_11
REMARK    5  A    between atoms: C_11  and  C_12
REMARK    6  A    between atoms: C_11  and  C_13
REMARK    7  A    between atoms: C_11  and  C_14
REMARK    8  A    between atoms: C_14  and  N_15
REMARK    9  A    between atoms: N_15  and  C_16
REMARK   10  A    between atoms: C_19  and  C_20
REMARK                            x       y       z     vdW  Elec       q    Type
REMARK                         _______ _______ _______ _____ _____    ______ ____
ROOT
ATOM      1  C   UNL     1      48.267   8.726  12.536  0.00  0.00    +0.000 C 
ATOM      2  C   UNL     1      48.777  10.040  11.893  0.00  0.00    +0.000 C 
ATOM      3  C   UNL     1      48.832   7.539  11.718  0.00  0.00    +0.000 C 
ENDROOT
BRANCH   1   8
ATOM      4  C   UNL     1      49.812   7.358  15.812  0.00  0.00    +0.000 A 
ATOM      5  C   UNL     1      49.920   8.508  16.581  0.00  0.00    +0.000 A 
ATOM      6  C   UNL     1      49.429   9.713  16.081  0.00  0.00    +0.000 A 
ATOM      7  C   UNL     1      48.869   9.773  14.800  0.00  0.00    +0.000 A 
ATOM      8  C   UNL     1      48.778   8.628  13.988  0.00  0.00    +0.000 A 
ATOM      9  C   UNL     1      49.227   7.420  14.545  0.00  0.00    +0.000 A 
BRANCH   4  10
ATOM     10  O   UNL     1      50.292   6.121  16.155  0.00  0.00    +0.000 OA
BRANCH  10  14
ATOM     11  C   UNL     1      47.650   2.810  17.262  0.00  0.00    +0.000 C 
ATOM     12  N   UNL     1      48.499   3.825  16.658  0.00  0.00    +0.000 NA
ATOM     13  C   UNL     1      49.815   3.888  17.335  0.00  0.00    +0.000 C 
ATOM     14  C   UNL     1      49.718   5.434  17.288  0.00  0.00    +0.000 C 
ATOM     15  C   UNL     1      48.189   5.175  17.188  0.00  0.00    +0.000 C 
ENDBRANCH  10  14
ENDBRANCH   4  10
ENDBRANCH   1   8
BRANCH   1  16
ATOM     16  C   UNL     1      46.709   8.745  12.382  0.00  0.00    +0.000 C 
BRANCH  16  17
ATOM     17  N   UNL     1      46.035   7.714  13.165  0.00  0.00    +0.000 N 
ATOM     18  H   UNL     1      46.086   7.777  14.177  0.00  0.00    +0.000 HD
BRANCH  17  19
ATOM     19  C   UNL     1      45.510   6.557  12.627  0.00  0.00    +0.000 A 
ATOM     20  C   UNL     1      44.421   6.546  11.751  0.00  0.00    +0.000 A 
ATOM     21  C   UNL     1      43.907   5.346  11.250  0.00  0.00    +0.000 A 
ATOM     22  C   UNL     1      44.459   4.123  11.638  0.00  0.00    +0.000 A 
ATOM     23  C   UNL     1      45.515   4.125  12.544  0.00  0.00    +0.000 A 
ATOM     24  F   UNL     1      46.071   2.979  12.971  0.00  0.00    +0.000 F 
ATOM     25  C   UNL     1      46.029   5.324  13.040  0.00  0.00    +0.000 A 
BRANCH  22  26
ATOM     26  C   UNL     1      43.885   2.875  11.063  0.00  0.00    +0.000 C 
ATOM     27  N   UNL     1      44.487   2.334   9.968  0.00  0.00    +0.000 N 
ATOM     28  O   UNL     1      42.901   2.337  11.563  0.00  0.00    +0.000 OA
ATOM     29  H   UNL     1      45.313   2.730   9.537  0.00  0.00    +0.000 HD
ATOM     30  H   UNL     1      44.105   1.478   9.590  0.00  0.00    +0.000 HD
ENDBRANCH  22  26
ENDBRANCH  17  19
ENDBRANCH  16  17
ENDBRANCH   1  16
TORSDOF 7
ENDMDL
MODEL 3
REMARK VINA RESULT:    -6.318      3.031      8.528
REMARK INTER + INTRA:          -9.918
REMARK INTER:                  -9.235
REMARK INTRA:                  -0.683
REMARK UNBOUND:                -1.015
REMARK  Name = 
REMARK  10 active torsions:
REMARK  status: ('A' for Active; 'I' for Inactive)
REMARK    1  A    between atoms: C_1  and  N_2
REMARK    2  A    between atoms: C_4  and  O_5
REMARK    3  A    between atoms: O_5  and  C_6
REMARK    4  A    between atoms: C_10  and  C_11
REMARK    5  A    between atoms: C_11  and  C_12
REMARK    6  A    between atoms: C_11  and  C_13
REMARK    7  A    between atoms: C_11  and  C_14
REMARK    8  A    between atoms: C_14  and  N_15
REMARK    9  A    between atoms: N_15  and  C_16
REMARK   10  A    between atoms: C_19  and  C_20
REMARK                            x       y       z     vdW  Elec       q    Type
REMARK                         _______ _______ _______ _____ _____    ______ ____
ROOT
ATOM      1  C   UNL     1      46.991   7.094  12.614  0.00  0.00    +0.000 C 
ATOM      2  C   UNL     1      47.999   7.532  11.523  0.00  0.00    +0.000 C 
ATOM      3  C   UNL     1      46.535   8.358  13.384  0.00  0.00    +0.000 C 
ENDROOT
BRANCH   1   8
ATOM      4  C   UNL     1      44.635   4.479  10.998  0.00  0.00    +0.000 A 
ATOM      5  C   UNL     1      43.436   5.174  10.934  0.00  0.00    +0.000 A 
ATOM      6  C   UNL     1      43.396   6.508  11.338  0.00  0.00    +0.000 A 
ATOM      7  C   UNL     1      44.544   7.130  11.843  0.00  0.00    +0.000 A 
ATOM      8  C   UNL     1      45.763   6.437  11.950  0.00  0.00    +0.000 A 
ATOM      9  C   UNL     1      45.783   5.115  11.478  0.00  0.00    +0.000 A 
BRANCH   4  10
ATOM     10  O   UNL     1      44.809   3.157  10.681  0.00  0.00    +0.000 OA
BRANCH  10  14
ATOM     11  C   UNL     1      46.420   2.972   6.614  0.00  0.00    +0.000 C 
ATOM     12  N   UNL     1      46.111   3.125   8.028  0.00  0.00    +0.000 NA
ATOM     13  C   UNL     1      45.570   1.867   8.593  0.00  0.00    +0.000 C 
ATOM     14  C   UNL     1      44.507   2.711   9.342  0.00  0.00    +0.000 C 
ATOM     15  C   UNL     1      44.785   3.757   8.227  0.00  0.00    +0.000 C 
ENDBRANCH  10  14
ENDBRANCH   4  10
ENDBRANCH   1   8
BRANCH   1  16
ATOM     16  C   UNL     1      47.787   6.168  13.594  0.00  0.00    +0.000 C 
BRANCH  16  17
ATOM     17  N   UNL     1      47.895   6.709  14.946  0.00  0.00    +0.000 N 
ATOM     18  H   UNL     1      47.485   7.619  15.127  0.00  0.00    +0.000 HD
BRANCH  17  19
ATOM     19  C   UNL     1      48.687   6.160  15.934  0.00  0.00    +0.000 A 
ATOM     20  C   UNL     1      49.851   6.770  16.408  0.00  0.00    +0.000 A 
ATOM     21  C   UNL     1      50.637   6.164  17.394  0.00  0.00    +0.000 A 
ATOM     22  C   UNL     1      50.283   4.915  17.910  0.00  0.00    +0.000 A 
ATOM     23  C   UNL     1      49.149   4.282  17.411  0.00  0.00    +0.000 A 
ATOM     24  F   UNL     1      48.774   3.070  17.853  0.00  0.00    +0.000 F 
ATOM     25  C   UNL     1      48.366   4.891  16.429  0.00  0.00    +0.000 A 
BRANCH  22  26
ATOM     26  C   UNL     1      51.145   4.320  18.970  0.00  0.00    +0.000 C 
ATOM     27  N   UNL     1      50.882   4.640  20.267  0.00  0.00    +0.000 N 
ATOM     28  O   UNL     1      52.062   3.554  18.690  0.00  0.00    +0.000 OA
ATOM     29  H   UNL     1      50.122   5.249  20.545  0.00  0.00    +0.000 HD
ATOM     30  H   UNL     1      51.458   4.223  20.985  0.00  0.00    +0.000 HD
ENDBRANCH  22  26
ENDBRANCH  17  19
ENDBRANCH  16  17
ENDBRANCH   1  16
TORSDOF 7
ENDMDL
MODEL 4
REMARK VINA RESULT:    -6.283      2.907      7.772
REMARK INTER + INTRA:          -9.870
REMARK INTER:                  -8.794
REMARK INTRA:                  -1.076
REMARK UNBOUND:                -1.015
REMARK  Name = 
REMARK  10 active torsions:
REMARK  status: ('A' for Active; 'I' for Inactive)
REMARK    1  A    between atoms: C_1  and  N_2
REMARK    2  A    between atoms: C_4  and  O_5
REMARK    3  A    between atoms: O_5  and  C_6
REMARK    4  A    between atoms: C_10  and  C_11
REMARK    5  A    between atoms: C_11  and  C_12
REMARK    6  A    between atoms: C_11  and  C_13
REMARK    7  A    between atoms: C_11  and  C_14
REMARK    8  A    between atoms: C_14  and  N_15
REMARK    9  A    between atoms: N_15  and  C_16
REMARK   10  A    between atoms: C_19  and  C_20
REMARK                            x       y       z     vdW  Elec       q    Type
REMARK                         _______ _______ _______ _____ _____    ______ ____
ROOT
ATOM      1  C   UNL     1      48.239   8.874  12.382  0.00  0.00    +0.000 C 
ATOM      2  C   UNL     1      49.328   7.921  11.832  0.00  0.00    +0.000 C 
ATOM      3  C   UNL     1      48.463  10.273  11.755  0.00  0.00    +0.000 C 
ENDROOT
BRANCH   1   8
ATOM      4  C   UNL     1      45.268   6.514  11.609  0.00  0.00    +0.000 A 
ATOM      5  C   UNL     1      44.223   7.413  11.444  0.00  0.00    +0.000 A 
ATOM      6  C   UNL     1      44.482   8.781  11.505  0.00  0.00    +0.000 A 
ATOM      7  C   UNL     1      45.775   9.246  11.771  0.00  0.00    +0.000 A 
ATOM      8  C   UNL     1      46.844   8.356  11.975  0.00  0.00    +0.000 A 
ATOM      9  C   UNL     1      46.561   6.986  11.847  0.00  0.00    +0.000 A 
BRANCH   4  10
ATOM     10  O   UNL     1      45.152   5.149  11.622  0.00  0.00    +0.000 OA
BRANCH  10  14
ATOM     11  C   UNL     1      44.809   1.777   8.849  0.00  0.00    +0.000 C 
ATOM     12  N   UNL     1      45.144   2.795   9.833  0.00  0.00    +0.000 NA
ATOM     13  C   UNL     1      44.040   2.981  10.802  0.00  0.00    +0.000 C 
ATOM     14  C   UNL     1      44.254   4.512  10.687  0.00  0.00    +0.000 C 
ATOM     15  C   UNL     1      44.885   4.158   9.312  0.00  0.00    +0.000 C 
ENDBRANCH  10  14
ENDBRANCH   4  10
ENDBRANCH   1   8
BRANCH   1  16
ATOM     16  C   UNL     1      48.486   8.970  13.925  0.00  0.00    +0.000 C 
BRANCH  16  17
ATOM     17  N   UNL     1      49.368   7.926  14.438  0.00  0.00    +0.000 N 
ATOM     18  H   UNL     1      50.315   7.885  14.075  0.00  0.00    +0.000 HD
BRANCH  17  19
ATOM     19  C   UNL     1      48.943   6.877  15.226  0.00  0.00    +0.000 A 
ATOM     20  C   UNL     1      49.368   6.689  16.544  0.00  0.00    +0.000 A 
ATOM     21  C   UNL     1      48.930   5.594  17.298  0.00  0.00    +0.000 A 
ATOM     22  C   UNL     1      48.073   4.646  16.734  0.00  0.00    +0.000 A 
ATOM     23  C   UNL     1      47.681   4.804  15.409  0.00  0.00    +0.000 A 
ATOM     24  F   UNL     1      46.877   3.912  14.807  0.00  0.00    +0.000 F 
ATOM     25  C   UNL     1      48.117   5.898  14.660  0.00  0.00    +0.000 A 
BRANCH  22  26
ATOM     26  C   UNL     1      47.623   3.508  17.584  0.00  0.00    +0.000 C 
ATOM     27  N   UNL     1      48.521   2.955  18.446  0.00  0.00    +0.000 N 
ATOM     28  O   UNL     1      46.474   3.082  17.522  0.00  0.00    +0.000 OA
ATOM     29  H   UNL     1      49.471   3.289  18.547  0.00  0.00    +0.000 HD
ATOM     30  H   UNL     1      48.208   2.194  19.033  0.00  0.00    +0.000 HD
ENDBRANCH  22  26
ENDBRANCH  17  19
ENDBRANCH  16  17
ENDBRANCH   1  16
TORSDOF 7
ENDMDL
MODEL 5
REMARK VINA RESULT:    -6.176      3.506      5.413
REMARK INTER + INTRA:          -9.719
REMARK INTER:                  -8.690
REMARK INTRA:                  -1.028
REMARK UNBOUND:                -1.015
REMARK  Name = 
REMARK  10 active torsions:
REMARK  status: ('A' for Active; 'I' for Inactive)
REMARK    1  A    between atoms: C_1  and  N_2
REMARK    2  A    between atoms: C_4  and  O_5
REMARK    3  A    between atoms: O_5  and  C_6
REMARK    4  A    between atoms: C_10  and  C_11
REMARK    5  A    between atoms: C_11  and  C_12
REMARK    6  A    between atoms: C_11  and  C_13
REMARK    7  A    between atoms: C_11  and  C_14
REMARK    8  A    between atoms: C_14  and  N_15
REMARK    9  A    between atoms: N_15  and  C_16
REMARK   10  A    between atoms: C_19  and  C_20
REMARK                            x       y       z     vdW  Elec       q    Type
REMARK                         _______ _______ _______ _____ _____    ______ ____
ROOT
ATOM      1  C   UNL     1      49.196   8.552  14.013  0.00  0.00    +0.000 C 
ATOM      2  C   UNL     1      48.611   9.985  14.034  0.00  0.00    +0.000 C 
ATOM      3  C   UNL     1      50.732   8.662  13.850  0.00  0.00    +0.000 C 
ENDROOT
BRANCH   1   8
ATOM      4  C   UNL     1      48.649   5.802  16.683  0.00  0.00    +0.000 A 
ATOM      5  C   UNL     1      48.515   6.551  17.843  0.00  0.00    +0.000 A 
ATOM      6  C   UNL     1      48.524   7.943  17.764  0.00  0.00    +0.000 A 
ATOM      7  C   UNL     1      48.708   8.580  16.532  0.00  0.00    +0.000 A 
ATOM      8  C   UNL     1      48.879   7.844  15.346  0.00  0.00    +0.000 A 
ATOM      9  C   UNL     1      48.804   6.445  15.453  0.00  0.00    +0.000 A 
BRANCH   4  10
ATOM     10  O   UNL     1      48.705   4.434  16.618  0.00  0.00    +0.000 OA
BRANCH  10  14
ATOM     11  C   UNL     1      51.764   1.407  17.423  0.00  0.00    +0.000 C 
ATOM     12  N   UNL     1      50.824   2.395  16.916  0.00  0.00    +0.000 NA
ATOM     13  C   UNL     1      50.904   3.652  17.695  0.00  0.00    +0.000 C 
ATOM     14  C   UNL     1      49.355   3.707  17.684  0.00  0.00    +0.000 C 
ATOM     15  C   UNL     1      49.462   2.174  17.458  0.00  0.00    +0.000 C 
ENDBRANCH  10  14
ENDBRANCH   4  10
ENDBRANCH   1   8
BRANCH   1  16
ATOM     16  C   UNL     1      48.604   7.861  12.739  0.00  0.00    +0.000 C 
BRANCH  16  17
ATOM     17  N   UNL     1      47.144   7.862  12.703  0.00  0.00    +0.000 N 
ATOM     18  H   UNL     1      46.661   8.673  13.075  0.00  0.00    +0.000 HD
BRANCH  17  19
ATOM     19  C   UNL     1      46.381   6.757  12.387  0.00  0.00    +0.000 A 
ATOM     20  C   UNL     1      45.192   6.831  11.656  0.00  0.00    +0.000 A 
ATOM     21  C   UNL     1      44.437   5.686  11.381  0.00  0.00    +0.000 A 
ATOM     22  C   UNL     1      44.847   4.438  11.858  0.00  0.00    +0.000 A 
ATOM     23  C   UNL     1      46.006   4.364  12.624  0.00  0.00    +0.000 A 
ATOM     24  F   UNL     1      46.436   3.195  13.129  0.00  0.00    +0.000 F 
ATOM     25  C   UNL     1      46.759   5.508  12.894  0.00  0.00    +0.000 A 
BRANCH  22  26
ATOM     26  C   UNL     1      44.016   3.248  11.524  0.00  0.00    +0.000 C 
ATOM     27  N   UNL     1      43.634   2.425  12.539  0.00  0.00    +0.000 N 
ATOM     28  O   UNL     1      43.674   3.014  10.369  0.00  0.00    +0.000 OA
ATOM     29  H   UNL     1      43.874   2.592  13.509  0.00  0.00    +0.000 HD
ATOM     30  H   UNL     1      43.057   1.627  12.312  0.00  0.00    +0.000 HD
ENDBRANCH  22  26
ENDBRANCH  17  19
ENDBRANCH  16  17
ENDBRANCH   1  16
TORSDOF 7
ENDMDL
MODEL 6
REMARK VINA RESULT:    -6.077      4.415      8.369
REMARK INTER + INTRA:          -9.579
REMARK INTER:                  -8.033
REMARK INTRA:                  -1.546
REMARK UNBOUND:                -1.015
REMARK  Name = 
REMARK  10 active torsions:
REMARK  status: ('A' for Active; 'I' for Inactive)
REMARK    1  A    between atoms: C_1  and  N_2
REMARK    2  A    between atoms: C_4  and  O_5
REMARK    3  A    between atoms: O_5  and  C_6
REMARK    4  A    between atoms: C_10  and  C_11
REMARK    5  A    between atoms: C_11  and  C_12
REMARK    6  A    between atoms: C_11  and  C_13
REMARK    7  A    between atoms: C_11  and  C_14
REMARK    8  A    between atoms: C_14  and  N_15
REMARK    9  A    between atoms: N_15  and  C_16
REMARK   10  A    between atoms: C_19  and  C_20
REMARK                            x       y       z     vdW  Elec       q    Type
REMARK                         _______ _______ _______ _____ _____    ______ ____
ROOT
ATOM      1  C   UNL     1      49.128   9.104  16.869  0.00  0.00    +0.000 C 
ATOM      2  C   UNL     1      50.609   9.265  17.289  0.00  0.00    +0.000 C 
ATOM      3  C   UNL     1      48.483  10.512  16.828  0.00  0.00    +0.000 C 
ENDROOT
BRANCH   1   8
ATOM      4  C   UNL     1      48.114   6.838  13.897  0.00  0.00    +0.000 A 
ATOM      5  C   UNL     1      48.755   7.458  12.833  0.00  0.00    +0.000 A 
ATOM      6  C   UNL     1      49.574   8.559  13.075  0.00  0.00    +0.000 A 
ATOM      7  C   UNL     1      49.719   9.062  14.373  0.00  0.00    +0.000 A 
ATOM      8  C   UNL     1      49.055   8.473  15.463  0.00  0.00    +0.000 A 
ATOM      9  C   UNL     1      48.285   7.330  15.193  0.00  0.00    +0.000 A 
BRANCH   4  10
ATOM     10  O   UNL     1      47.246   5.783  13.801  0.00  0.00    +0.000 OA
BRANCH  10  14
ATOM     11  C   UNL     1      43.049   5.310  12.645  0.00  0.00    +0.000 C 
ATOM     12  N   UNL     1      44.355   5.477  13.265  0.00  0.00    +0.000 NA
ATOM     13  C   UNL     1      45.102   6.592  12.637  0.00  0.00    +0.000 C 
ATOM     14  C   UNL     1      46.368   5.698  12.657  0.00  0.00    +0.000 C 
ATOM     15  C   UNL     1      45.346   4.529  12.704  0.00  0.00    +0.000 C 
ENDBRANCH  10  14
ENDBRANCH   4  10
ENDBRANCH   1   8
BRANCH   1  16
ATOM     16  C   UNL     1      48.443   8.272  18.004  0.00  0.00    +0.000 C 
BRANCH  16  17
ATOM     17  N   UNL     1      49.359   7.368  18.696  0.00  0.00    +0.000 N 
ATOM     18  H   UNL     1      49.959   7.760  19.415  0.00  0.00    +0.000 HD
BRANCH  17  19
ATOM     19  C   UNL     1      49.605   6.070  18.300  0.00  0.00    +0.000 A 
ATOM     20  C   UNL     1      50.857   5.627  17.864  0.00  0.00    +0.000 A 
ATOM     21  C   UNL     1      51.054   4.306  17.448  0.00  0.00    +0.000 A 
ATOM     22  C   UNL     1      49.988   3.402  17.436  0.00  0.00    +0.000 A 
ATOM     23  C   UNL     1      48.730   3.849  17.827  0.00  0.00    +0.000 A 
ATOM     24  F   UNL     1      47.663   3.032  17.814  0.00  0.00    +0.000 F 
ATOM     25  C   UNL     1      48.537   5.167  18.245  0.00  0.00    +0.000 A 
BRANCH  22  26
ATOM     26  C   UNL     1      50.254   2.003  17.000  0.00  0.00    +0.000 C 
ATOM     27  N   UNL     1      51.077   1.236  17.766  0.00  0.00    +0.000 N 
ATOM     28  O   UNL     1      49.741   1.545  15.983  0.00  0.00    +0.000 OA
ATOM     29  H   UNL     1      51.502   1.565  18.624  0.00  0.00    +0.000 HD
ATOM     30  H   UNL     1      51.242   0.282  17.476  0.00  0.00    +0.000 HD
ENDBRANCH  22  26
ENDBRANCH  17  19
ENDBRANCH  16  17
ENDBRANCH   1  16
TORSDOF 7
ENDMDL
