MODEL 1
REMARK VINA RESULT:    -7.882      0.000      0.000
REMARK INTER + INTRA:         -10.458
REMARK INTER:                  -9.956
REMARK INTRA:                  -0.502
REMARK UNBOUND:                -0.502
REMARK  Name = 
REMARK  5 active torsions:
REMARK  status: ('A' for Active; 'I' for Inactive)
REMARK    1  A    between atoms: N_1  and  C_2
REMARK    2  A    between atoms: C_2  and  C_3
REMARK    3  A    between atoms: C_3  and  C_4
REMARK    4  A    between atoms: C_7  and  C_8
REMARK    5  A    between atoms: C_8  and  N_9
REMARK                            x       y       z     vdW  Elec       q    Type
REMARK                         _______ _______ _______ _____ _____    ______ ____
ROOT
ATOM      1  C   UNL     1      45.876   3.146   7.761  0.00  0.00    +0.000 A 
ATOM      2  C   UNL     1      45.666   1.903   8.371  0.00  0.00    +0.000 A 
ATOM      3  C   UNL     1      44.837   1.789   9.493  0.00  0.00    +0.000 A 
ATOM      4  C   UNL     1      44.195   2.919  10.023  0.00  0.00    +0.000 A 
ATOM      5  C   UNL     1      44.388   4.158   9.393  0.00  0.00    +0.000 A 
ATOM      6  C   UNL     1      45.215   4.270   8.272  0.00  0.00    +0.000 A 
ENDROOT
BRANCH   1   7
ATOM      7  C   UNL     1      46.821   3.281   6.590  0.00  0.00    +0.000 C 
BRANCH   7   8
ATOM      8  C   UNL     1      48.059   2.390   6.728  0.00  0.00    +0.000 C 
BRANCH   8   9
ATOM      9  N   UNL     1      48.476   1.870   5.425  0.00  0.00    +0.000 NA
ATOM     10  H   UNL     1      49.380   1.406   5.519  0.00  0.00    +0.000 HD
ATOM     11  H   UNL     1      48.619   2.643   4.776  0.00  0.00    +0.000 HD
ENDBRANCH   8   9
ENDBRANCH   7   8
ENDBRANCH   1   7
BRANCH   4  12
ATOM     12  C   UNL     1      43.402   2.834  11.313  0.00  0.00    +0.000 C 
BRANCH  12  13
ATOM     13  N   UNL     1      43.572   4.060  12.084  0.00  0.00    +0.000 N 
ATOM     14  N   UNL     1      42.620   5.027  12.010  0.00  0.00    +0.000 NA
ATOM     15  C   UNL     1      43.291   6.135  12.345  0.00  0.00    +0.000 A 
ATOM     16  C   UNL     1      44.627   5.874  12.717  0.00  0.00    +0.000 A 
ATOM     17  C   UNL     1      45.750   6.644  13.067  0.00  0.00    +0.000 A 
ATOM     18  C   UNL     1      46.927   5.978  13.422  0.00  0.00    +0.000 A 
ATOM     19 CL   UNL     1      48.342   6.898  13.769  0.00  0.00    +0.000 Cl
ATOM     20  C   UNL     1      46.984   4.586  13.488  0.00  0.00    +0.000 A 
ATOM     21  C   UNL     1      45.884   3.806  13.114  0.00  0.00    +0.000 A 
ATOM     22  C   UNL     1      44.734   4.486  12.690  0.00  0.00    +0.000 A 
ENDBRANCH  12  13
ENDBRANCH   4  12
TORSDOF 5
ENDMDL
MODEL 2
REMARK VINA RESULT:    -7.516      1.535      2.408
REMARK INTER + INTRA:          -9.995
REMARK INTER:                  -9.499
REMARK INTRA:                  -0.496
REMARK UNBOUND:                -0.502
REMARK  Name = 
REMARK  5 active torsions:
REMARK  status: ('A' for Active; 'I' for Inactive)
REMARK    1  A    between atoms: N_1  and  C_2
REMARK    2  A    between atoms: C_2  and  C_3
REMARK    3  A    between atoms: C_3  and  C_4
REMARK    4  A    between atoms: C_7  and  C_8
REMARK    5  A    between atoms: C_8  and  N_9
REMARK                            x       y       z     vdW  Elec       q    Type
REMARK                         _______ _______ _______ _____ _____    ______ ____
ROOT
ATOM      1  C   UNL     1      45.861   3.151   7.789  0.00  0.00    +0.000 A 
ATOM      2  C   UNL     1      45.280   2.337   8.770  0.00  0.00    +0.000 A 
ATOM      3  C   UNL     1      44.876   2.876   9.996  0.00  0.00    +0.000 A 
ATOM      4  C   UNL     1      45.038   4.244  10.263  0.00  0.00    +0.000 A 
ATOM      5  C   UNL     1      45.598   5.060   9.267  0.00  0.00    +0.000 A 
ATOM      6  C   UNL     1      46.000   4.520   8.042  0.00  0.00    +0.000 A 
ENDROOT
BRANCH   1   7
ATOM      7  C   UNL     1      46.357   2.558   6.490  0.00  0.00    +0.000 C 
BRANCH   7   8
ATOM      8  C   UNL     1      47.538   1.603   6.692  0.00  0.00    +0.000 C 
BRANCH   8   9
ATOM      9  N   UNL     1      48.585   1.851   5.700  0.00  0.00    +0.000 NA
ATOM     10  H   UNL     1      48.507   1.167   4.947  0.00  0.00    +0.000 HD
ATOM     11  H   UNL     1      49.501   1.707   6.123  0.00  0.00    +0.000 HD
ENDBRANCH   8   9
ENDBRANCH   7   8
ENDBRANCH   1   7
BRANCH   4  12
ATOM     12  C   UNL     1      44.729   4.817  11.633  0.00  0.00    +0.000 C 
BRANCH  12  13
ATOM     13  N   UNL     1      45.916   4.761  12.476  0.00  0.00    +0.000 N 
ATOM     14  N   UNL     1      46.014   3.790  13.421  0.00  0.00    +0.000 NA
ATOM     15  C   UNL     1      46.865   4.317  14.308  0.00  0.00    +0.000 A 
ATOM     16  C   UNL     1      47.377   5.566  13.898  0.00  0.00    +0.000 A 
ATOM     17  C   UNL     1      48.208   6.553  14.457  0.00  0.00    +0.000 A 
ATOM     18  C   UNL     1      48.524   7.673  13.681  0.00  0.00    +0.000 A 
ATOM     19 CL   UNL     1      49.467   8.937  14.373  0.00  0.00    +0.000 Cl
ATOM     20  C   UNL     1      48.078   7.794  12.364  0.00  0.00    +0.000 A 
ATOM     21  C   UNL     1      47.226   6.836  11.806  0.00  0.00    +0.000 A 
ATOM     22  C   UNL     1      46.859   5.755  12.619  0.00  0.00    +0.000 A 
ENDBRANCH  12  13
ENDBRANCH   4  12
TORSDOF 5
ENDMDL
MODEL 3
REMARK VINA RESULT:    -7.100      2.808      6.158
REMARK INTER + INTRA:          -9.470
REMARK INTER:                  -8.693
REMARK INTRA:                  -0.777
REMARK UNBOUND:                -0.502
REMARK  Name = 
REMARK  5 active torsions:
REMARK  status: ('A' for Active; 'I' for Inactive)
REMARK    1  A    between atoms: N_1  and  C_2
REMARK    2  A    between atoms: C_2  and  C_3
REMARK    3  A    between atoms: C_3  and  C_4
REMARK    4  A    between atoms: C_7  and  C_8
REMARK    5  A    between atoms: C_8  and  N_9
REMARK                            x       y       z     vdW  Elec       q    Type
REMARK                         _______ _______ _______ _____ _____    ______ ____
ROOT
ATOM      1  C   UNL     1      47.696   6.318  13.180  0.00  0.00    +0.000 A 
ATOM      2  C   UNL     1      46.823   5.317  13.625  0.00  0.00    +0.000 A 
ATOM      3  C   UNL     1      45.640   5.041  12.932  0.00  0.00    +0.000 A 
ATOM      4  C   UNL     1      45.308   5.758  11.772  0.00  0.00    +0.000 A 
ATOM      5  C   UNL     1      46.198   6.743  11.314  0.00  0.00    +0.000 A 
ATOM      6  C   UNL     1      47.381   7.016  12.008  0.00  0.00    +0.000 A 
ENDROOT
BRANCH   1   7
ATOM      7  C   UNL     1      48.941   6.660  13.964  0.00  0.00    +0.000 C 
BRANCH   7   8
ATOM      8  C   UNL     1      48.632   7.088  15.401  0.00  0.00    +0.000 C 
BRANCH   8   9
ATOM      9  N   UNL     1      47.884   8.345  15.422  0.00  0.00    +0.000 NA
ATOM     10  H   UNL     1      47.215   8.355  14.652  0.00  0.00    +0.000 HD
ATOM     11  H   UNL     1      48.518   9.126  15.259  0.00  0.00    +0.000 HD
ENDBRANCH   8   9
ENDBRANCH   7   8
ENDBRANCH   1   7
BRANCH   4  12
ATOM     12  C   UNL     1      43.969   5.563  11.087  0.00  0.00    +0.000 C 
BRANCH  12  13
ATOM     13  N   UNL     1      43.922   4.254  10.447  0.00  0.00    +0.000 N 
ATOM     14  N   UNL     1      43.273   3.235  11.069  0.00  0.00    +0.000 NA
ATOM     15  C   UNL     1      43.851   2.147  10.547  0.00  0.00    +0.000 A 
ATOM     16  C   UNL     1      44.791   2.457   9.542  0.00  0.00    +0.000 A 
ATOM     17  C   UNL     1      45.707   1.737   8.754  0.00  0.00    +0.000 A 
ATOM     18  C   UNL     1      46.459   2.435   7.804  0.00  0.00    +0.000 A 
ATOM     19 CL   UNL     1      47.649   1.591   6.888  0.00  0.00    +0.000 Cl
ATOM     20  C   UNL     1      46.277   3.802   7.594  0.00  0.00    +0.000 A 
ATOM     21  C   UNL     1      45.393   4.537   8.391  0.00  0.00    +0.000 A 
ATOM     22  C   UNL     1      44.699   3.838   9.387  0.00  0.00    +0.000 A 
ENDBRANCH  12  13
ENDBRANCH   4  12
TORSDOF 5
ENDMDL
MODEL 4
REMARK VINA RESULT:    -6.363      2.857      6.245
REMARK INTER + INTRA:          -8.539
REMARK INTER:                  -8.201
REMARK INTRA:                  -0.337
REMARK UNBOUND:                -0.502
REMARK  Name = 
REMARK  5 active torsions:
REMARK  status: ('A' for Active; 'I' for Inactive)
REMARK    1  A    between atoms: N_1  and  C_2
REMARK    2  A    between atoms: C_2  and  C_3
REMARK    3  A    between atoms: C_3  and  C_4
REMARK    4  A    between atoms: C_7  and  C_8
REMARK    5  A    between atoms: C_8  and  N_9
REMARK                            x       y       z     vdW  Elec       q    Type
REMARK                         _______ _______ _______ _____ _____    ______ ____
ROOT
ATOM      1  C   UNL     1      46.871   5.111  14.155  0.00  0.00    +0.000 A 
ATOM      2  C   UNL     1      47.276   5.917  13.084  0.00  0.00    +0.000 A 
ATOM      3  C   UNL     1      46.437   6.117  11.983  0.00  0.00    +0.000 A 
ATOM      4  C   UNL     1      45.169   5.517  11.934  0.00  0.00    +0.000 A 
ATOM      5  C   UNL     1      44.757   4.730  13.021  0.00  0.00    +0.000 A 
ATOM      6  C   UNL     1      45.597   4.534  14.121  0.00  0.00    +0.000 A 
ENDROOT
BRANCH   1   7
ATOM      7  C   UNL     1      47.803   4.843  15.314  0.00  0.00    +0.000 C 
BRANCH   7   8
ATOM      8  C   UNL     1      47.829   3.367  15.719  0.00  0.00    +0.000 C 
BRANCH   8   9
ATOM      9  N   UNL     1      48.922   3.102  16.655  0.00  0.00    +0.000 NA
ATOM     10  H   UNL     1      48.619   3.328  17.603  0.00  0.00    +0.000 HD
ATOM     11  H   UNL     1      49.707   3.720  16.452  0.00  0.00    +0.000 HD
ENDBRANCH   8   9
ENDBRANCH   7   8
ENDBRANCH   1   7
BRANCH   4  12
ATOM     12  C   UNL     1      44.304   5.614  10.692  0.00  0.00    +0.000 C 
BRANCH  12  13
ATOM     13  N   UNL     1      44.228   4.316  10.034  0.00  0.00    +0.000 N 
ATOM     14  N   UNL     1      43.498   3.324  10.606  0.00  0.00    +0.000 NA
ATOM     15  C   UNL     1      44.050   2.215  10.102  0.00  0.00    +0.000 A 
ATOM     16  C   UNL     1      45.057   2.489   9.153  0.00  0.00    +0.000 A 
ATOM     17  C   UNL     1      45.978   1.732   8.406  0.00  0.00    +0.000 A 
ATOM     18  C   UNL     1      46.813   2.402   7.507  0.00  0.00    +0.000 A 
ATOM     19 CL   UNL     1      48.009   1.511   6.645  0.00  0.00    +0.000 Cl
ATOM     20  C   UNL     1      46.710   3.779   7.305  0.00  0.00    +0.000 A 
ATOM     21  C   UNL     1      45.821   4.548   8.063  0.00  0.00    +0.000 A 
ATOM     22  C   UNL     1      45.040   3.874   9.012  0.00  0.00    +0.000 A 
ENDBRANCH  12  13
ENDBRANCH   4  12
TORSDOF 5
ENDMDL
MODEL 5
REMARK VINA RESULT:    -6.194      2.184      3.371
REMARK INTER + INTRA:          -8.325
REMARK INTER:                  -7.746
REMARK INTRA:                  -0.579
REMARK UNBOUND:                -0.502
REMARK  Name = 
REMARK  5 active torsions:
REMARK  status: ('A' for Active; 'I' for Inactive)
REMARK    1  A    between atoms: N_1  and  C_2
REMARK    2  A    between atoms: C_2  and  C_3
REMARK    3  A    between atoms: C_3  and  C_4
REMARK    4  A    between atoms: C_7  and  C_8
REMARK    5  A    between atoms: C_8  and  N_9
REMARK                            x       y       z     vdW  Elec       q    Type
REMARK                         _______ _______ _______ _____ _____    ______ ____
ROOT
ATOM      1  C   UNL     1      45.352   3.815   8.980  0.00  0.00    +0.000 A 
ATOM      2  C   UNL     1      45.666   5.146   9.279  0.00  0.00    +0.000 A 
ATOM      3  C   UNL     1      45.632   5.609  10.599  0.00  0.00    +0.000 A 
ATOM      4  C   UNL     1      45.289   4.743  11.649  0.00  0.00    +0.000 A 
ATOM      5  C   UNL     1      44.999   3.403  11.348  0.00  0.00    +0.000 A 
ATOM      6  C   UNL     1      45.035   2.943  10.028  0.00  0.00    +0.000 A 
ENDROOT
BRANCH   1   7
ATOM      7  C   UNL     1      45.325   3.332   7.548  0.00  0.00    +0.000 C 
BRANCH   7   8
ATOM      8  C   UNL     1      46.514   2.427   7.210  0.00  0.00    +0.000 C 
BRANCH   8   9
ATOM      9  N   UNL     1      47.671   3.220   6.793  0.00  0.00    +0.000 NA
ATOM     10  H   UNL     1      47.351   4.046   6.287  0.00  0.00    +0.000 HD
ATOM     11  H   UNL     1      48.237   2.684   6.136  0.00  0.00    +0.000 HD
ENDBRANCH   8   9
ENDBRANCH   7   8
ENDBRANCH   1   7
BRANCH   4  12
ATOM     12  C   UNL     1      45.118   5.261  13.065  0.00  0.00    +0.000 C 
BRANCH  12  13
ATOM     13  N   UNL     1      46.339   5.034  13.829  0.00  0.00    +0.000 N 
ATOM     14  N   UNL     1      46.370   4.032  14.746  0.00  0.00    +0.000 NA
ATOM     15  C   UNL     1      47.334   4.423  15.587  0.00  0.00    +0.000 A 
ATOM     16  C   UNL     1      47.974   5.610  15.169  0.00  0.00    +0.000 A 
ATOM     17  C   UNL     1      48.956   6.469  15.693  0.00  0.00    +0.000 A 
ATOM     18  C   UNL     1      49.362   7.562  14.922  0.00  0.00    +0.000 A 
ATOM     19 CL   UNL     1      50.499   8.679  15.577  0.00  0.00    +0.000 Cl
ATOM     20  C   UNL     1      48.856   7.775  13.639  0.00  0.00    +0.000 A 
ATOM     21  C   UNL     1      47.857   6.947  13.117  0.00  0.00    +0.000 A 
ATOM     22  C   UNL     1      47.407   5.898  13.931  0.00  0.00    +0.000 A 
ENDBRANCH  12  13
ENDBRANCH   4  12
TORSDOF 5
ENDMDL
MODEL 6
REMARK VINA RESULT:    -5.931      3.209      6.645
REMARK INTER + INTRA:          -7.992
REMARK INTER:                  -7.812
REMARK INTRA:                  -0.181
REMARK UNBOUND:                -0.502
REMARK  Name = 
REMARK  5 active torsions:
REMARK  status: ('A' for Active; 'I' for Inactive)
REMARK    1  A    between atoms: N_1  and  C_2
REMARK    2  A    between atoms: C_2  and  C_3
REMARK    3  A    between atoms: C_3  and  C_4
REMARK    4  A    between atoms: C_7  and  C_8
REMARK    5  A    between atoms: C_8  and  N_9
REMARK                            x       y       z     vdW  Elec       q    Type
REMARK                         _______ _______ _______ _____ _____    ______ ____
ROOT
ATOM      1  C   UNL     1      44.968   9.389  11.937  0.00  0.00    +0.000 A 
ATOM      2  C   UNL     1      44.135   8.465  11.295  0.00  0.00    +0.000 A 
ATOM      3  C   UNL     1      44.341   7.090  11.450  0.00  0.00    +0.000 A 
ATOM      4  C   UNL     1      45.383   6.611  12.260  0.00  0.00    +0.000 A 
ATOM      5  C   UNL     1      46.199   7.541  12.922  0.00  0.00    +0.000 A 
ATOM      6  C   UNL     1      45.991   8.915  12.766  0.00  0.00    +0.000 A 
ENDROOT
BRANCH   1   7
ATOM      7  C   UNL     1      44.787  10.873  11.718  0.00  0.00    +0.000 C 
BRANCH   7   8
ATOM      8  C   UNL     1      43.405  11.221  11.157  0.00  0.00    +0.000 C 
BRANCH   8   9
ATOM      9  N   UNL     1      42.382  11.138  12.201  0.00  0.00    +0.000 NA
ATOM     10  H   UNL     1      42.690  10.489  12.926  0.00  0.00    +0.000 HD
ATOM     11  H   UNL     1      41.525  10.746  11.812  0.00  0.00    +0.000 HD
ENDBRANCH   8   9
ENDBRANCH   7   8
ENDBRANCH   1   7
BRANCH   4  12
ATOM     12  C   UNL     1      45.701   5.130  12.331  0.00  0.00    +0.000 C 
BRANCH  12  13
ATOM     13  N   UNL     1      44.944   4.407  11.317  0.00  0.00    +0.000 N 
ATOM     14  N   UNL     1      43.994   3.517  11.706  0.00  0.00    +0.000 NA
ATOM     15  C   UNL     1      43.902   2.696  10.655  0.00  0.00    +0.000 A 
ATOM     16  C   UNL     1      44.711   3.102   9.572  0.00  0.00    +0.000 A 
ATOM     17  C   UNL     1      45.045   2.585   8.308  0.00  0.00    +0.000 A 
ATOM     18  C   UNL     1      45.883   3.340   7.482  0.00  0.00    +0.000 A 
ATOM     19 CL   UNL     1      46.377   2.690   5.965  0.00  0.00    +0.000 Cl
ATOM     20  C   UNL     1      46.339   4.601   7.866  0.00  0.00    +0.000 A 
ATOM     21  C   UNL     1      46.041   5.115   9.133  0.00  0.00    +0.000 A 
ATOM     22  C   UNL     1      45.259   4.315   9.979  0.00  0.00    +0.000 A 
ENDBRANCH  12  13
ENDBRANCH   4  12
TORSDOF 5
ENDMDL
MODEL 7
REMARK VINA RESULT:    -5.594      5.089      7.835
REMARK INTER + INTRA:          -7.567
REMARK INTER:                  -7.170
REMARK INTRA:                  -0.397
REMARK UNBOUND:                -0.502
REMARK  Name = 
REMARK  5 active torsions:
REMARK  status: ('A' for Active; 'I' for Inactive)
REMARK    1  A    between atoms: N_1  and  C_2
REMARK    2  A    between atoms: C_2  and  C_3
REMARK    3  A    between atoms: C_3  and  C_4
REMARK    4  A    between atoms: C_7  and  C_8
REMARK    5  A    between atoms: C_8  and  N_9
REMARK                            x       y       z     vdW  Elec       q    Type
REMARK                         _______ _______ _______ _____ _____    ______ ____
ROOT
ATOM      1  C   UNL     1      51.020   2.609  17.540  0.00  0.00    +0.000 A 
ATOM      2  C   UNL     1      50.156   1.812  16.778  0.00  0.00    +0.000 A 
ATOM      3  C   UNL     1      48.963   2.337  16.269  0.00  0.00    +0.000 A 
ATOM      4  C   UNL     1      48.614   3.676  16.506  0.00  0.00    +0.000 A 
ATOM      5  C   UNL     1      49.496   4.478  17.248  0.00  0.00    +0.000 A 
ATOM      6  C   UNL     1      50.688   3.952  17.755  0.00  0.00    +0.000 A 
ENDROOT
BRANCH   1   7
ATOM      7  C   UNL     1      52.276   2.025  18.144  0.00  0.00    +0.000 C 
BRANCH   7   8
ATOM      8  C   UNL     1      52.713   0.730  17.454  0.00  0.00    +0.000 C 
BRANCH   8   9
ATOM      9  N   UNL     1      52.879  -0.350  18.429  0.00  0.00    +0.000 NA
ATOM     10  H   UNL     1      53.838  -0.694  18.393  0.00  0.00    +0.000 HD
ATOM     11  H   UNL     1      52.283  -1.137  18.174  0.00  0.00    +0.000 HD
ENDBRANCH   8   9
ENDBRANCH   7   8
ENDBRANCH   1   7
BRANCH   4  12
ATOM     12  C   UNL     1      47.266   4.221  16.076  0.00  0.00    +0.000 C 
BRANCH  12  13
ATOM     13  N   UNL     1      47.377   4.850  14.766  0.00  0.00    +0.000 N 
ATOM     14  N   UNL     1      47.991   6.057  14.659  0.00  0.00    +0.000 NA
ATOM     15  C   UNL     1      47.467   6.563  13.537  0.00  0.00    +0.000 A 
ATOM     16  C   UNL     1      46.600   5.661  12.884  0.00  0.00    +0.000 A 
ATOM     17  C   UNL     1      45.756   5.701  11.760  0.00  0.00    +0.000 A 
ATOM     18  C   UNL     1      45.068   4.537  11.404  0.00  0.00    +0.000 A 
ATOM     19 CL   UNL     1      43.960   4.584  10.086  0.00  0.00    +0.000 Cl
ATOM     20  C   UNL     1      45.248   3.343  12.103  0.00  0.00    +0.000 A 
ATOM     21  C   UNL     1      46.061   3.296  13.241  0.00  0.00    +0.000 A 
ATOM     22  C   UNL     1      46.687   4.488  13.629  0.00  0.00    +0.000 A 
ENDBRANCH  12  13
ENDBRANCH   4  12
TORSDOF 5
ENDMDL
MODEL 8
REMARK VINA RESULT:    -5.497      3.542      5.122
REMARK INTER + INTRA:          -7.445
REMARK INTER:                  -6.894
REMARK INTRA:                  -0.551
REMARK UNBOUND:                -0.502
REMARK  Name = 
REMARK  5 active torsions:
REMARK  status: ('A' for Active; 'I' for Inactive)
REMARK    1  A    between atoms: N_1  and  C_2
REMARK    2  A    between atoms: C_2  and  C_3
REMARK    3  A    between atoms: C_3  and  C_4
REMARK    4  A    between atoms: C_7  and  C_8
REMARK    5  A    between atoms: C_8  and  N_9
REMARK                            x       y       z     vdW  Elec       q    Type
REMARK                         _______ _______ _______ _____ _____    ______ ____
ROOT
ATOM      1  C   UNL     1      44.888   3.925  10.966  0.00  0.00    +0.000 A 
ATOM      2  C   UNL     1      45.259   5.104  10.307  0.00  0.00    +0.000 A 
ATOM      3  C   UNL     1      45.836   6.165  11.013  0.00  0.00    +0.000 A 
ATOM      4  C   UNL     1      46.060   6.065  12.395  0.00  0.00    +0.000 A 
ATOM      5  C   UNL     1      45.709   4.872  13.047  0.00  0.00    +0.000 A 
ATOM      6  C   UNL     1      45.134   3.812  12.339  0.00  0.00    +0.000 A 
ENDROOT
BRANCH   1   7
ATOM      7  C   UNL     1      44.206   2.805  10.216  0.00  0.00    +0.000 C 
BRANCH   7   8
ATOM      8  C   UNL     1      44.821   2.561   8.835  0.00  0.00    +0.000 C 
BRANCH   8   9
ATOM      9  N   UNL     1      45.612   1.330   8.825  0.00  0.00    +0.000 NA
ATOM     10  H   UNL     1      46.567   1.543   8.533  0.00  0.00    +0.000 HD
ATOM     11  H   UNL     1      45.238   0.686   8.129  0.00  0.00    +0.000 HD
ENDBRANCH   8   9
ENDBRANCH   7   8
ENDBRANCH   1   7
BRANCH   4  12
ATOM     12  C   UNL     1      46.559   7.252  13.195  0.00  0.00    +0.000 C 
BRANCH  12  13
ATOM     13  N   UNL     1      47.947   7.041  13.589  0.00  0.00    +0.000 N 
ATOM     14  N   UNL     1      48.220   6.599  14.844  0.00  0.00    +0.000 NA
ATOM     15  C   UNL     1      49.474   7.019  15.044  0.00  0.00    +0.000 A 
ATOM     16  C   UNL     1      50.030   7.641  13.906  0.00  0.00    +0.000 A 
ATOM     17  C   UNL     1      51.230   8.308  13.601  0.00  0.00    +0.000 A 
ATOM     18  C   UNL     1      51.424   8.761  12.293  0.00  0.00    +0.000 A 
ATOM     19 CL   UNL     1      52.845   9.658  11.915  0.00  0.00    +0.000 Cl
ATOM     20  C   UNL     1      50.484   8.516  11.291  0.00  0.00    +0.000 A 
ATOM     21  C   UNL     1      49.273   7.882  11.587  0.00  0.00    +0.000 A 
ATOM     22  C   UNL     1      49.061   7.497  12.918  0.00  0.00    +0.000 A 
ENDBRANCH  12  13
ENDBRANCH   4  12
TORSDOF 5
ENDMDL
MODEL 9
REMARK VINA RESULT:    -5.328      3.279      6.264
REMARK INTER + INTRA:          -7.231
REMARK INTER:                  -6.786
REMARK INTRA:                  -0.445
REMARK UNBOUND:                -0.502
REMARK  Name = 
REMARK  5 active torsions:
REMARK  status: ('A' for Active; 'I' for Inactive)
REMARK    1  A    between atoms: N_1  and  C_2
REMARK    2  A    between atoms: C_2  and  C_3
REMARK    3  A    between atoms: C_3  and  C_4
REMARK    4  A    between atoms: C_7  and  C_8
REMARK    5  A    between atoms: C_8  and  N_9
REMARK                            x       y       z     vdW  Elec       q    Type
REMARK                         _______ _______ _______ _____ _____    ______ ____
ROOT
ATOM      1  C   UNL     1      48.920   8.068  13.037  0.00  0.00    +0.000 A 
ATOM      2  C   UNL     1      48.569   7.027  12.168  0.00  0.00    +0.000 A 
ATOM      3  C   UNL     1      47.251   6.886  11.719  0.00  0.00    +0.000 A 
ATOM      4  C   UNL     1      46.258   7.791  12.125  0.00  0.00    +0.000 A 
ATOM      5  C   UNL     1      46.620   8.847  12.976  0.00  0.00    +0.000 A 
ATOM      6  C   UNL     1      47.937   8.987  13.422  0.00  0.00    +0.000 A 
ENDROOT
BRANCH   1   7
ATOM      7  C   UNL     1      50.328   8.182  13.574  0.00  0.00    +0.000 C 
BRANCH   7   8
ATOM      8  C   UNL     1      50.449   7.692  15.019  0.00  0.00    +0.000 C 
BRANCH   8   9
ATOM      9  N   UNL     1      49.618   6.507  15.240  0.00  0.00    +0.000 NA
ATOM     10  H   UNL     1      49.390   6.082  14.341  0.00  0.00    +0.000 HD
ATOM     11  H   UNL     1      48.730   6.783  15.659  0.00  0.00    +0.000 HD
ENDBRANCH   8   9
ENDBRANCH   7   8
ENDBRANCH   1   7
BRANCH   4  12
ATOM     12  C   UNL     1      44.803   7.574  11.755  0.00  0.00    +0.000 C 
BRANCH  12  13
ATOM     13  N   UNL     1      44.432   6.183  11.983  0.00  0.00    +0.000 N 
ATOM     14  N   UNL     1      44.348   5.720  13.258  0.00  0.00    +0.000 NA
ATOM     15  C   UNL     1      44.532   4.403  13.112  0.00  0.00    +0.000 A 
ATOM     16  C   UNL     1      44.642   4.013  11.760  0.00  0.00    +0.000 A 
ATOM     17  C   UNL     1      44.911   2.819  11.069  0.00  0.00    +0.000 A 
ATOM     18  C   UNL     1      44.890   2.841   9.671  0.00  0.00    +0.000 A 
ATOM     19 CL   UNL     1      45.303   1.413   8.800  0.00  0.00    +0.000 Cl
ATOM     20  C   UNL     1      44.557   3.998   8.967  0.00  0.00    +0.000 A 
ATOM     21  C   UNL     1      44.316   5.201   9.639  0.00  0.00    +0.000 A 
ATOM     22  C   UNL     1      44.412   5.181  11.037  0.00  0.00    +0.000 A 
ENDBRANCH  12  13
ENDBRANCH   4  12
TORSDOF 5
ENDMDL
