MODEL 1
REMARK VINA RESULT:    -8.643      0.000      0.000
REMARK INTER + INTRA:         -11.294
REMARK INTER:                 -10.664
REMARK INTRA:                  -0.630
REMARK UNBOUND:                -0.630
REMARK  Name = 
REMARK  5 active torsions:
REMARK  status: ('A' for Active; 'I' for Inactive)
REMARK    1  A    between atoms: C_1  and  C_2
REMARK    2  A    between atoms: C_2  and  N_3
REMARK    3  A    between atoms: C_2  and  C_13
REMARK    4  A    between atoms: N_3  and  C_4
REMARK    5  A    between atoms: C_7  and  C_8
REMARK                            x       y       z     vdW  Elec       q    Type
REMARK                         _______ _______ _______ _____ _____    ______ ____
ROOT
ATOM      1  N   UNL     1      43.772   4.865   9.810  0.00  0.00    +0.000 N 
ATOM      2  H   UNL     1      43.979   5.821   9.523  0.00  0.00    +0.000 HD
ENDROOT
BRANCH   1   3
ATOM      3  C   UNL     1      44.551   3.950   9.094  0.00  0.00    +0.000 A 
ATOM      4  C   UNL     1      45.538   4.319   8.185  0.00  0.00    +0.000 A 
ATOM      5  C   UNL     1      46.364   3.360   7.594  0.00  0.00    +0.000 A 
ATOM      6  C   UNL     1      46.192   2.029   7.941  0.00  0.00    +0.000 A 
ATOM      7  N   UNL     1      45.254   1.603   8.827  0.00  0.00    +0.000 NA
ATOM      8  C   UNL     1      44.482   2.576   9.382  0.00  0.00    +0.000 A 
BRANCH   6   9
ATOM      9  C   UNL     1      47.104   1.002   7.346  0.00  0.00    +0.000 C 
ATOM     10  N   UNL     1      46.819  -0.303   7.651  0.00  0.00    +0.000 N 
ATOM     11  O   UNL     1      48.058   1.294   6.639  0.00  0.00    +0.000 OA
ATOM     12  H   UNL     1      46.050  -0.518   8.273  0.00  0.00    +0.000 HD
ATOM     13  H   UNL     1      47.435  -1.032   7.322  0.00  0.00    +0.000 HD
ENDBRANCH   6   9
ENDBRANCH   1   3
BRANCH   1  15
ATOM     14  C   UNL     1      42.394   5.562  11.770  0.00  0.00    +0.000 C 
ATOM     15  C   UNL     1      43.605   4.767  11.270  0.00  0.00    +0.000 C 
BRANCH  15  16
ATOM     16  C   UNL     1      44.878   5.310  11.916  0.00  0.00    +0.000 A 
ATOM     17  C   UNL     1      45.587   6.382  11.347  0.00  0.00    +0.000 A 
ATOM     18  C   UNL     1      46.777   6.836  11.921  0.00  0.00    +0.000 A 
ATOM     19  C   UNL     1      47.283   6.220  13.067  0.00  0.00    +0.000 A 
ATOM     20 CL   UNL     1      48.779   6.807  13.701  0.00  0.00    +0.000 Cl
ATOM     21  C   UNL     1      46.585   5.157  13.649  0.00  0.00    +0.000 A 
ATOM     22 CL   UNL     1      47.151   4.340  15.063  0.00  0.00    +0.000 Cl
ATOM     23  C   UNL     1      45.388   4.709  13.077  0.00  0.00    +0.000 A 
ENDBRANCH  15  16
ENDBRANCH   1  15
TORSDOF 4
ENDMDL
MODEL 2
REMARK VINA RESULT:    -8.426      0.745      1.588
REMARK INTER + INTRA:         -11.026
REMARK INTER:                 -10.341
REMARK INTRA:                  -0.686
REMARK UNBOUND:                -0.630
REMARK  Name = 
REMARK  5 active torsions:
REMARK  status: ('A' for Active; 'I' for Inactive)
REMARK    1  A    between atoms: C_1  and  C_2
REMARK    2  A    between atoms: C_2  and  N_3
REMARK    3  A    between atoms: C_2  and  C_13
REMARK    4  A    between atoms: N_3  and  C_4
REMARK    5  A    between atoms: C_7  and  C_8
REMARK                            x       y       z     vdW  Elec       q    Type
REMARK                         _______ _______ _______ _____ _____    ______ ____
ROOT
ATOM      1  N   UNL     1      43.764   4.873   9.844  0.00  0.00    +0.000 N 
ATOM      2  H   UNL     1      43.992   5.830   9.576  0.00  0.00    +0.000 HD
ENDROOT
BRANCH   1   3
ATOM      3  C   UNL     1      44.543   3.957   9.129  0.00  0.00    +0.000 A 
ATOM      4  C   UNL     1      45.521   4.323   8.210  0.00  0.00    +0.000 A 
ATOM      5  C   UNL     1      46.347   3.363   7.621  0.00  0.00    +0.000 A 
ATOM      6  C   UNL     1      46.185   2.034   7.981  0.00  0.00    +0.000 A 
ATOM      7  N   UNL     1      45.256   1.611   8.877  0.00  0.00    +0.000 NA
ATOM      8  C   UNL     1      44.483   2.584   9.429  0.00  0.00    +0.000 A 
BRANCH   6   9
ATOM      9  C   UNL     1      47.098   1.007   7.387  0.00  0.00    +0.000 C 
ATOM     10  N   UNL     1      46.790  -0.300   7.660  0.00  0.00    +0.000 N 
ATOM     11  O   UNL     1      48.072   1.300   6.708  0.00  0.00    +0.000 OA
ATOM     12  H   UNL     1      46.004  -0.517   8.260  0.00  0.00    +0.000 HD
ATOM     13  H   UNL     1      47.404  -1.030   7.332  0.00  0.00    +0.000 HD
ENDBRANCH   6   9
ENDBRANCH   1   3
BRANCH   1  15
ATOM     14  C   UNL     1      42.371   5.580  11.789  0.00  0.00    +0.000 C 
ATOM     15  C   UNL     1      43.567   4.757  11.298  0.00  0.00    +0.000 C 
BRANCH  15  16
ATOM     16  C   UNL     1      44.844   5.249  11.976  0.00  0.00    +0.000 A 
ATOM     17  C   UNL     1      45.585   4.417  12.834  0.00  0.00    +0.000 A 
ATOM     18  C   UNL     1      46.723   4.896  13.486  0.00  0.00    +0.000 A 
ATOM     19  C   UNL     1      47.136   6.217  13.299  0.00  0.00    +0.000 A 
ATOM     20 CL   UNL     1      48.529   6.754  14.167  0.00  0.00    +0.000 Cl
ATOM     21  C   UNL     1      46.415   7.054  12.442  0.00  0.00    +0.000 A 
ATOM     22 CL   UNL     1      46.859   8.701  12.165  0.00  0.00    +0.000 Cl
ATOM     23  C   UNL     1      45.279   6.570  11.783  0.00  0.00    +0.000 A 
ENDBRANCH  15  16
ENDBRANCH   1  15
TORSDOF 4
ENDMDL
MODEL 3
REMARK VINA RESULT:    -7.426      4.112      6.213
REMARK INTER + INTRA:          -9.793
REMARK INTER:                  -9.920
REMARK INTRA:                   0.126
REMARK UNBOUND:                -0.630
REMARK  Name = 
REMARK  5 active torsions:
REMARK  status: ('A' for Active; 'I' for Inactive)
REMARK    1  A    between atoms: C_1  and  C_2
REMARK    2  A    between atoms: C_2  and  N_3
REMARK    3  A    between atoms: C_2  and  C_13
REMARK    4  A    between atoms: N_3  and  C_4
REMARK    5  A    between atoms: C_7  and  C_8
REMARK                            x       y       z     vdW  Elec       q    Type
REMARK                         _______ _______ _______ _____ _____    ______ ____
ROOT
ATOM      1  N   UNL     1      44.365   5.181  10.627  0.00  0.00    +0.000 N 
ATOM      2  H   UNL     1      43.568   5.781  10.843  0.00  0.00    +0.000 HD
ENDROOT
BRANCH   1   3
ATOM      3  C   UNL     1      45.304   5.210  11.663  0.00  0.00    +0.000 A 
ATOM      4  C   UNL     1      46.428   6.031  11.667  0.00  0.00    +0.000 A 
ATOM      5  C   UNL     1      47.261   6.102  12.785  0.00  0.00    +0.000 A 
ATOM      6  C   UNL     1      46.940   5.346  13.902  0.00  0.00    +0.000 A 
ATOM      7  N   UNL     1      45.855   4.531  13.967  0.00  0.00    +0.000 NA
ATOM      8  C   UNL     1      45.070   4.505  12.857  0.00  0.00    +0.000 A 
BRANCH   6   9
ATOM      9  C   UNL     1      47.805   5.453  15.120  0.00  0.00    +0.000 C 
ATOM     10  N   UNL     1      47.319   4.858  16.255  0.00  0.00    +0.000 N 
ATOM     11  O   UNL     1      48.876   6.043  15.122  0.00  0.00    +0.000 OA
ATOM     12  H   UNL     1      46.411   4.412  16.240  0.00  0.00    +0.000 HD
ATOM     13  H   UNL     1      47.835   4.948  17.118  0.00  0.00    +0.000 HD
ENDBRANCH   6   9
ENDBRANCH   1   3
BRANCH   1  15
ATOM     14  C   UNL     1      43.702   2.811  11.039  0.00  0.00    +0.000 C 
ATOM     15  C   UNL     1      43.932   3.919  10.005  0.00  0.00    +0.000 C 
BRANCH  15  16
ATOM     16  C   UNL     1      45.024   3.491   9.026  0.00  0.00    +0.000 A 
ATOM     17  C   UNL     1      45.693   4.428   8.220  0.00  0.00    +0.000 A 
ATOM     18  C   UNL     1      46.655   4.018   7.295  0.00  0.00    +0.000 A 
ATOM     19  C   UNL     1      46.959   2.662   7.153  0.00  0.00    +0.000 A 
ATOM     20 CL   UNL     1      48.129   2.221   5.962  0.00  0.00    +0.000 Cl
ATOM     21  C   UNL     1      46.308   1.718   7.953  0.00  0.00    +0.000 A 
ATOM     22 CL   UNL     1      46.625   0.023   7.831  0.00  0.00    +0.000 Cl
ATOM     23  C   UNL     1      45.350   2.133   8.887  0.00  0.00    +0.000 A 
ENDBRANCH  15  16
ENDBRANCH   1  15
TORSDOF 4
ENDMDL
MODEL 4
REMARK VINA RESULT:    -7.091      4.224      6.726
REMARK INTER + INTRA:          -9.380
REMARK INTER:                  -8.818
REMARK INTRA:                  -0.562
REMARK UNBOUND:                -0.630
REMARK  Name = 
REMARK  5 active torsions:
REMARK  status: ('A' for Active; 'I' for Inactive)
REMARK    1  A    between atoms: C_1  and  C_2
REMARK    2  A    between atoms: C_2  and  N_3
REMARK    3  A    between atoms: C_2  and  C_13
REMARK    4  A    between atoms: N_3  and  C_4
REMARK    5  A    between atoms: C_7  and  C_8
REMARK                            x       y       z     vdW  Elec       q    Type
REMARK                         _______ _______ _______ _____ _____    ______ ____
ROOT
ATOM      1  N   UNL     1      45.153   4.128  11.551  0.00  0.00    +0.000 N 
ATOM      2  H   UNL     1      46.081   3.705  11.538  0.00  0.00    +0.000 HD
ENDROOT
BRANCH   1   3
ATOM      3  C   UNL     1      45.236   5.503  11.794  0.00  0.00    +0.000 A 
ATOM      4  C   UNL     1      46.409   6.154  12.165  0.00  0.00    +0.000 A 
ATOM      5  C   UNL     1      46.452   7.546  12.273  0.00  0.00    +0.000 A 
ATOM      6  C   UNL     1      45.306   8.271  11.991  0.00  0.00    +0.000 A 
ATOM      7  N   UNL     1      44.132   7.699  11.616  0.00  0.00    +0.000 NA
ATOM      8  C   UNL     1      44.144   6.342  11.516  0.00  0.00    +0.000 A 
BRANCH   6   9
ATOM      9  C   UNL     1      45.360   9.766  12.062  0.00  0.00    +0.000 C 
ATOM     10  N   UNL     1      44.151  10.407  12.147  0.00  0.00    +0.000 N 
ATOM     11  O   UNL     1      46.409  10.393  12.033  0.00  0.00    +0.000 OA
ATOM     12  H   UNL     1      43.294   9.870  12.126  0.00  0.00    +0.000 HD
ATOM     13  H   UNL     1      44.127  11.416  12.141  0.00  0.00    +0.000 HD
ENDBRANCH   6   9
ENDBRANCH   1   3
BRANCH   1  15
ATOM     14  C   UNL     1      43.558   2.312  10.931  0.00  0.00    +0.000 C 
ATOM     15  C   UNL     1      44.299   3.578  10.485  0.00  0.00    +0.000 C 
BRANCH  15  16
ATOM     16  C   UNL     1      45.199   3.254   9.294  0.00  0.00    +0.000 A 
ATOM     17  C   UNL     1      45.649   4.262   8.423  0.00  0.00    +0.000 A 
ATOM     18  C   UNL     1      46.431   3.946   7.310  0.00  0.00    +0.000 A 
ATOM     19  C   UNL     1      46.769   2.618   7.043  0.00  0.00    +0.000 A 
ATOM     20 CL   UNL     1      47.705   2.294   5.628  0.00  0.00    +0.000 Cl
ATOM     21  C   UNL     1      46.336   1.605   7.906  0.00  0.00    +0.000 A 
ATOM     22 CL   UNL     1      46.709  -0.061   7.640  0.00  0.00    +0.000 Cl
ATOM     23  C   UNL     1      45.560   1.925   9.026  0.00  0.00    +0.000 A 
ENDBRANCH  15  16
ENDBRANCH   1  15
TORSDOF 4
ENDMDL
MODEL 5
REMARK VINA RESULT:    -6.514      4.113      6.224
REMARK INTER + INTRA:          -8.668
REMARK INTER:                  -8.014
REMARK INTRA:                  -0.654
REMARK UNBOUND:                -0.630
REMARK  Name = 
REMARK  5 active torsions:
REMARK  status: ('A' for Active; 'I' for Inactive)
REMARK    1  A    between atoms: C_1  and  C_2
REMARK    2  A    between atoms: C_2  and  N_3
REMARK    3  A    between atoms: C_2  and  C_13
REMARK    4  A    between atoms: N_3  and  C_4
REMARK    5  A    between atoms: C_7  and  C_8
REMARK                            x       y       z     vdW  Elec       q    Type
REMARK                         _______ _______ _______ _____ _____    ______ ____
ROOT
ATOM      1  N   UNL     1      44.679   5.705  12.545  0.00  0.00    +0.000 N 
ATOM      2  H   UNL     1      44.602   4.826  13.055  0.00  0.00    +0.000 HD
ENDROOT
BRANCH   1   3
ATOM      3  C   UNL     1      45.998   6.169  12.548  0.00  0.00    +0.000 A 
ATOM      4  C   UNL     1      46.397   7.373  11.975  0.00  0.00    +0.000 A 
ATOM      5  C   UNL     1      47.706   7.837  12.120  0.00  0.00    +0.000 A 
ATOM      6  C   UNL     1      48.603   7.080  12.859  0.00  0.00    +0.000 A 
ATOM      7  N   UNL     1      48.276   5.902  13.450  0.00  0.00    +0.000 NA
ATOM      8  C   UNL     1      46.987   5.498  13.289  0.00  0.00    +0.000 A 
BRANCH   6   9
ATOM      9  C   UNL     1      49.995   7.595  13.054  0.00  0.00    +0.000 C 
ATOM     10  N   UNL     1      50.532   7.417  14.303  0.00  0.00    +0.000 N 
ATOM     11  O   UNL     1      50.624   8.156  12.168  0.00  0.00    +0.000 OA
ATOM     12  H   UNL     1      49.976   6.988  15.032  0.00  0.00    +0.000 HD
ATOM     13  H   UNL     1      51.445   7.794  14.505  0.00  0.00    +0.000 HD
ENDBRANCH   6   9
ENDBRANCH   1   3
BRANCH   1  15
ATOM     14  C   UNL     1      42.372   5.508  11.615  0.00  0.00    +0.000 C 
ATOM     15  C   UNL     1      43.865   5.687  11.318  0.00  0.00    +0.000 C 
BRANCH  15  16
ATOM     16  C   UNL     1      44.360   4.527  10.455  0.00  0.00    +0.000 A 
ATOM     17  C   UNL     1      44.018   3.196  10.752  0.00  0.00    +0.000 A 
ATOM     18  C   UNL     1      44.518   2.142   9.984  0.00  0.00    +0.000 A 
ATOM     19  C   UNL     1      45.375   2.400   8.912  0.00  0.00    +0.000 A 
ATOM     20 CL   UNL     1      45.987   1.047   8.029  0.00  0.00    +0.000 Cl
ATOM     21  C   UNL     1      45.718   3.719   8.599  0.00  0.00    +0.000 A 
ATOM     22 CL   UNL     1      46.777   4.117   7.293  0.00  0.00    +0.000 Cl
ATOM     23  C   UNL     1      45.208   4.775   9.365  0.00  0.00    +0.000 A 
ENDBRANCH  15  16
ENDBRANCH   1  15
TORSDOF 4
ENDMDL
MODEL 6
REMARK VINA RESULT:    -6.330      4.837      6.819
REMARK INTER + INTRA:          -8.440
REMARK INTER:                  -7.857
REMARK INTRA:                  -0.583
REMARK UNBOUND:                -0.630
REMARK  Name = 
REMARK  5 active torsions:
REMARK  status: ('A' for Active; 'I' for Inactive)
REMARK    1  A    between atoms: C_1  and  C_2
REMARK    2  A    between atoms: C_2  and  N_3
REMARK    3  A    between atoms: C_2  and  C_13
REMARK    4  A    between atoms: N_3  and  C_4
REMARK    5  A    between atoms: C_7  and  C_8
REMARK                            x       y       z     vdW  Elec       q    Type
REMARK                         _______ _______ _______ _____ _____    ______ ____
ROOT
ATOM      1  N   UNL     1      45.437   4.412  13.442  0.00  0.00    +0.000 N 
ATOM      2  H   UNL     1      45.632   3.462  13.126  0.00  0.00    +0.000 HD
ENDROOT
BRANCH   1   3
ATOM      3  C   UNL     1      46.580   4.998  13.995  0.00  0.00    +0.000 A 
ATOM      4  C   UNL     1      47.152   6.176  13.524  0.00  0.00    +0.000 A 
ATOM      5  C   UNL     1      48.220   6.774  14.196  0.00  0.00    +0.000 A 
ATOM      6  C   UNL     1      48.694   6.178  15.355  0.00  0.00    +0.000 A 
ATOM      7  N   UNL     1      48.176   5.034  15.873  0.00  0.00    +0.000 NA
ATOM      8  C   UNL     1      47.132   4.497  15.187  0.00  0.00    +0.000 A 
BRANCH   6   9
ATOM      9  C   UNL     1      49.809   6.840  16.104  0.00  0.00    +0.000 C 
ATOM     10  N   UNL     1      50.686   6.000  16.740  0.00  0.00    +0.000 N 
ATOM     11  O   UNL     1      49.935   8.054  16.168  0.00  0.00    +0.000 OA
ATOM     12  H   UNL     1      50.537   4.999  16.709  0.00  0.00    +0.000 HD
ATOM     13  H   UNL     1      51.423   6.394  17.305  0.00  0.00    +0.000 HD
ENDBRANCH   6   9
ENDBRANCH   1   3
BRANCH   1  15
ATOM     14  C   UNL     1      43.094   4.847  12.702  0.00  0.00    +0.000 C 
ATOM     15  C   UNL     1      44.583   5.131  12.481  0.00  0.00    +0.000 C 
BRANCH  15  16
ATOM     16  C   UNL     1      44.990   4.682  11.079  0.00  0.00    +0.000 A 
ATOM     17  C   UNL     1      45.608   5.566  10.177  0.00  0.00    +0.000 A 
ATOM     18  C   UNL     1      45.930   5.157   8.882  0.00  0.00    +0.000 A 
ATOM     19  C   UNL     1      45.632   3.859   8.462  0.00  0.00    +0.000 A 
ATOM     20 CL   UNL     1      46.022   3.431   6.834  0.00  0.00    +0.000 Cl
ATOM     21  C   UNL     1      45.025   2.965   9.349  0.00  0.00    +0.000 A 
ATOM     22 CL   UNL     1      44.620   1.345   8.901  0.00  0.00    +0.000 Cl
ATOM     23  C   UNL     1      44.711   3.375  10.651  0.00  0.00    +0.000 A 
ENDBRANCH  15  16
ENDBRANCH   1  15
TORSDOF 4
ENDMDL
MODEL 7
REMARK VINA RESULT:    -5.645      3.520      5.090
REMARK INTER + INTRA:          -7.595
REMARK INTER:                  -7.373
REMARK INTRA:                  -0.222
REMARK UNBOUND:                -0.630
REMARK  Name = 
REMARK  5 active torsions:
REMARK  status: ('A' for Active; 'I' for Inactive)
REMARK    1  A    between atoms: C_1  and  C_2
REMARK    2  A    between atoms: C_2  and  N_3
REMARK    3  A    between atoms: C_2  and  C_13
REMARK    4  A    between atoms: N_3  and  C_4
REMARK    5  A    between atoms: C_7  and  C_8
REMARK                            x       y       z     vdW  Elec       q    Type
REMARK                         _______ _______ _______ _____ _____    ______ ____
ROOT
ATOM      1  N   UNL     1      46.816   7.081  13.486  0.00  0.00    +0.000 N 
ATOM      2  H   UNL     1      46.962   6.834  14.464  0.00  0.00    +0.000 HD
ENDROOT
BRANCH   1   3
ATOM      3  C   UNL     1      46.028   6.121  12.842  0.00  0.00    +0.000 A 
ATOM      4  C   UNL     1      45.942   5.992  11.459  0.00  0.00    +0.000 A 
ATOM      5  C   UNL     1      45.235   4.936  10.880  0.00  0.00    +0.000 A 
ATOM      6  C   UNL     1      44.629   4.006  11.710  0.00  0.00    +0.000 A 
ATOM      7  N   UNL     1      44.682   4.069  13.067  0.00  0.00    +0.000 NA
ATOM      8  C   UNL     1      45.391   5.110  13.581  0.00  0.00    +0.000 A 
BRANCH   6   9
ATOM      9  C   UNL     1      43.908   2.848  11.095  0.00  0.00    +0.000 C 
ATOM     10  N   UNL     1      44.449   2.349   9.938  0.00  0.00    +0.000 N 
ATOM     11  O   UNL     1      42.890   2.371  11.574  0.00  0.00    +0.000 OA
ATOM     12  H   UNL     1      45.269   2.788   9.536  0.00  0.00    +0.000 HD
ATOM     13  H   UNL     1      43.972   1.606   9.451  0.00  0.00    +0.000 HD
ENDBRANCH   6   9
ENDBRANCH   1   3
BRANCH   1  15
ATOM     14  C   UNL     1      45.272   8.808  12.559  0.00  0.00    +0.000 C 
ATOM     15  C   UNL     1      46.566   8.523  13.329  0.00  0.00    +0.000 C 
BRANCH  15  16
ATOM     16  C   UNL     1      47.755   9.117  12.574  0.00  0.00    +0.000 A 
ATOM     17  C   UNL     1      47.791  10.476  12.219  0.00  0.00    +0.000 A 
ATOM     18  C   UNL     1      48.860  10.995  11.486  0.00  0.00    +0.000 A 
ATOM     19  C   UNL     1      49.908  10.162  11.088  0.00  0.00    +0.000 A 
ATOM     20 CL   UNL     1      51.179  10.860  10.150  0.00  0.00    +0.000 Cl
ATOM     21  C   UNL     1      49.890   8.809  11.441  0.00  0.00    +0.000 A 
ATOM     22 CL   UNL     1      51.146   7.714  10.979  0.00  0.00    +0.000 Cl
ATOM     23  C   UNL     1      48.821   8.293  12.183  0.00  0.00    +0.000 A 
ENDBRANCH  15  16
ENDBRANCH   1  15
TORSDOF 4
ENDMDL
