MODEL 1
REMARK VINA RESULT:    -8.434      0.000      0.000
REMARK INTER + INTRA:         -10.894
REMARK INTER:                 -10.407
REMARK INTRA:                  -0.488
REMARK UNBOUND:                -0.488
REMARK  Name = 
REMARK  4 active torsions:
REMARK  status: ('A' for Active; 'I' for Inactive)
REMARK    1  A    between atoms: C_2  and  C_4
REMARK    2  A    between atoms: C_7  and  N_8
REMARK    3  A    between atoms: N_8  and  C_9
REMARK    4  A    between atoms: C_9  and  C_10
REMARK                            x       y       z     vdW  Elec       q    Type
REMARK                         _______ _______ _______ _____ _____    ______ ____
ROOT
ATOM      1  N   UNL     1      43.837   4.760   9.867  0.00  0.00    +0.000 N 
ATOM      2  H   UNL     1      43.394   5.525   9.358  0.00  0.00    +0.000 HD
ENDROOT
BRANCH   1   6
ATOM      3  C   UNL     1      46.430   2.338   7.752  0.00  0.00    +0.000 A 
ATOM      4  C   UNL     1      46.415   3.708   7.506  0.00  0.00    +0.000 A 
ATOM      5  N   UNL     1      45.565   4.572   8.154  0.00  0.00    +0.000 NA
ATOM      6  C   UNL     1      44.721   4.020   9.054  0.00  0.00    +0.000 A 
ATOM      7  C   UNL     1      44.784   2.634   9.290  0.00  0.00    +0.000 A 
ATOM      8  N   UNL     1      45.609   1.761   8.660  0.00  0.00    +0.000 NA
BRANCH   3  10
ATOM      9  N   UNL     1      48.486   2.028   6.520  0.00  0.00    +0.000 N 
ATOM     10  C   UNL     1      47.365   1.427   7.035  0.00  0.00    +0.000 C 
ATOM     11  O   UNL     1      47.147   0.231   6.903  0.00  0.00    +0.000 OA
ATOM     12  H   UNL     1      49.167   1.480   6.014  0.00  0.00    +0.000 HD
ATOM     13  H   UNL     1      48.621   3.026   6.645  0.00  0.00    +0.000 HD
ENDBRANCH   3  10
ENDBRANCH   1   6
BRANCH   1  14
ATOM     14  C   UNL     1      43.938   4.940  11.321  0.00  0.00    +0.000 C 
ATOM     15  C   UNL     1      43.038   4.292  12.362  0.00  0.00    +0.000 C 
ATOM     16  C   UNL     1      42.716   5.667  11.891  0.00  0.00    +0.000 C 
BRANCH  14  17
ATOM     17  C   UNL     1      45.316   5.331  11.845  0.00  0.00    +0.000 A 
ATOM     18  C   UNL     1      46.014   6.449  11.362  0.00  0.00    +0.000 A 
ATOM     19  C   UNL     1      47.111   6.953  12.057  0.00  0.00    +0.000 A 
ATOM     20  C   UNL     1      47.516   6.285  13.197  0.00  0.00    +0.000 A 
ATOM     21 CL   UNL     1      48.731   6.938  14.214  0.00  0.00    +0.000 Cl
ATOM     22  N   UNL     1      46.962   5.140  13.641  0.00  0.00    +0.000 NA
ATOM     23  C   UNL     1      45.884   4.693  12.952  0.00  0.00    +0.000 A 
ENDBRANCH  14  17
ENDBRANCH   1  14
TORSDOF 4
ENDMDL
MODEL 2
REMARK VINA RESULT:    -6.968      3.584      6.410
REMARK INTER + INTRA:          -9.085
REMARK INTER:                  -8.749
REMARK INTRA:                  -0.337
REMARK UNBOUND:                -0.488
REMARK  Name = 
REMARK  4 active torsions:
REMARK  status: ('A' for Active; 'I' for Inactive)
REMARK    1  A    between atoms: C_2  and  C_4
REMARK    2  A    between atoms: C_7  and  N_8
REMARK    3  A    between atoms: N_8  and  C_9
REMARK    4  A    between atoms: C_9  and  C_10
REMARK                            x       y       z     vdW  Elec       q    Type
REMARK                         _______ _______ _______ _____ _____    ______ ____
ROOT
ATOM      1  N   UNL     1      45.363   3.680  12.203  0.00  0.00    +0.000 N 
ATOM      2  H   UNL     1      45.648   2.704  12.280  0.00  0.00    +0.000 HD
ENDROOT
BRANCH   1   6
ATOM      3  C   UNL     1      47.942   6.082  14.356  0.00  0.00    +0.000 A 
ATOM      4  C   UNL     1      47.447   6.528  13.134  0.00  0.00    +0.000 A 
ATOM      5  N   UNL     1      46.604   5.775  12.353  0.00  0.00    +0.000 NA
ATOM      6  C   UNL     1      46.275   4.554  12.829  0.00  0.00    +0.000 A 
ATOM      7  C   UNL     1      46.780   4.149  14.080  0.00  0.00    +0.000 A 
ATOM      8  N   UNL     1      47.616   4.871  14.865  0.00  0.00    +0.000 NA
BRANCH   3  10
ATOM      9  N   UNL     1      48.307   8.089  15.651  0.00  0.00    +0.000 N 
ATOM     10  C   UNL     1      48.854   6.922  15.181  0.00  0.00    +0.000 C 
ATOM     11  O   UNL     1      50.010   6.603  15.417  0.00  0.00    +0.000 OA
ATOM     12  H   UNL     1      48.861   8.717  16.215  0.00  0.00    +0.000 HD
ATOM     13  H   UNL     1      47.345   8.319  15.423  0.00  0.00    +0.000 HD
ENDBRANCH   3  10
ENDBRANCH   1   6
BRANCH   1  14
ATOM     14  C   UNL     1      44.498   3.999  11.058  0.00  0.00    +0.000 C 
ATOM     15  C   UNL     1      43.501   5.145  10.988  0.00  0.00    +0.000 C 
ATOM     16  C   UNL     1      43.017   3.796  11.389  0.00  0.00    +0.000 C 
BRANCH  14  17
ATOM     17  C   UNL     1      45.003   3.527   9.698  0.00  0.00    +0.000 A 
ATOM     18  C   UNL     1      45.468   4.418   8.719  0.00  0.00    +0.000 A 
ATOM     19  C   UNL     1      46.196   3.952   7.626  0.00  0.00    +0.000 A 
ATOM     20  C   UNL     1      46.393   2.588   7.515  0.00  0.00    +0.000 A 
ATOM     21 CL   UNL     1      47.432   1.946   6.313  0.00  0.00    +0.000 Cl
ATOM     22  N   UNL     1      45.869   1.677   8.357  0.00  0.00    +0.000 NA
ATOM     23  C   UNL     1      45.186   2.169   9.419  0.00  0.00    +0.000 A 
ENDBRANCH  14  17
ENDBRANCH   1  14
TORSDOF 4
ENDMDL
MODEL 3
REMARK VINA RESULT:    -6.372      3.776      6.528
REMARK INTER + INTRA:          -8.349
REMARK INTER:                  -8.817
REMARK INTRA:                   0.468
REMARK UNBOUND:                -0.488
REMARK  Name = 
REMARK  4 active torsions:
REMARK  status: ('A' for Active; 'I' for Inactive)
REMARK    1  A    between atoms: C_2  and  C_4
REMARK    2  A    between atoms: C_7  and  N_8
REMARK    3  A    between atoms: N_8  and  C_9
REMARK    4  A    between atoms: C_9  and  C_10
REMARK                            x       y       z     vdW  Elec       q    Type
REMARK                         _______ _______ _______ _____ _____    ______ ____
ROOT
ATOM      1  N   UNL     1      44.484   5.815  10.699  0.00  0.00    +0.000 N 
ATOM      2  H   UNL     1      43.636   6.352  10.517  0.00  0.00    +0.000 HD
ENDROOT
BRANCH   1   6
ATOM      3  C   UNL     1      46.947   8.178  13.026  0.00  0.00    +0.000 A 
ATOM      4  C   UNL     1      47.489   7.112  12.313  0.00  0.00    +0.000 A 
ATOM      5  N   UNL     1      46.729   6.271  11.537  0.00  0.00    +0.000 NA
ATOM      6  C   UNL     1      45.403   6.524  11.501  0.00  0.00    +0.000 A 
ATOM      7  C   UNL     1      44.896   7.624  12.218  0.00  0.00    +0.000 A 
ATOM      8  N   UNL     1      45.624   8.464  12.994  0.00  0.00    +0.000 NA
BRANCH   3  10
ATOM      9  N   UNL     1      47.543   9.034  15.205  0.00  0.00    +0.000 N 
ATOM     10  C   UNL     1      47.797   9.074  13.857  0.00  0.00    +0.000 C 
ATOM     11  O   UNL     1      48.654   9.802  13.377  0.00  0.00    +0.000 OA
ATOM     12  H   UNL     1      48.073   9.616  15.837  0.00  0.00    +0.000 HD
ATOM     13  H   UNL     1      46.815   8.422  15.560  0.00  0.00    +0.000 HD
ENDBRANCH   3  10
ENDBRANCH   1   6
BRANCH   1  14
ATOM     14  C   UNL     1      44.338   4.355  10.626  0.00  0.00    +0.000 C 
ATOM     15  C   UNL     1      43.237   3.537  11.281  0.00  0.00    +0.000 C 
ATOM     16  C   UNL     1      44.534   3.694  11.993  0.00  0.00    +0.000 C 
BRANCH  14  17
ATOM     17  C   UNL     1      44.970   3.689   9.408  0.00  0.00    +0.000 A 
ATOM     18  C   UNL     1      45.617   4.423   8.401  0.00  0.00    +0.000 A 
ATOM     19  C   UNL     1      46.437   3.783   7.474  0.00  0.00    +0.000 A 
ATOM     20  C   UNL     1      46.545   2.407   7.549  0.00  0.00    +0.000 A 
ATOM     21 CL   UNL     1      47.673   1.560   6.576  0.00  0.00    +0.000 Cl
ATOM     22  N   UNL     1      45.856   1.639   8.415  0.00  0.00    +0.000 NA
ATOM     23  C   UNL     1      45.086   2.299   9.314  0.00  0.00    +0.000 A 
ENDBRANCH  14  17
ENDBRANCH   1  14
TORSDOF 4
ENDMDL
MODEL 4
REMARK VINA RESULT:    -6.206      3.461      6.143
REMARK INTER + INTRA:          -8.145
REMARK INTER:                  -8.994
REMARK INTRA:                   0.849
REMARK UNBOUND:                -0.488
REMARK  Name = 
REMARK  4 active torsions:
REMARK  status: ('A' for Active; 'I' for Inactive)
REMARK    1  A    between atoms: C_2  and  C_4
REMARK    2  A    between atoms: C_7  and  N_8
REMARK    3  A    between atoms: N_8  and  C_9
REMARK    4  A    between atoms: C_9  and  C_10
REMARK                            x       y       z     vdW  Elec       q    Type
REMARK                         _______ _______ _______ _____ _____    ______ ____
ROOT
ATOM      1  N   UNL     1      45.575   5.466  11.527  0.00  0.00    +0.000 N 
ATOM      2  H   UNL     1      45.544   6.483  11.477  0.00  0.00    +0.000 HD
ENDROOT
BRANCH   1   6
ATOM      3  C   UNL     1      47.336   3.809  14.876  0.00  0.00    +0.000 A 
ATOM      4  C   UNL     1      47.215   5.192  14.776  0.00  0.00    +0.000 A 
ATOM      5  N   UNL     1      46.661   5.815  13.684  0.00  0.00    +0.000 NA
ATOM      6  C   UNL     1      46.237   5.009  12.686  0.00  0.00    +0.000 A 
ATOM      7  C   UNL     1      46.358   3.614  12.834  0.00  0.00    +0.000 A 
ATOM      8  N   UNL     1      46.905   2.977  13.899  0.00  0.00    +0.000 NA
BRANCH   3  10
ATOM      9  N   UNL     1      47.434   3.580  17.280  0.00  0.00    +0.000 N 
ATOM     10  C   UNL     1      47.940   3.163  16.074  0.00  0.00    +0.000 C 
ATOM     11  O   UNL     1      48.830   2.328  15.994  0.00  0.00    +0.000 OA
ATOM     12  H   UNL     1      47.794   3.194  18.140  0.00  0.00    +0.000 HD
ATOM     13  H   UNL     1      46.703   4.283  17.299  0.00  0.00    +0.000 HD
ENDBRANCH   3  10
ENDBRANCH   1   6
BRANCH   1  14
ATOM     14  C   UNL     1      44.510   4.761  10.800  0.00  0.00    +0.000 C 
ATOM     15  C   UNL     1      43.047   5.171  10.747  0.00  0.00    +0.000 C 
ATOM     16  C   UNL     1      43.473   4.158  11.751  0.00  0.00    +0.000 C 
BRANCH  14  17
ATOM     17  C   UNL     1      44.967   3.924   9.609  0.00  0.00    +0.000 A 
ATOM     18  C   UNL     1      45.634   4.484   8.508  0.00  0.00    +0.000 A 
ATOM     19  C   UNL     1      46.301   3.670   7.595  0.00  0.00    +0.000 A 
ATOM     20  C   UNL     1      46.236   2.302   7.781  0.00  0.00    +0.000 A 
ATOM     21 CL   UNL     1      47.177   1.239   6.822  0.00  0.00    +0.000 Cl
ATOM     22  N   UNL     1      45.513   1.703   8.748  0.00  0.00    +0.000 NA
ATOM     23  C   UNL     1      44.896   2.527   9.629  0.00  0.00    +0.000 A 
ENDBRANCH  14  17
ENDBRANCH   1  14
TORSDOF 4
ENDMDL
MODEL 5
REMARK VINA RESULT:    -6.001      3.984      6.769
REMARK INTER + INTRA:          -7.892
REMARK INTER:                  -7.585
REMARK INTRA:                  -0.306
REMARK UNBOUND:                -0.488
REMARK  Name = 
REMARK  4 active torsions:
REMARK  status: ('A' for Active; 'I' for Inactive)
REMARK    1  A    between atoms: C_2  and  C_4
REMARK    2  A    between atoms: C_7  and  N_8
REMARK    3  A    between atoms: N_8  and  C_9
REMARK    4  A    between atoms: C_9  and  C_10
REMARK                            x       y       z     vdW  Elec       q    Type
REMARK                         _______ _______ _______ _____ _____    ______ ____
ROOT
ATOM      1  N   UNL     1      45.931   5.568  13.930  0.00  0.00    +0.000 N 
ATOM      2  H   UNL     1      44.981   5.269  14.148  0.00  0.00    +0.000 HD
ENDROOT
BRANCH   1   6
ATOM      3  C   UNL     1      48.573   3.388  16.239  0.00  0.00    +0.000 A 
ATOM      4  C   UNL     1      48.368   4.737  16.517  0.00  0.00    +0.000 A 
ATOM      5  N   UNL     1      47.522   5.530  15.779  0.00  0.00    +0.000 NA
ATOM      6  C   UNL     1      46.891   4.932  14.744  0.00  0.00    +0.000 A 
ATOM      7  C   UNL     1      47.109   3.561  14.509  0.00  0.00    +0.000 A 
ATOM      8  N   UNL     1      47.942   2.761  15.219  0.00  0.00    +0.000 NA
BRANCH   3  10
ATOM      9  N   UNL     1      49.539   2.871  18.393  0.00  0.00    +0.000 N 
ATOM     10  C   UNL     1      49.495   2.555  17.058  0.00  0.00    +0.000 C 
ATOM     11  O   UNL     1      50.174   1.658  16.578  0.00  0.00    +0.000 OA
ATOM     12  H   UNL     1      50.143   2.356  19.015  0.00  0.00    +0.000 HD
ATOM     13  H   UNL     1      48.965   3.629  18.746  0.00  0.00    +0.000 HD
ENDBRANCH   3  10
ENDBRANCH   1   6
BRANCH   1  14
ATOM     14  C   UNL     1      46.142   6.065  12.563  0.00  0.00    +0.000 C 
ATOM     15  C   UNL     1      47.302   6.934  12.102  0.00  0.00    +0.000 C 
ATOM     16  C   UNL     1      46.023   7.590  12.487  0.00  0.00    +0.000 C 
BRANCH  14  17
ATOM     17  C   UNL     1      45.503   5.237  11.454  0.00  0.00    +0.000 A 
ATOM     18  C   UNL     1      45.735   5.496  10.093  0.00  0.00    +0.000 A 
ATOM     19  C   UNL     1      45.392   4.555   9.125  0.00  0.00    +0.000 A 
ATOM     20  C   UNL     1      44.773   3.392   9.544  0.00  0.00    +0.000 A 
ATOM     21 CL   UNL     1      44.490   2.104   8.450  0.00  0.00    +0.000 Cl
ATOM     22  N   UNL     1      44.417   3.142  10.819  0.00  0.00    +0.000 NA
ATOM     23  C   UNL     1      44.786   4.070  11.735  0.00  0.00    +0.000 A 
ENDBRANCH  14  17
ENDBRANCH   1  14
TORSDOF 4
ENDMDL
MODEL 6
REMARK VINA RESULT:    -5.640      4.473      6.655
REMARK INTER + INTRA:          -7.446
REMARK INTER:                  -7.213
REMARK INTRA:                  -0.233
REMARK UNBOUND:                -0.488
REMARK  Name = 
REMARK  4 active torsions:
REMARK  status: ('A' for Active; 'I' for Inactive)
REMARK    1  A    between atoms: C_2  and  C_4
REMARK    2  A    between atoms: C_7  and  N_8
REMARK    3  A    between atoms: N_8  and  C_9
REMARK    4  A    between atoms: C_9  and  C_10
REMARK                            x       y       z     vdW  Elec       q    Type
REMARK                         _______ _______ _______ _____ _____    ______ ____
ROOT
ATOM      1  N   UNL     1      48.005   5.744  15.769  0.00  0.00    +0.000 N 
ATOM      2  H   UNL     1      48.767   6.396  15.588  0.00  0.00    +0.000 HD
ENDROOT
BRANCH   1   6
ATOM      3  C   UNL     1      45.929   5.076  12.261  0.00  0.00    +0.000 A 
ATOM      4  C   UNL     1      45.950   4.092  13.245  0.00  0.00    +0.000 A 
ATOM      5  N   UNL     1      46.636   4.234  14.427  0.00  0.00    +0.000 NA
ATOM      6  C   UNL     1      47.312   5.393  14.592  0.00  0.00    +0.000 A 
ATOM      7  C   UNL     1      47.248   6.372  13.582  0.00  0.00    +0.000 A 
ATOM      8  N   UNL     1      46.582   6.253  12.407  0.00  0.00    +0.000 NA
BRANCH   3  10
ATOM      9  N   UNL     1      45.450   5.811  10.009  0.00  0.00    +0.000 N 
ATOM     10  C   UNL     1      45.174   4.893  10.991  0.00  0.00    +0.000 C 
ATOM     11  O   UNL     1      44.357   3.997  10.834  0.00  0.00    +0.000 OA
ATOM     12  H   UNL     1      44.976   5.759   9.120  0.00  0.00    +0.000 HD
ATOM     13  H   UNL     1      46.129   6.544  10.187  0.00  0.00    +0.000 HD
ENDBRANCH   3  10
ENDBRANCH   1   6
BRANCH   1  14
ATOM     14  C   UNL     1      48.153   4.912  16.972  0.00  0.00    +0.000 C 
ATOM     15  C   UNL     1      47.033   4.509  17.918  0.00  0.00    +0.000 C 
ATOM     16  C   UNL     1      47.857   5.702  18.250  0.00  0.00    +0.000 C 
BRANCH  14  17
ATOM     17  C   UNL     1      49.344   3.961  16.973  0.00  0.00    +0.000 A 
ATOM     18  C   UNL     1      50.581   4.305  17.543  0.00  0.00    +0.000 A 
ATOM     19  C   UNL     1      51.539   3.327  17.800  0.00  0.00    +0.000 A 
ATOM     20  C   UNL     1      51.251   2.027  17.429  0.00  0.00    +0.000 A 
ATOM     21 CL   UNL     1      52.285   0.736  17.876  0.00  0.00    +0.000 Cl
ATOM     22  N   UNL     1      50.135   1.657  16.772  0.00  0.00    +0.000 NA
ATOM     23  C   UNL     1      49.218   2.631  16.557  0.00  0.00    +0.000 A 
ENDBRANCH  14  17
ENDBRANCH   1  14
TORSDOF 4
ENDMDL
MODEL 7
REMARK VINA RESULT:    -5.435      3.055      5.155
REMARK INTER + INTRA:          -7.194
REMARK INTER:                  -7.554
REMARK INTRA:                   0.361
REMARK UNBOUND:                -0.488
REMARK  Name = 
REMARK  4 active torsions:
REMARK  status: ('A' for Active; 'I' for Inactive)
REMARK    1  A    between atoms: C_2  and  C_4
REMARK    2  A    between atoms: C_7  and  N_8
REMARK    3  A    between atoms: N_8  and  C_9
REMARK    4  A    between atoms: C_9  and  C_10
REMARK                            x       y       z     vdW  Elec       q    Type
REMARK                         _______ _______ _______ _____ _____    ______ ____
ROOT
ATOM      1  N   UNL     1      46.616   7.656  13.460  0.00  0.00    +0.000 N 
ATOM      2  H   UNL     1      46.401   8.606  13.161  0.00  0.00    +0.000 HD
ENDROOT
BRANCH   1   6
ATOM      3  C   UNL     1      44.670   4.972  10.996  0.00  0.00    +0.000 A 
ATOM      4  C   UNL     1      44.140   5.263  12.250  0.00  0.00    +0.000 A 
ATOM      5  N   UNL     1      44.743   6.128  13.132  0.00  0.00    +0.000 NA
ATOM      6  C   UNL     1      45.902   6.689  12.723  0.00  0.00    +0.000 A 
ATOM      7  C   UNL     1      46.394   6.385  11.439  0.00  0.00    +0.000 A 
ATOM      8  N   UNL     1      45.820   5.532  10.555  0.00  0.00    +0.000 NA
BRANCH   3  10
ATOM      9  N   UNL     1      44.015   4.402   8.741  0.00  0.00    +0.000 N 
ATOM     10  C   UNL     1      43.992   4.032  10.062  0.00  0.00    +0.000 C 
ATOM     11  O   UNL     1      43.443   3.007  10.442  0.00  0.00    +0.000 OA
ATOM     12  H   UNL     1      43.573   3.821   8.044  0.00  0.00    +0.000 HD
ATOM     13  H   UNL     1      44.474   5.266   8.472  0.00  0.00    +0.000 HD
ENDBRANCH   3  10
ENDBRANCH   1   6
BRANCH   1  14
ATOM     14  C   UNL     1      47.930   7.471  14.092  0.00  0.00    +0.000 C 
ATOM     15  C   UNL     1      48.915   8.577  14.436  0.00  0.00    +0.000 C 
ATOM     16  C   UNL     1      49.074   7.850  13.148  0.00  0.00    +0.000 C 
BRANCH  14  17
ATOM     17  C   UNL     1      48.084   6.213  14.940  0.00  0.00    +0.000 A 
ATOM     18  C   UNL     1      48.646   6.237  16.226  0.00  0.00    +0.000 A 
ATOM     19  C   UNL     1      48.498   5.150  17.084  0.00  0.00    +0.000 A 
ATOM     20  C   UNL     1      47.829   4.037  16.609  0.00  0.00    +0.000 A 
ATOM     21 CL   UNL     1      47.436   2.736  17.651  0.00  0.00    +0.000 Cl
ATOM     22  N   UNL     1      47.374   3.910  15.347  0.00  0.00    +0.000 NA
ATOM     23  C   UNL     1      47.518   4.995  14.549  0.00  0.00    +0.000 A 
ENDBRANCH  14  17
ENDBRANCH   1  14
TORSDOF 4
ENDMDL
