MODEL 1
REMARK VINA RESULT:    -8.098      0.000      0.000
REMARK INTER + INTRA:         -12.065
REMARK INTER:                 -11.175
REMARK INTRA:                  -0.890
REMARK UNBOUND:                -0.890
REMARK  Name = 
REMARK  7 active torsions:
REMARK  status: ('A' for Active; 'I' for Inactive)
REMARK    1  A    between atoms: N_1  and  C_2
REMARK    2  A    between atoms: C_2  and  C_3
REMARK    3  A    between atoms: C_3  and  N_4
REMARK    4  A    between atoms: C_3  and  C_17
REMARK    5  A    between atoms: C_5  and  C_7
REMARK    6  A    between atoms: C_20  and  C_21
REMARK    7  A    between atoms: C_21  and  N_22
REMARK                            x       y       z     vdW  Elec       q    Type
REMARK                         _______ _______ _______ _____ _____    ______ ____
ROOT
ATOM      1  C   UNL     1      47.506   6.932  12.876  0.00  0.00    +0.000 C 
ENDROOT
BRANCH   1   2
ATOM      2  C   UNL     1      46.536   5.982  12.186  0.00  0.00    +0.000 A 
ATOM      3  C   UNL     1      46.066   6.308  10.901  0.00  0.00    +0.000 A 
ATOM      4  C   UNL     1      45.282   5.411  10.169  0.00  0.00    +0.000 A 
ATOM      5  C   UNL     1      44.918   4.174  10.714  0.00  0.00    +0.000 A 
ATOM      6  C   UNL     1      45.330   3.870  12.018  0.00  0.00    +0.000 A 
ATOM      7  C   UNL     1      46.120   4.768  12.750  0.00  0.00    +0.000 A 
BRANCH   5   8
ATOM      8  C   UNL     1      44.125   3.177   9.897  0.00  0.00    +0.000 C 
BRANCH   8   9
ATOM      9  N   UNL     1      44.953   2.014   9.595  0.00  0.00    +0.000 N 
ATOM     10  C   UNL     1      45.686   2.133   8.401  0.00  0.00    +0.000 A 
ATOM     11  C   UNL     1      46.504   1.072   8.013  0.00  0.00    +0.000 A 
ATOM     12  C   UNL     1      47.265   1.179   6.847  0.00  0.00    +0.000 A 
ATOM     13  C   UNL     1      47.191   2.340   6.095  0.00  0.00    +0.000 A 
ATOM     14  C   UNL     1      46.366   3.351   6.550  0.00  0.00    +0.000 A 
ATOM     15  N   UNL     1      45.625   3.271   7.679  0.00  0.00    +0.000 NA
ATOM     16  H   UNL     1      44.411   1.156   9.581  0.00  0.00    +0.000 HD
ENDBRANCH   8   9
ENDBRANCH   5   8
ENDBRANCH   1   2
BRANCH   1  17
ATOM     17  N   UNL     1      48.130   6.288  14.025  0.00  0.00    +0.000 N 
ATOM     18  C   UNL     1      48.498   7.024  15.127  0.00  0.00    +0.000 C 
ATOM     19  O   UNL     1      48.300   8.234  15.192  0.00  0.00    +0.000 OA
ATOM     20  H   UNL     1      48.477   5.342  13.905  0.00  0.00    +0.000 HD
BRANCH  18  21
ATOM     21  C   UNL     1      49.079   6.297  16.259  0.00  0.00    +0.000 A 
ATOM     22  C   UNL     1      50.246   6.770  16.845  0.00  0.00    +0.000 A 
ATOM     23  S   UNL     1      50.775   5.840  18.172  0.00  0.00    +0.000 S 
ATOM     24  C   UNL     1      49.491   4.741  17.978  0.00  0.00    +0.000 A 
ATOM     25  N   UNL     1      49.369   3.663  18.797  0.00  0.00    +0.000 NA
ATOM     26  C   UNL     1      48.374   2.890  18.512  0.00  0.00    +0.000 A 
ATOM     27  N   UNL     1      47.490   3.101  17.485  0.00  0.00    +0.000 N 
ATOM     28  C   UNL     1      47.554   4.195  16.653  0.00  0.00    +0.000 A 
ATOM     29  O   UNL     1      46.723   4.382  15.770  0.00  0.00    +0.000 OA
ATOM     30  C   UNL     1      48.663   5.087  16.925  0.00  0.00    +0.000 A 
ATOM     31  H   UNL     1      46.732   2.456  17.322  0.00  0.00    +0.000 HD
ENDBRANCH  18  21
ENDBRANCH   1  17
BRANCH   1  32
ATOM     32  C   UNL     1      48.573   7.590  11.947  0.00  0.00    +0.000 C 
BRANCH  32  33
ATOM     33  N   UNL     1      48.738   9.037  12.146  0.00  0.00    +0.000 NA
ATOM     34  H   UNL     1      48.188   9.538  11.451  0.00  0.00    +0.000 HD
ATOM     35  H   UNL     1      49.713   9.286  11.969  0.00  0.00    +0.000 HD
ENDBRANCH  32  33
ENDBRANCH   1  32
TORSDOF 7
ENDMDL
MODEL 2
REMARK VINA RESULT:    -8.069      2.641      3.902
REMARK INTER + INTRA:         -12.025
REMARK INTER:                 -11.069
REMARK INTRA:                  -0.957
REMARK UNBOUND:                -0.890
REMARK  Name = 
REMARK  7 active torsions:
REMARK  status: ('A' for Active; 'I' for Inactive)
REMARK    1  A    between atoms: N_1  and  C_2
REMARK    2  A    between atoms: C_2  and  C_3
REMARK    3  A    between atoms: C_3  and  N_4
REMARK    4  A    between atoms: C_3  and  C_17
REMARK    5  A    between atoms: C_5  and  C_7
REMARK    6  A    between atoms: C_20  and  C_21
REMARK    7  A    between atoms: C_21  and  N_22
REMARK                            x       y       z     vdW  Elec       q    Type
REMARK                         _______ _______ _______ _____ _____    ______ ____
ROOT
ATOM      1  C   UNL     1      47.462   4.967  14.458  0.00  0.00    +0.000 C 
ENDROOT
BRANCH   1   2
ATOM      2  C   UNL     1      46.507   4.745  13.291  0.00  0.00    +0.000 A 
ATOM      3  C   UNL     1      46.312   5.787  12.368  0.00  0.00    +0.000 A 
ATOM      4  C   UNL     1      45.553   5.593  11.210  0.00  0.00    +0.000 A 
ATOM      5  C   UNL     1      44.941   4.360  10.957  0.00  0.00    +0.000 A 
ATOM      6  C   UNL     1      45.080   3.337  11.904  0.00  0.00    +0.000 A 
ATOM      7  C   UNL     1      45.844   3.531  13.064  0.00  0.00    +0.000 A 
BRANCH   5   8
ATOM      8  C   UNL     1      44.175   4.130   9.672  0.00  0.00    +0.000 C 
BRANCH   8   9
ATOM      9  N   UNL     1      45.009   4.483   8.528  0.00  0.00    +0.000 N 
ATOM     10  C   UNL     1      45.762   3.410   8.020  0.00  0.00    +0.000 A 
ATOM     11  C   UNL     1      46.602   3.641   6.932  0.00  0.00    +0.000 A 
ATOM     12  C   UNL     1      47.337   2.585   6.391  0.00  0.00    +0.000 A 
ATOM     13  C   UNL     1      47.218   1.322   6.949  0.00  0.00    +0.000 A 
ATOM     14  C   UNL     1      46.358   1.170   8.020  0.00  0.00    +0.000 A 
ATOM     15  N   UNL     1      45.632   2.178   8.556  0.00  0.00    +0.000 NA
ATOM     16  H   UNL     1      45.622   5.266   8.733  0.00  0.00    +0.000 HD
ENDBRANCH   8   9
ENDBRANCH   5   8
ENDBRANCH   1   2
BRANCH   1  17
ATOM     17  N   UNL     1      47.606   6.388  14.744  0.00  0.00    +0.000 N 
ATOM     18  C   UNL     1      48.728   6.866  15.380  0.00  0.00    +0.000 C 
ATOM     19  O   UNL     1      49.649   6.123  15.710  0.00  0.00    +0.000 OA
ATOM     20  H   UNL     1      46.780   6.973  14.661  0.00  0.00    +0.000 HD
BRANCH  18  21
ATOM     21  C   UNL     1      48.817   8.313  15.592  0.00  0.00    +0.000 A 
ATOM     22  C   UNL     1      49.258   9.127  14.555  0.00  0.00    +0.000 A 
ATOM     23  S   UNL     1      49.270  10.786  14.943  0.00  0.00    +0.000 S 
ATOM     24  C   UNL     1      48.736  10.472  16.527  0.00  0.00    +0.000 A 
ATOM     25  N   UNL     1      48.560  11.486  17.415  0.00  0.00    +0.000 NA
ATOM     26  C   UNL     1      48.192  11.103  18.592  0.00  0.00    +0.000 A 
ATOM     27  N   UNL     1      47.981   9.799  18.959  0.00  0.00    +0.000 N 
ATOM     28  C   UNL     1      48.114   8.744  18.085  0.00  0.00    +0.000 A 
ATOM     29  O   UNL     1      47.874   7.590  18.428  0.00  0.00    +0.000 OA
ATOM     30  C   UNL     1      48.537   9.122  16.752  0.00  0.00    +0.000 A 
ATOM     31  H   UNL     1      47.691   9.571  19.898  0.00  0.00    +0.000 HD
ENDBRANCH  18  21
ENDBRANCH   1  17
BRANCH   1  32
ATOM     32  C   UNL     1      47.134   4.160  15.752  0.00  0.00    +0.000 C 
BRANCH  32  33
ATOM     33  N   UNL     1      48.233   3.305  16.226  0.00  0.00    +0.000 NA
ATOM     34  H   UNL     1      48.905   3.171  15.473  0.00  0.00    +0.000 HD
ATOM     35  H   UNL     1      47.861   2.378  16.442  0.00  0.00    +0.000 HD
ENDBRANCH  32  33
ENDBRANCH   1  32
TORSDOF 7
ENDMDL
MODEL 3
REMARK VINA RESULT:    -7.905      1.513      2.180
REMARK INTER + INTRA:         -11.799
REMARK INTER:                 -10.976
REMARK INTRA:                  -0.822
REMARK UNBOUND:                -0.890
REMARK  Name = 
REMARK  7 active torsions:
REMARK  status: ('A' for Active; 'I' for Inactive)
REMARK    1  A    between atoms: N_1  and  C_2
REMARK    2  A    between atoms: C_2  and  C_3
REMARK    3  A    between atoms: C_3  and  N_4
REMARK    4  A    between atoms: C_3  and  C_17
REMARK    5  A    between atoms: C_5  and  C_7
REMARK    6  A    between atoms: C_20  and  C_21
REMARK    7  A    between atoms: C_21  and  N_22
REMARK                            x       y       z     vdW  Elec       q    Type
REMARK                         _______ _______ _______ _____ _____    ______ ____
ROOT
ATOM      1  C   UNL     1      47.483   6.773  13.422  0.00  0.00    +0.000 C 
ENDROOT
BRANCH   1   2
ATOM      2  C   UNL     1      46.529   5.917  12.599  0.00  0.00    +0.000 A 
ATOM      3  C   UNL     1      46.103   6.391  11.345  0.00  0.00    +0.000 A 
ATOM      4  C   UNL     1      45.336   5.590  10.493  0.00  0.00    +0.000 A 
ATOM      5  C   UNL     1      44.946   4.304  10.883  0.00  0.00    +0.000 A 
ATOM      6  C   UNL     1      45.315   3.850  12.156  0.00  0.00    +0.000 A 
ATOM      7  C   UNL     1      46.086   4.651  13.009  0.00  0.00    +0.000 A 
BRANCH   5   8
ATOM      8  C   UNL     1      44.173   3.413   9.933  0.00  0.00    +0.000 C 
BRANCH   8   9
ATOM      9  N   UNL     1      44.939   2.203   9.655  0.00  0.00    +0.000 N 
ATOM     10  C   UNL     1      45.681   2.262   8.462  0.00  0.00    +0.000 A 
ATOM     11  C   UNL     1      46.443   1.153   8.095  0.00  0.00    +0.000 A 
ATOM     12  C   UNL     1      47.211   1.199   6.931  0.00  0.00    +0.000 A 
ATOM     13  C   UNL     1      47.202   2.350   6.159  0.00  0.00    +0.000 A 
ATOM     14  C   UNL     1      46.430   3.410   6.593  0.00  0.00    +0.000 A 
ATOM     15  N   UNL     1      45.683   3.389   7.720  0.00  0.00    +0.000 NA
ATOM     16  H   UNL     1      44.352   1.375   9.653  0.00  0.00    +0.000 HD
ENDBRANCH   8   9
ENDBRANCH   5   8
ENDBRANCH   1   2
BRANCH   1  17
ATOM     17  N   UNL     1      48.068   5.996  14.506  0.00  0.00    +0.000 N 
ATOM     18  C   UNL     1      48.508   6.614  15.654  0.00  0.00    +0.000 C 
ATOM     19  O   UNL     1      48.407   7.828  15.814  0.00  0.00    +0.000 OA
ATOM     20  H   UNL     1      48.338   5.037  14.309  0.00  0.00    +0.000 HD
BRANCH  18  21
ATOM     21  C   UNL     1      49.044   5.758  16.717  0.00  0.00    +0.000 A 
ATOM     22  C   UNL     1      48.169   5.011  17.495  0.00  0.00    +0.000 A 
ATOM     23  S   UNL     1      48.945   4.039  18.660  0.00  0.00    +0.000 S 
ATOM     24  C   UNL     1      50.476   4.622  18.200  0.00  0.00    +0.000 A 
ATOM     25  N   UNL     1      51.600   4.200  18.837  0.00  0.00    +0.000 NA
ATOM     26  C   UNL     1      52.688   4.753  18.415  0.00  0.00    +0.000 A 
ATOM     27  N   UNL     1      52.753   5.687  17.412  0.00  0.00    +0.000 N 
ATOM     28  C   UNL     1      51.646   6.118  16.718  0.00  0.00    +0.000 A 
ATOM     29  O   UNL     1      51.737   6.921  15.794  0.00  0.00    +0.000 OA
ATOM     30  C   UNL     1      50.396   5.534  17.163  0.00  0.00    +0.000 A 
ATOM     31  H   UNL     1      53.640   6.076  17.131  0.00  0.00    +0.000 HD
ENDBRANCH  18  21
ENDBRANCH   1  17
BRANCH   1  32
ATOM     32  C   UNL     1      48.581   7.523  12.607  0.00  0.00    +0.000 C 
BRANCH  32  33
ATOM     33  N   UNL     1      49.812   6.749  12.396  0.00  0.00    +0.000 NA
ATOM     34  H   UNL     1      49.997   6.673  11.398  0.00  0.00    +0.000 HD
ATOM     35  H   UNL     1      49.665   5.795  12.731  0.00  0.00    +0.000 HD
ENDBRANCH  32  33
ENDBRANCH   1  32
TORSDOF 7
ENDMDL
MODEL 4
REMARK VINA RESULT:    -7.257      3.622      8.173
REMARK INTER + INTRA:         -10.905
REMARK INTER:                  -9.656
REMARK INTRA:                  -1.249
REMARK UNBOUND:                -0.890
REMARK  Name = 
REMARK  7 active torsions:
REMARK  status: ('A' for Active; 'I' for Inactive)
REMARK    1  A    between atoms: N_1  and  C_2
REMARK    2  A    between atoms: C_2  and  C_3
REMARK    3  A    between atoms: C_3  and  N_4
REMARK    4  A    between atoms: C_3  and  C_17
REMARK    5  A    between atoms: C_5  and  C_7
REMARK    6  A    between atoms: C_20  and  C_21
REMARK    7  A    between atoms: C_21  and  N_22
REMARK                            x       y       z     vdW  Elec       q    Type
REMARK                         _______ _______ _______ _____ _____    ______ ____
ROOT
ATOM      1  C   UNL     1      48.400   7.669  14.390  0.00  0.00    +0.000 C 
ENDROOT
BRANCH   1   2
ATOM      2  C   UNL     1      49.011   6.685  15.380  0.00  0.00    +0.000 A 
ATOM      3  C   UNL     1      50.342   6.877  15.793  0.00  0.00    +0.000 A 
ATOM      4  C   UNL     1      50.907   6.085  16.797  0.00  0.00    +0.000 A 
ATOM      5  C   UNL     1      50.170   5.057  17.394  0.00  0.00    +0.000 A 
ATOM      6  C   UNL     1      48.865   4.819  16.942  0.00  0.00    +0.000 A 
ATOM      7  C   UNL     1      48.296   5.616  15.938  0.00  0.00    +0.000 A 
BRANCH   5   8
ATOM      8  C   UNL     1      50.760   4.243  18.526  0.00  0.00    +0.000 C 
BRANCH   8   9
ATOM      9  N   UNL     1      50.807   2.833  18.152  0.00  0.00    +0.000 N 
ATOM     10  C   UNL     1      52.102   2.361  17.878  0.00  0.00    +0.000 A 
ATOM     11  C   UNL     1      52.259   1.028  17.500  0.00  0.00    +0.000 A 
ATOM     12  C   UNL     1      53.538   0.527  17.252  0.00  0.00    +0.000 A 
ATOM     13  C   UNL     1      54.632   1.368  17.385  0.00  0.00    +0.000 A 
ATOM     14  C   UNL     1      54.396   2.673  17.772  0.00  0.00    +0.000 A 
ATOM     15  N   UNL     1      53.166   3.177  18.023  0.00  0.00    +0.000 NA
ATOM     16  H   UNL     1      50.194   2.629  17.369  0.00  0.00    +0.000 HD
ENDBRANCH   8   9
ENDBRANCH   5   8
ENDBRANCH   1   2
BRANCH   1  17
ATOM     17  N   UNL     1      47.132   7.166  13.879  0.00  0.00    +0.000 N 
ATOM     18  C   UNL     1      46.908   7.073  12.525  0.00  0.00    +0.000 C 
ATOM     19  O   UNL     1      47.766   7.388  11.705  0.00  0.00    +0.000 OA
ATOM     20  H   UNL     1      46.355   7.095  14.530  0.00  0.00    +0.000 HD
BRANCH  18  21
ATOM     21  C   UNL     1      45.623   6.516  12.091  0.00  0.00    +0.000 A 
ATOM     22  C   UNL     1      44.685   7.352  11.498  0.00  0.00    +0.000 A 
ATOM     23  S   UNL     1      43.261   6.552  11.014  0.00  0.00    +0.000 S 
ATOM     24  C   UNL     1      43.826   5.068  11.626  0.00  0.00    +0.000 A 
ATOM     25  N   UNL     1      43.059   3.949  11.554  0.00  0.00    +0.000 NA
ATOM     26  C   UNL     1      43.593   2.904  12.093  0.00  0.00    +0.000 A 
ATOM     27  N   UNL     1      44.825   2.877  12.694  0.00  0.00    +0.000 N 
ATOM     28  C   UNL     1      45.650   3.977  12.760  0.00  0.00    +0.000 A 
ATOM     29  O   UNL     1      46.767   3.914  13.264  0.00  0.00    +0.000 OA
ATOM     30  C   UNL     1      45.089   5.180  12.179  0.00  0.00    +0.000 A 
ATOM     31  H   UNL     1      45.182   2.023  13.093  0.00  0.00    +0.000 HD
ENDBRANCH  18  21
ENDBRANCH   1  17
BRANCH   1  32
ATOM     32  C   UNL     1      48.262   9.135  14.904  0.00  0.00    +0.000 C 
BRANCH  32  33
ATOM     33  N   UNL     1      47.525   9.266  16.169  0.00  0.00    +0.000 NA
ATOM     34  H   UNL     1      46.729   8.632  16.162  0.00  0.00    +0.000 HD
ATOM     35  H   UNL     1      47.137  10.209  16.229  0.00  0.00    +0.000 HD
ENDBRANCH  32  33
ENDBRANCH   1  32
TORSDOF 7
ENDMDL
MODEL 5
REMARK VINA RESULT:    -6.964      1.817      2.801
REMARK INTER + INTRA:         -10.501
REMARK INTER:                  -9.163
REMARK INTRA:                  -1.338
REMARK UNBOUND:                -0.890
REMARK  Name = 
REMARK  7 active torsions:
REMARK  status: ('A' for Active; 'I' for Inactive)
REMARK    1  A    between atoms: N_1  and  C_2
REMARK    2  A    between atoms: C_2  and  C_3
REMARK    3  A    between atoms: C_3  and  N_4
REMARK    4  A    between atoms: C_3  and  C_17
REMARK    5  A    between atoms: C_5  and  C_7
REMARK    6  A    between atoms: C_20  and  C_21
REMARK    7  A    between atoms: C_21  and  N_22
REMARK                            x       y       z     vdW  Elec       q    Type
REMARK                         _______ _______ _______ _____ _____    ______ ____
ROOT
ATOM      1  C   UNL     1      49.153   8.653  14.438  0.00  0.00    +0.000 C 
ENDROOT
BRANCH   1   2
ATOM      2  C   UNL     1      48.052   8.175  13.498  0.00  0.00    +0.000 A 
ATOM      3  C   UNL     1      48.267   7.010  12.740  0.00  0.00    +0.000 A 
ATOM      4  C   UNL     1      47.245   6.455  11.965  0.00  0.00    +0.000 A 
ATOM      5  C   UNL     1      45.987   7.066  11.901  0.00  0.00    +0.000 A 
ATOM      6  C   UNL     1      45.786   8.261  12.605  0.00  0.00    +0.000 A 
ATOM      7  C   UNL     1      46.811   8.816  13.385  0.00  0.00    +0.000 A 
BRANCH   5   8
ATOM      8  C   UNL     1      44.861   6.428  11.115  0.00  0.00    +0.000 C 
BRANCH   8   9
ATOM      9  N   UNL     1      45.355   5.978   9.818  0.00  0.00    +0.000 N 
ATOM     10  C   UNL     1      45.137   4.611   9.570  0.00  0.00    +0.000 A 
ATOM     11  C   UNL     1      45.580   4.073   8.363  0.00  0.00    +0.000 A 
ATOM     12  C   UNL     1      45.348   2.726   8.081  0.00  0.00    +0.000 A 
ATOM     13  C   UNL     1      44.681   1.945   9.012  0.00  0.00    +0.000 A 
ATOM     14  C   UNL     1      44.265   2.552  10.181  0.00  0.00    +0.000 A 
ATOM     15  N   UNL     1      44.474   3.857  10.472  0.00  0.00    +0.000 NA
ATOM     16  H   UNL     1      46.338   6.197   9.689  0.00  0.00    +0.000 HD
ENDBRANCH   8   9
ENDBRANCH   5   8
ENDBRANCH   1   2
BRANCH   1  17
ATOM     17  N   UNL     1      49.305   7.739  15.561  0.00  0.00    +0.000 N 
ATOM     18  C   UNL     1      48.726   8.020  16.777  0.00  0.00    +0.000 C 
ATOM     19  O   UNL     1      48.051   9.030  16.954  0.00  0.00    +0.000 OA
ATOM     20  H   UNL     1      50.014   7.015  15.490  0.00  0.00    +0.000 HD
BRANCH  18  21
ATOM     21  C   UNL     1      48.888   7.029  17.846  0.00  0.00    +0.000 A 
ATOM     22  C   UNL     1      49.370   7.435  19.083  0.00  0.00    +0.000 A 
ATOM     23  S   UNL     1      49.465   6.178  20.230  0.00  0.00    +0.000 S 
ATOM     24  C   UNL     1      48.914   5.035  19.097  0.00  0.00    +0.000 A 
ATOM     25  N   UNL     1      48.788   3.725  19.437  0.00  0.00    +0.000 NA
ATOM     26  C   UNL     1      48.400   2.961  18.470  0.00  0.00    +0.000 A 
ATOM     27  N   UNL     1      48.123   3.390  17.198  0.00  0.00    +0.000 N 
ATOM     28  C   UNL     1      48.204   4.711  16.818  0.00  0.00    +0.000 A 
ATOM     29  O   UNL     1      47.907   5.074  15.684  0.00  0.00    +0.000 OA
ATOM     30  C   UNL     1      48.648   5.607  17.866  0.00  0.00    +0.000 A 
ATOM     31  H   UNL     1      47.821   2.737  16.491  0.00  0.00    +0.000 HD
ENDBRANCH  18  21
ENDBRANCH   1  17
BRANCH   1  32
ATOM     32  C   UNL     1      50.527   8.951  13.761  0.00  0.00    +0.000 C 
BRANCH  32  33
ATOM     33  N   UNL     1      51.545   7.914  13.978  0.00  0.00    +0.000 NA
ATOM     34  H   UNL     1      51.087   7.031  14.194  0.00  0.00    +0.000 HD
ATOM     35  H   UNL     1      52.096   8.158  14.803  0.00  0.00    +0.000 HD
ENDBRANCH  32  33
ENDBRANCH   1  32
TORSDOF 7
ENDMDL
MODEL 6
REMARK VINA RESULT:    -6.921      2.821      4.116
REMARK INTER + INTRA:         -10.441
REMARK INTER:                  -9.022
REMARK INTRA:                  -1.418
REMARK UNBOUND:                -0.890
REMARK  Name = 
REMARK  7 active torsions:
REMARK  status: ('A' for Active; 'I' for Inactive)
REMARK    1  A    between atoms: N_1  and  C_2
REMARK    2  A    between atoms: C_2  and  C_3
REMARK    3  A    between atoms: C_3  and  N_4
REMARK    4  A    between atoms: C_3  and  C_17
REMARK    5  A    between atoms: C_5  and  C_7
REMARK    6  A    between atoms: C_20  and  C_21
REMARK    7  A    between atoms: C_21  and  N_22
REMARK                            x       y       z     vdW  Elec       q    Type
REMARK                         _______ _______ _______ _____ _____    ______ ____
ROOT
ATOM      1  C   UNL     1      48.007   5.001  15.955  0.00  0.00    +0.000 C 
ENDROOT
BRANCH   1   2
ATOM      2  C   UNL     1      47.431   5.326  14.582  0.00  0.00    +0.000 A 
ATOM      3  C   UNL     1      46.491   4.446  14.016  0.00  0.00    +0.000 A 
ATOM      4  C   UNL     1      45.834   4.762  12.823  0.00  0.00    +0.000 A 
ATOM      5  C   UNL     1      46.121   5.952  12.145  0.00  0.00    +0.000 A 
ATOM      6  C   UNL     1      47.102   6.803  12.671  0.00  0.00    +0.000 A 
ATOM      7  C   UNL     1      47.759   6.487  13.869  0.00  0.00    +0.000 A 
BRANCH   5   8
ATOM      8  C   UNL     1      45.362   6.325  10.889  0.00  0.00    +0.000 C 
BRANCH   8   9
ATOM      9  N   UNL     1      44.586   5.181  10.422  0.00  0.00    +0.000 N 
ATOM     10  C   UNL     1      45.091   4.594   9.248  0.00  0.00    +0.000 A 
ATOM     11  C   UNL     1      44.419   3.497   8.709  0.00  0.00    +0.000 A 
ATOM     12  C   UNL     1      44.918   2.879   7.561  0.00  0.00    +0.000 A 
ATOM     13  C   UNL     1      46.075   3.369   6.977  0.00  0.00    +0.000 A 
ATOM     14  C   UNL     1      46.690   4.452   7.576  0.00  0.00    +0.000 A 
ATOM     15  N   UNL     1      46.227   5.062   8.690  0.00  0.00    +0.000 NA
ATOM     16  H   UNL     1      43.606   5.413  10.295  0.00  0.00    +0.000 HD
ENDBRANCH   8   9
ENDBRANCH   5   8
ENDBRANCH   1   2
BRANCH   1  17
ATOM     17  N   UNL     1      48.441   6.215  16.633  0.00  0.00    +0.000 N 
ATOM     18  C   UNL     1      49.770   6.420  16.923  0.00  0.00    +0.000 C 
ATOM     19  O   UNL     1      50.633   5.606  16.608  0.00  0.00    +0.000 OA
ATOM     20  H   UNL     1      47.729   6.792  17.072  0.00  0.00    +0.000 HD
BRANCH  18  21
ATOM     21  C   UNL     1      50.131   7.687  17.567  0.00  0.00    +0.000 A 
ATOM     22  C   UNL     1      51.087   8.502  16.975  0.00  0.00    +0.000 A 
ATOM     23  S   UNL     1      51.370   9.954  17.821  0.00  0.00    +0.000 S 
ATOM     24  C   UNL     1      50.261   9.521  19.037  0.00  0.00    +0.000 A 
ATOM     25  N   UNL     1      50.042  10.338  20.101  0.00  0.00    +0.000 NA
ATOM     26  C   UNL     1      49.208   9.868  20.968  0.00  0.00    +0.000 A 
ATOM     27  N   UNL     1      48.571   8.659  20.863  0.00  0.00    +0.000 N 
ATOM     28  C   UNL     1      48.736   7.815  19.788  0.00  0.00    +0.000 A 
ATOM     29  O   UNL     1      48.118   6.758  19.698  0.00  0.00    +0.000 OA
ATOM     30  C   UNL     1      49.674   8.293  18.793  0.00  0.00    +0.000 A 
ATOM     31  H   UNL     1      47.927   8.355  21.578  0.00  0.00    +0.000 HD
ENDBRANCH  18  21
ENDBRANCH   1  17
BRANCH   1  32
ATOM     32  C   UNL     1      47.093   4.134  16.876  0.00  0.00    +0.000 C 
BRANCH  32  33
ATOM     33  N   UNL     1      46.687   4.799  18.123  0.00  0.00    +0.000 NA
ATOM     34  H   UNL     1      47.404   5.467  18.398  0.00  0.00    +0.000 HD
ATOM     35  H   UNL     1      46.645   4.103  18.869  0.00  0.00    +0.000 HD
ENDBRANCH  32  33
ENDBRANCH   1  32
TORSDOF 7
ENDMDL
MODEL 7
REMARK VINA RESULT:    -6.908      1.670      2.095
REMARK INTER + INTRA:         -10.422
REMARK INTER:                  -9.844
REMARK INTRA:                  -0.578
REMARK UNBOUND:                -0.890
REMARK  Name = 
REMARK  7 active torsions:
REMARK  status: ('A' for Active; 'I' for Inactive)
REMARK    1  A    between atoms: N_1  and  C_2
REMARK    2  A    between atoms: C_2  and  C_3
REMARK    3  A    between atoms: C_3  and  N_4
REMARK    4  A    between atoms: C_3  and  C_17
REMARK    5  A    between atoms: C_5  and  C_7
REMARK    6  A    between atoms: C_20  and  C_21
REMARK    7  A    between atoms: C_21  and  N_22
REMARK                            x       y       z     vdW  Elec       q    Type
REMARK                         _______ _______ _______ _____ _____    ______ ____
ROOT
ATOM      1  C   UNL     1      47.893   7.284  13.983  0.00  0.00    +0.000 C 
ENDROOT
BRANCH   1   2
ATOM      2  C   UNL     1      46.980   6.538  13.017  0.00  0.00    +0.000 A 
ATOM      3  C   UNL     1      46.502   5.267  13.381  0.00  0.00    +0.000 A 
ATOM      4  C   UNL     1      45.559   4.597  12.595  0.00  0.00    +0.000 A 
ATOM      5  C   UNL     1      45.091   5.166  11.405  0.00  0.00    +0.000 A 
ATOM      6  C   UNL     1      45.610   6.404  11.005  0.00  0.00    +0.000 A 
ATOM      7  C   UNL     1      46.553   7.077  11.795  0.00  0.00    +0.000 A 
BRANCH   5   8
ATOM      8  C   UNL     1      44.021   4.472  10.589  0.00  0.00    +0.000 C 
BRANCH   8   9
ATOM      9  N   UNL     1      44.433   3.103  10.295  0.00  0.00    +0.000 N 
ATOM     10  C   UNL     1      45.246   2.986   9.155  0.00  0.00    +0.000 A 
ATOM     11  C   UNL     1      45.688   1.718   8.778  0.00  0.00    +0.000 A 
ATOM     12  C   UNL     1      46.520   1.580   7.666  0.00  0.00    +0.000 A 
ATOM     13  C   UNL     1      46.892   2.710   6.955  0.00  0.00    +0.000 A 
ATOM     14  C   UNL     1      46.422   3.932   7.396  0.00  0.00    +0.000 A 
ATOM     15  N   UNL     1      45.619   4.089   8.473  0.00  0.00    +0.000 NA
ATOM     16  H   UNL     1      43.637   2.477  10.216  0.00  0.00    +0.000 HD
ENDBRANCH   8   9
ENDBRANCH   5   8
ENDBRANCH   1   2
BRANCH   1  17
ATOM     17  N   UNL     1      48.303   6.417  15.079  0.00  0.00    +0.000 N 
ATOM     18  C   UNL     1      48.977   6.928  16.164  0.00  0.00    +0.000 C 
ATOM     19  O   UNL     1      49.237   8.124  16.257  0.00  0.00    +0.000 OA
ATOM     20  H   UNL     1      48.274   5.413  14.924  0.00  0.00    +0.000 HD
BRANCH  18  21
ATOM     21  C   UNL     1      49.316   5.998  17.245  0.00  0.00    +0.000 A 
ATOM     22  C   UNL     1      50.290   5.032  17.030  0.00  0.00    +0.000 A 
ATOM     23  S   UNL     1      50.600   4.055  18.392  0.00  0.00    +0.000 S 
ATOM     24  C   UNL     1      49.406   4.856  19.302  0.00  0.00    +0.000 A 
ATOM     25  N   UNL     1      49.138   4.481  20.580  0.00  0.00    +0.000 NA
ATOM     26  C   UNL     1      48.182   5.146  21.139  0.00  0.00    +0.000 A 
ATOM     27  N   UNL     1      47.474   6.152  20.535  0.00  0.00    +0.000 N 
ATOM     28  C   UNL     1      47.732   6.588  19.256  0.00  0.00    +0.000 A 
ATOM     29  O   UNL     1      47.113   7.522  18.755  0.00  0.00    +0.000 OA
ATOM     30  C   UNL     1      48.791   5.864  18.581  0.00  0.00    +0.000 A 
ATOM     31  H   UNL     1      46.739   6.633  21.033  0.00  0.00    +0.000 HD
ENDBRANCH  18  21
ENDBRANCH   1  17
BRANCH   1  32
ATOM     32  C   UNL     1      49.120   7.992  13.331  0.00  0.00    +0.000 C 
BRANCH  32  33
ATOM     33  N   UNL     1      49.107   9.457  13.449  0.00  0.00    +0.000 NA
ATOM     34  H   UNL     1      48.145   9.780  13.537  0.00  0.00    +0.000 HD
ATOM     35  H   UNL     1      49.464   9.862  12.582  0.00  0.00    +0.000 HD
ENDBRANCH  32  33
ENDBRANCH   1  32
TORSDOF 7
ENDMDL
MODEL 8
REMARK VINA RESULT:    -6.740      3.843      8.544
REMARK INTER + INTRA:         -10.191
REMARK INTER:                  -9.191
REMARK INTRA:                  -1.000
REMARK UNBOUND:                -0.890
REMARK  Name = 
REMARK  7 active torsions:
REMARK  status: ('A' for Active; 'I' for Inactive)
REMARK    1  A    between atoms: N_1  and  C_2
REMARK    2  A    between atoms: C_2  and  C_3
REMARK    3  A    between atoms: C_3  and  N_4
REMARK    4  A    between atoms: C_3  and  C_17
REMARK    5  A    between atoms: C_5  and  C_7
REMARK    6  A    between atoms: C_20  and  C_21
REMARK    7  A    between atoms: C_21  and  N_22
REMARK                            x       y       z     vdW  Elec       q    Type
REMARK                         _______ _______ _______ _____ _____    ______ ____
ROOT
ATOM      1  C   UNL     1      49.021   7.140  15.884  0.00  0.00    +0.000 C 
ENDROOT
BRANCH   1   2
ATOM      2  C   UNL     1      49.920   6.122  16.576  0.00  0.00    +0.000 A 
ATOM      3  C   UNL     1      51.313   6.319  16.549  0.00  0.00    +0.000 A 
ATOM      4  C   UNL     1      52.173   5.492  17.278  0.00  0.00    +0.000 A 
ATOM      5  C   UNL     1      51.668   4.425  18.030  0.00  0.00    +0.000 A 
ATOM      6  C   UNL     1      50.288   4.187  18.011  0.00  0.00    +0.000 A 
ATOM      7  C   UNL     1      49.425   5.018  17.283  0.00  0.00    +0.000 A 
BRANCH   5   8
ATOM      8  C   UNL     1      52.593   3.572  18.872  0.00  0.00    +0.000 C 
BRANCH   8   9
ATOM      9  N   UNL     1      52.447   2.168  18.500  0.00  0.00    +0.000 N 
ATOM     10  C   UNL     1      53.492   1.683  17.695  0.00  0.00    +0.000 A 
ATOM     11  C   UNL     1      53.447   0.354  17.274  0.00  0.00    +0.000 A 
ATOM     12  C   UNL     1      54.487  -0.159  16.498  0.00  0.00    +0.000 A 
ATOM     13  C   UNL     1      55.549   0.665  16.159  0.00  0.00    +0.000 A 
ATOM     14  C   UNL     1      55.527   1.966  16.622  0.00  0.00    +0.000 A 
ATOM     15  N   UNL     1      54.532   2.482  17.379  0.00  0.00    +0.000 NA
ATOM     16  H   UNL     1      51.555   1.985  18.053  0.00  0.00    +0.000 HD
ENDBRANCH   8   9
ENDBRANCH   5   8
ENDBRANCH   1   2
BRANCH   1  17
ATOM     17  N   UNL     1      47.897   6.478  15.237  0.00  0.00    +0.000 N 
ATOM     18  C   UNL     1      47.934   6.184  13.893  0.00  0.00    +0.000 C 
ATOM     19  O   UNL     1      48.913   6.448  13.201  0.00  0.00    +0.000 OA
ATOM     20  H   UNL     1      47.017   6.437  15.742  0.00  0.00    +0.000 HD
BRANCH  18  21
ATOM     21  C   UNL     1      46.781   5.478  13.326  0.00  0.00    +0.000 A 
ATOM     22  C   UNL     1      46.758   4.089  13.344  0.00  0.00    +0.000 A 
ATOM     23  S   UNL     1      45.337   3.418  12.684  0.00  0.00    +0.000 S 
ATOM     24  C   UNL     1      44.725   4.959  12.304  0.00  0.00    +0.000 A 
ATOM     25  N   UNL     1      43.524   5.096  11.682  0.00  0.00    +0.000 NA
ATOM     26  C   UNL     1      43.200   6.317  11.417  0.00  0.00    +0.000 A 
ATOM     27  N   UNL     1      43.967   7.413  11.720  0.00  0.00    +0.000 N 
ATOM     28  C   UNL     1      45.172   7.325  12.379  0.00  0.00    +0.000 A 
ATOM     29  O   UNL     1      45.817   8.325  12.678  0.00  0.00    +0.000 OA
ATOM     30  C   UNL     1      45.586   5.971  12.688  0.00  0.00    +0.000 A 
ATOM     31  H   UNL     1      43.650   8.341  11.485  0.00  0.00    +0.000 HD
ENDBRANCH  18  21
ENDBRANCH   1  17
BRANCH   1  32
ATOM     32  C   UNL     1      48.543   8.326  16.777  0.00  0.00    +0.000 C 
BRANCH  32  33
ATOM     33  N   UNL     1      47.654   9.277  16.093  0.00  0.00    +0.000 NA
ATOM     34  H   UNL     1      47.648   9.076  15.095  0.00  0.00    +0.000 HD
ATOM     35  H   UNL     1      48.039  10.218  16.191  0.00  0.00    +0.000 HD
ENDBRANCH  32  33
ENDBRANCH   1  32
TORSDOF 7
ENDMDL
MODEL 9
REMARK VINA RESULT:    -6.715      4.331      7.566
REMARK INTER + INTRA:         -10.157
REMARK INTER:                  -9.172
REMARK INTRA:                  -0.985
REMARK UNBOUND:                -0.890
REMARK  Name = 
REMARK  7 active torsions:
REMARK  status: ('A' for Active; 'I' for Inactive)
REMARK    1  A    between atoms: N_1  and  C_2
REMARK    2  A    between atoms: C_2  and  C_3
REMARK    3  A    between atoms: C_3  and  N_4
REMARK    4  A    between atoms: C_3  and  C_17
REMARK    5  A    between atoms: C_5  and  C_7
REMARK    6  A    between atoms: C_20  and  C_21
REMARK    7  A    between atoms: C_21  and  N_22
REMARK                            x       y       z     vdW  Elec       q    Type
REMARK                         _______ _______ _______ _____ _____    ______ ____
ROOT
ATOM      1  C   UNL     1      46.790   8.470  12.132  0.00  0.00    +0.000 C 
ENDROOT
BRANCH   1   2
ATOM      2  C   UNL     1      48.265   8.504  11.749  0.00  0.00    +0.000 A 
ATOM      3  C   UNL     1      48.882   9.751  11.542  0.00  0.00    +0.000 A 
ATOM      4  C   UNL     1      50.260   9.845  11.320  0.00  0.00    +0.000 A 
ATOM      5  C   UNL     1      51.054   8.694  11.267  0.00  0.00    +0.000 A 
ATOM      6  C   UNL     1      50.434   7.446  11.411  0.00  0.00    +0.000 A 
ATOM      7  C   UNL     1      49.054   7.351  11.637  0.00  0.00    +0.000 A 
BRANCH   5   8
ATOM      8  C   UNL     1      52.554   8.802  11.094  0.00  0.00    +0.000 C 
BRANCH   8   9
ATOM      9  N   UNL     1      53.171   7.495  11.291  0.00  0.00    +0.000 N 
ATOM     10  C   UNL     1      53.663   6.914  10.109  0.00  0.00    +0.000 A 
ATOM     11  C   UNL     1      54.265   5.659  10.183  0.00  0.00    +0.000 A 
ATOM     12  C   UNL     1      54.788   5.075   9.028  0.00  0.00    +0.000 A 
ATOM     13  C   UNL     1      54.698   5.757   7.825  0.00  0.00    +0.000 A 
ATOM     14  C   UNL     1      54.097   7.001   7.834  0.00  0.00    +0.000 A 
ATOM     15  N   UNL     1      53.589   7.587   8.942  0.00  0.00    +0.000 NA
ATOM     16  H   UNL     1      52.544   6.846  11.757  0.00  0.00    +0.000 HD
ENDBRANCH   8   9
ENDBRANCH   5   8
ENDBRANCH   1   2
BRANCH   1  17
ATOM     17  N   UNL     1      46.270   7.111  12.061  0.00  0.00    +0.000 N 
ATOM     18  C   UNL     1      45.025   6.864  11.531  0.00  0.00    +0.000 C 
ATOM     19  O   UNL     1      44.320   7.766  11.086  0.00  0.00    +0.000 OA
ATOM     20  H   UNL     1      46.746   6.393  12.599  0.00  0.00    +0.000 HD
BRANCH  18  21
ATOM     21  C   UNL     1      44.591   5.465  11.455  0.00  0.00    +0.000 A 
ATOM     22  C   UNL     1      43.906   4.906  12.526  0.00  0.00    +0.000 A 
ATOM     23  S   UNL     1      43.436   3.288  12.270  0.00  0.00    +0.000 S 
ATOM     24  C   UNL     1      44.176   3.262  10.739  0.00  0.00    +0.000 A 
ATOM     25  N   UNL     1      44.162   2.134   9.979  0.00  0.00    +0.000 NA
ATOM     26  C   UNL     1      44.795   2.241   8.859  0.00  0.00    +0.000 A 
ATOM     27  N   UNL     1      45.437   3.374   8.429  0.00  0.00    +0.000 N 
ATOM     28  C   UNL     1      45.449   4.547   9.148  0.00  0.00    +0.000 A 
ATOM     29  O   UNL     1      45.993   5.560   8.720  0.00  0.00    +0.000 OA
ATOM     30  C   UNL     1      44.760   4.474  10.421  0.00  0.00    +0.000 A 
ATOM     31  H   UNL     1      45.911   3.388   7.539  0.00  0.00    +0.000 HD
ENDBRANCH  18  21
ENDBRANCH   1  17
BRANCH   1  32
ATOM     32  C   UNL     1      46.438   9.140  13.496  0.00  0.00    +0.000 C 
BRANCH  32  33
ATOM     33  N   UNL     1      47.253   8.674  14.627  0.00  0.00    +0.000 NA
ATOM     34  H   UNL     1      48.225   8.935  14.473  0.00  0.00    +0.000 HD
ATOM     35  H   UNL     1      47.234   7.653  14.650  0.00  0.00    +0.000 HD
ENDBRANCH  32  33
ENDBRANCH   1  32
TORSDOF 7
ENDMDL
