MODEL 1
REMARK VINA RESULT:    -7.133      0.000      0.000
REMARK INTER + INTRA:         -10.442
REMARK INTER:                 -10.052
REMARK INTRA:                  -0.390
REMARK UNBOUND:                -0.390
REMARK  Name = 
REMARK  9 active torsions:
REMARK  status: ('A' for Active; 'I' for Inactive)
REMARK    1  A    between atoms: C_1  and  C_2
REMARK    2  A    between atoms: C_2  and  N_3
REMARK    3  A    between atoms: N_3  and  C_4
REMARK    4  A    between atoms: C_4  and  C_5
REMARK    5  A    between atoms: C_6  and  C_8
REMARK    6  A    between atoms: C_11  and  O_12
REMARK    7  A    between atoms: O_12  and  C_13
REMARK    8  A    between atoms: C_13  and  C_14
REMARK    9  A    between atoms: C_14  and  C_15
REMARK                            x       y       z     vdW  Elec       q    Type
REMARK                         _______ _______ _______ _____ _____    ______ ____
ROOT
ATOM      1  C   UNL     1      46.052   4.604  13.687  0.00  0.00    +0.000 A 
ATOM      2  C   UNL     1      45.126   5.570  13.303  0.00  0.00    +0.000 A 
ATOM      3  C   UNL     1      44.255   5.288  12.248  0.00  0.00    +0.000 A 
ATOM      4  C   UNL     1      44.334   4.055  11.607  0.00  0.00    +0.000 A 
ATOM      5  C   UNL     1      45.267   3.142  12.083  0.00  0.00    +0.000 A 
ATOM      6  N   UNL     1      46.126   3.384  13.099  0.00  0.00    +0.000 NA
ENDROOT
BRANCH   1   8
ATOM      7  N   UNL     1      47.920   5.932  14.770  0.00  0.00    +0.000 N 
ATOM      8  C   UNL     1      46.965   4.894  14.845  0.00  0.00    +0.000 C 
ATOM      9  O   UNL     1      46.831   4.201  15.854  0.00  0.00    +0.000 OA
BRANCH   7  11
ATOM     10  C   UNL     1      48.714   7.181  16.770  0.00  0.00    +0.000 C 
ATOM     11  C   UNL     1      48.915   5.989  15.842  0.00  0.00    +0.000 C 
ENDBRANCH   7  11
BRANCH   7  12
ATOM     12  C   UNL     1      48.006   6.835  13.613  0.00  0.00    +0.000 C 
ATOM     13  C   UNL     1      49.385   7.242  13.117  0.00  0.00    +0.000 C 
ENDBRANCH   7  12
ENDBRANCH   1   8
BRANCH   4  14
ATOM     14  O   UNL     1      43.566   3.640  10.561  0.00  0.00    +0.000 OA
BRANCH  14  15
ATOM     15  C   UNL     1      44.159   2.681   9.682  0.00  0.00    +0.000 C 
BRANCH  15  16
ATOM     16  C   UNL     1      44.715   3.441   8.479  0.00  0.00    +0.000 C 
BRANCH  16  17
ATOM     17  C   UNL     1      45.915   2.758   7.881  0.00  0.00    +0.000 A 
ATOM     18  C   UNL     1      46.804   3.468   7.069  0.00  0.00    +0.000 A 
ATOM     19  C   UNL     1      47.885   2.792   6.520  0.00  0.00    +0.000 A 
ATOM     20  N   UNL     1      48.133   1.482   6.721  0.00  0.00    +0.000 NA
ATOM     21  C   UNL     1      47.260   0.816   7.507  0.00  0.00    +0.000 A 
ATOM     22  C   UNL     1      46.150   1.401   8.098  0.00  0.00    +0.000 A 
ENDBRANCH  16  17
ENDBRANCH  15  16
ENDBRANCH  14  15
ENDBRANCH   4  14
TORSDOF 7
ENDMDL
MODEL 2
REMARK VINA RESULT:    -7.132      1.414      2.183
REMARK INTER + INTRA:         -10.440
REMARK INTER:                  -9.930
REMARK INTRA:                  -0.511
REMARK UNBOUND:                -0.390
REMARK  Name = 
REMARK  9 active torsions:
REMARK  status: ('A' for Active; 'I' for Inactive)
REMARK    1  A    between atoms: C_1  and  C_2
REMARK    2  A    between atoms: C_2  and  N_3
REMARK    3  A    between atoms: N_3  and  C_4
REMARK    4  A    between atoms: C_4  and  C_5
REMARK    5  A    between atoms: C_6  and  C_8
REMARK    6  A    between atoms: C_11  and  O_12
REMARK    7  A    between atoms: O_12  and  C_13
REMARK    8  A    between atoms: C_13  and  C_14
REMARK    9  A    between atoms: C_14  and  C_15
REMARK                            x       y       z     vdW  Elec       q    Type
REMARK                         _______ _______ _______ _____ _____    ______ ____
ROOT
ATOM      1  C   UNL     1      46.856   5.020  13.807  0.00  0.00    +0.000 A 
ATOM      2  C   UNL     1      46.801   3.674  13.459  0.00  0.00    +0.000 A 
ATOM      3  C   UNL     1      45.825   3.250  12.553  0.00  0.00    +0.000 A 
ATOM      4  C   UNL     1      44.935   4.179  12.025  0.00  0.00    +0.000 A 
ATOM      5  C   UNL     1      45.089   5.506  12.405  0.00  0.00    +0.000 A 
ATOM      6  N   UNL     1      46.019   5.949  13.280  0.00  0.00    +0.000 NA
ENDROOT
BRANCH   1   8
ATOM      7  N   UNL     1      47.949   5.037  16.094  0.00  0.00    +0.000 N 
ATOM      8  C   UNL     1      47.928   5.481  14.753  0.00  0.00    +0.000 C 
ATOM      9  O   UNL     1      48.784   6.245  14.305  0.00  0.00    +0.000 OA
BRANCH   7  11
ATOM     10  C   UNL     1      48.219   6.828  17.800  0.00  0.00    +0.000 C 
ATOM     11  C   UNL     1      48.880   5.715  16.997  0.00  0.00    +0.000 C 
ENDBRANCH   7  11
BRANCH   7  12
ATOM     12  C   UNL     1      46.998   4.038  16.603  0.00  0.00    +0.000 C 
ATOM     13  C   UNL     1      47.532   2.914  17.478  0.00  0.00    +0.000 C 
ENDBRANCH   7  12
ENDBRANCH   1   8
BRANCH   4  14
ATOM     14  O   UNL     1      43.927   3.919  11.145  0.00  0.00    +0.000 OA
BRANCH  14  15
ATOM     15  C   UNL     1      44.216   2.974  10.112  0.00  0.00    +0.000 C 
BRANCH  15  16
ATOM     16  C   UNL     1      44.855   3.738   8.954  0.00  0.00    +0.000 C 
BRANCH  16  17
ATOM     17  C   UNL     1      45.875   2.909   8.221  0.00  0.00    +0.000 A 
ATOM     18  C   UNL     1      46.755   3.505   7.313  0.00  0.00    +0.000 A 
ATOM     19  C   UNL     1      47.664   2.700   6.644  0.00  0.00    +0.000 A 
ATOM     20  N   UNL     1      47.752   1.365   6.813  0.00  0.00    +0.000 NA
ATOM     21  C   UNL     1      46.892   0.810   7.694  0.00  0.00    +0.000 A 
ATOM     22  C   UNL     1      45.946   1.529   8.409  0.00  0.00    +0.000 A 
ENDBRANCH  16  17
ENDBRANCH  15  16
ENDBRANCH  14  15
ENDBRANCH   4  14
TORSDOF 7
ENDMDL
MODEL 3
REMARK VINA RESULT:    -6.341      2.036      2.675
REMARK INTER + INTRA:          -9.325
REMARK INTER:                  -8.637
REMARK INTRA:                  -0.688
REMARK UNBOUND:                -0.390
REMARK  Name = 
REMARK  9 active torsions:
REMARK  status: ('A' for Active; 'I' for Inactive)
REMARK    1  A    between atoms: C_1  and  C_2
REMARK    2  A    between atoms: C_2  and  N_3
REMARK    3  A    between atoms: N_3  and  C_4
REMARK    4  A    between atoms: C_4  and  C_5
REMARK    5  A    between atoms: C_6  and  C_8
REMARK    6  A    between atoms: C_11  and  O_12
REMARK    7  A    between atoms: O_12  and  C_13
REMARK    8  A    between atoms: C_13  and  C_14
REMARK    9  A    between atoms: C_14  and  C_15
REMARK                            x       y       z     vdW  Elec       q    Type
REMARK                         _______ _______ _______ _____ _____    ______ ____
ROOT
ATOM      1  C   UNL     1      46.860   6.739  12.823  0.00  0.00    +0.000 A 
ATOM      2  C   UNL     1      47.010   5.583  13.584  0.00  0.00    +0.000 A 
ATOM      3  C   UNL     1      46.335   4.424  13.191  0.00  0.00    +0.000 A 
ATOM      4  C   UNL     1      45.533   4.453  12.055  0.00  0.00    +0.000 A 
ATOM      5  C   UNL     1      45.472   5.642  11.340  0.00  0.00    +0.000 A 
ATOM      6  N   UNL     1      46.109   6.782  11.694  0.00  0.00    +0.000 NA
ENDROOT
BRANCH   1   8
ATOM      7  N   UNL     1      48.894   8.245  12.695  0.00  0.00    +0.000 N 
ATOM      8  C   UNL     1      47.613   7.975  13.225  0.00  0.00    +0.000 C 
ATOM      9  O   UNL     1      47.060   8.738  14.019  0.00  0.00    +0.000 OA
BRANCH   7  11
ATOM     10  C   UNL     1      50.420   8.893  14.551  0.00  0.00    +0.000 C 
ATOM     11  C   UNL     1      49.645   9.337  13.316  0.00  0.00    +0.000 C 
ENDBRANCH   7  11
BRANCH   7  12
ATOM     12  C   UNL     1      49.508   7.399  11.662  0.00  0.00    +0.000 C 
ATOM     13  C   UNL     1      50.869   7.804  11.114  0.00  0.00    +0.000 C 
ENDBRANCH   7  12
ENDBRANCH   1   8
BRANCH   4  14
ATOM     14  O   UNL     1      44.808   3.413  11.555  0.00  0.00    +0.000 OA
BRANCH  14  15
ATOM     15  C   UNL     1      44.237   3.606  10.258  0.00  0.00    +0.000 C 
BRANCH  15  16
ATOM     16  C   UNL     1      44.434   2.312   9.471  0.00  0.00    +0.000 C 
BRANCH  16  17
ATOM     17  C   UNL     1      45.549   2.422   8.467  0.00  0.00    +0.000 A 
ATOM     18  C   UNL     1      46.297   1.296   8.110  0.00  0.00    +0.000 A 
ATOM     19  C   UNL     1      47.330   1.449   7.197  0.00  0.00    +0.000 A 
ATOM     20  N   UNL     1      47.663   2.625   6.628  0.00  0.00    +0.000 NA
ATOM     21  C   UNL     1      46.928   3.699   6.988  0.00  0.00    +0.000 A 
ATOM     22  C   UNL     1      45.879   3.650   7.893  0.00  0.00    +0.000 A 
ENDBRANCH  16  17
ENDBRANCH  15  16
ENDBRANCH  14  15
ENDBRANCH   4  14
TORSDOF 7
ENDMDL
MODEL 4
REMARK VINA RESULT:    -6.082      2.126      3.029
REMARK INTER + INTRA:          -8.961
REMARK INTER:                  -8.128
REMARK INTRA:                  -0.833
REMARK UNBOUND:                -0.390
REMARK  Name = 
REMARK  9 active torsions:
REMARK  status: ('A' for Active; 'I' for Inactive)
REMARK    1  A    between atoms: C_1  and  C_2
REMARK    2  A    between atoms: C_2  and  N_3
REMARK    3  A    between atoms: N_3  and  C_4
REMARK    4  A    between atoms: C_4  and  C_5
REMARK    5  A    between atoms: C_6  and  C_8
REMARK    6  A    between atoms: C_11  and  O_12
REMARK    7  A    between atoms: O_12  and  C_13
REMARK    8  A    between atoms: C_13  and  C_14
REMARK    9  A    between atoms: C_14  and  C_15
REMARK                            x       y       z     vdW  Elec       q    Type
REMARK                         _______ _______ _______ _____ _____    ______ ____
ROOT
ATOM      1  C   UNL     1      48.012   6.727  12.758  0.00  0.00    +0.000 A 
ATOM      2  C   UNL     1      46.956   7.475  12.244  0.00  0.00    +0.000 A 
ATOM      3  C   UNL     1      45.675   6.919  12.242  0.00  0.00    +0.000 A 
ATOM      4  C   UNL     1      45.484   5.638  12.750  0.00  0.00    +0.000 A 
ATOM      5  C   UNL     1      46.592   4.983  13.273  0.00  0.00    +0.000 A 
ATOM      6  N   UNL     1      47.845   5.489  13.288  0.00  0.00    +0.000 NA
ENDROOT
BRANCH   1   8
ATOM      7  N   UNL     1      49.914   7.855  13.995  0.00  0.00    +0.000 N 
ATOM      8  C   UNL     1      49.385   7.338  12.793  0.00  0.00    +0.000 C 
ATOM      9  O   UNL     1      50.021   7.354  11.738  0.00  0.00    +0.000 OA
BRANCH   7  11
ATOM     10  C   UNL     1      52.274   8.084  14.753  0.00  0.00    +0.000 C 
ATOM     11  C   UNL     1      51.148   8.637  13.888  0.00  0.00    +0.000 C 
ENDBRANCH   7  11
BRANCH   7  12
ATOM     12  C   UNL     1      49.207   7.736  15.279  0.00  0.00    +0.000 C 
ATOM     13  C   UNL     1      48.331   8.896  15.729  0.00  0.00    +0.000 C 
ENDBRANCH   7  12
ENDBRANCH   1   8
BRANCH   4  14
ATOM     14  O   UNL     1      44.303   4.961  12.805  0.00  0.00    +0.000 OA
BRANCH  14  15
ATOM     15  C   UNL     1      44.251   3.719  12.097  0.00  0.00    +0.000 C 
BRANCH  15  16
ATOM     16  C   UNL     1      43.739   4.013  10.689  0.00  0.00    +0.000 C 
BRANCH  16  17
ATOM     17  C   UNL     1      44.691   3.531   9.627  0.00  0.00    +0.000 A 
ATOM     18  C   UNL     1      45.345   4.443   8.793  0.00  0.00    +0.000 A 
ATOM     19  C   UNL     1      46.196   3.954   7.814  0.00  0.00    +0.000 A 
ATOM     20  N   UNL     1      46.433   2.642   7.611  0.00  0.00    +0.000 NA
ATOM     21  C   UNL     1      45.790   1.779   8.427  0.00  0.00    +0.000 A 
ATOM     22  C   UNL     1      44.919   2.170   9.432  0.00  0.00    +0.000 A 
ENDBRANCH  16  17
ENDBRANCH  15  16
ENDBRANCH  14  15
ENDBRANCH   4  14
TORSDOF 7
ENDMDL
MODEL 5
REMARK VINA RESULT:    -5.828      2.885      4.642
REMARK INTER + INTRA:          -8.603
REMARK INTER:                  -7.760
REMARK INTRA:                  -0.842
REMARK UNBOUND:                -0.390
REMARK  Name = 
REMARK  9 active torsions:
REMARK  status: ('A' for Active; 'I' for Inactive)
REMARK    1  A    between atoms: C_1  and  C_2
REMARK    2  A    between atoms: C_2  and  N_3
REMARK    3  A    between atoms: N_3  and  C_4
REMARK    4  A    between atoms: C_4  and  C_5
REMARK    5  A    between atoms: C_6  and  C_8
REMARK    6  A    between atoms: C_11  and  O_12
REMARK    7  A    between atoms: O_12  and  C_13
REMARK    8  A    between atoms: C_13  and  C_14
REMARK    9  A    between atoms: C_14  and  C_15
REMARK                            x       y       z     vdW  Elec       q    Type
REMARK                         _______ _______ _______ _____ _____    ______ ____
ROOT
ATOM      1  C   UNL     1      48.213   4.938  16.110  0.00  0.00    +0.000 A 
ATOM      2  C   UNL     1      47.201   4.265  15.432  0.00  0.00    +0.000 A 
ATOM      3  C   UNL     1      46.716   4.803  14.237  0.00  0.00    +0.000 A 
ATOM      4  C   UNL     1      47.253   5.992  13.756  0.00  0.00    +0.000 A 
ATOM      5  C   UNL     1      48.285   6.573  14.483  0.00  0.00    +0.000 A 
ATOM      6  N   UNL     1      48.775   6.082  15.644  0.00  0.00    +0.000 NA
ENDROOT
BRANCH   1   8
ATOM      7  N   UNL     1      48.269   4.748  18.637  0.00  0.00    +0.000 N 
ATOM      8  C   UNL     1      48.759   4.341  17.377  0.00  0.00    +0.000 C 
ATOM      9  O   UNL     1      49.633   3.480  17.263  0.00  0.00    +0.000 OA
BRANCH   7  11
ATOM     10  C   UNL     1      50.197   5.195  20.147  0.00  0.00    +0.000 C 
ATOM     11  C   UNL     1      49.015   4.292  19.811  0.00  0.00    +0.000 C 
ENDBRANCH   7  11
BRANCH   7  12
ATOM     12  C   UNL     1      47.148   5.689  18.775  0.00  0.00    +0.000 C 
ATOM     13  C   UNL     1      47.464   7.157  19.018  0.00  0.00    +0.000 C 
ENDBRANCH   7  12
ENDBRANCH   1   8
BRANCH   4  14
ATOM     14  O   UNL     1      46.880   6.643  12.619  0.00  0.00    +0.000 OA
BRANCH  14  15
ATOM     15  C   UNL     1      45.505   7.029  12.532  0.00  0.00    +0.000 C 
BRANCH  15  16
ATOM     16  C   UNL     1      45.014   6.670  11.131  0.00  0.00    +0.000 C 
BRANCH  16  17
ATOM     17  C   UNL     1      44.534   5.247  11.045  0.00  0.00    +0.000 A 
ATOM     18  C   UNL     1      44.844   4.459   9.932  0.00  0.00    +0.000 A 
ATOM     19  C   UNL     1      44.362   3.159   9.884  0.00  0.00    +0.000 A 
ATOM     20  N   UNL     1      43.605   2.603  10.851  0.00  0.00    +0.000 NA
ATOM     21  C   UNL     1      43.316   3.382  11.915  0.00  0.00    +0.000 A 
ATOM     22  C   UNL     1      43.748   4.692  12.054  0.00  0.00    +0.000 A 
ENDBRANCH  16  17
ENDBRANCH  15  16
ENDBRANCH  14  15
ENDBRANCH   4  14
TORSDOF 7
ENDMDL
MODEL 6
REMARK VINA RESULT:    -5.651      2.345      3.759
REMARK INTER + INTRA:          -8.352
REMARK INTER:                  -7.725
REMARK INTRA:                  -0.627
REMARK UNBOUND:                -0.390
REMARK  Name = 
REMARK  9 active torsions:
REMARK  status: ('A' for Active; 'I' for Inactive)
REMARK    1  A    between atoms: C_1  and  C_2
REMARK    2  A    between atoms: C_2  and  N_3
REMARK    3  A    between atoms: N_3  and  C_4
REMARK    4  A    between atoms: C_4  and  C_5
REMARK    5  A    between atoms: C_6  and  C_8
REMARK    6  A    between atoms: C_11  and  O_12
REMARK    7  A    between atoms: O_12  and  C_13
REMARK    8  A    between atoms: C_13  and  C_14
REMARK    9  A    between atoms: C_14  and  C_15
REMARK                            x       y       z     vdW  Elec       q    Type
REMARK                         _______ _______ _______ _____ _____    ______ ____
ROOT
ATOM      1  C   UNL     1      48.452   5.178  15.932  0.00  0.00    +0.000 A 
ATOM      2  C   UNL     1      48.622   6.400  15.287  0.00  0.00    +0.000 A 
ATOM      3  C   UNL     1      47.867   6.670  14.142  0.00  0.00    +0.000 A 
ATOM      4  C   UNL     1      46.969   5.716  13.676  0.00  0.00    +0.000 A 
ATOM      5  C   UNL     1      46.843   4.540  14.405  0.00  0.00    +0.000 A 
ATOM      6  N   UNL     1      47.559   4.245  15.513  0.00  0.00    +0.000 NA
ENDROOT
BRANCH   1   8
ATOM      7  N   UNL     1      48.753   5.310  18.444  0.00  0.00    +0.000 N 
ATOM      8  C   UNL     1      49.237   4.902  17.183  0.00  0.00    +0.000 C 
ATOM      9  O   UNL     1      50.304   4.299  17.056  0.00  0.00    +0.000 OA
BRANCH   7  11
ATOM     10  C   UNL     1      49.025   4.677  20.835  0.00  0.00    +0.000 C 
ATOM     11  C   UNL     1      49.684   5.212  19.570  0.00  0.00    +0.000 C 
ENDBRANCH   7  11
BRANCH   7  12
ATOM     12  C   UNL     1      47.429   5.928  18.613  0.00  0.00    +0.000 C 
ATOM     13  C   UNL     1      47.363   7.408  18.960  0.00  0.00    +0.000 C 
ENDBRANCH   7  12
ENDBRANCH   1   8
BRANCH   4  14
ATOM     14  O   UNL     1      46.176   5.827  12.573  0.00  0.00    +0.000 OA
BRANCH  14  15
ATOM     15  C   UNL     1      45.035   4.967  12.525  0.00  0.00    +0.000 C 
BRANCH  15  16
ATOM     16  C   UNL     1      44.325   5.217  11.196  0.00  0.00    +0.000 C 
BRANCH  16  17
ATOM     17  C   UNL     1      44.822   4.306  10.106  0.00  0.00    +0.000 A 
ATOM     18  C   UNL     1      45.552   4.820   9.030  0.00  0.00    +0.000 A 
ATOM     19  C   UNL     1      45.972   3.948   8.037  0.00  0.00    +0.000 A 
ATOM     20  N   UNL     1      45.716   2.624   8.042  0.00  0.00    +0.000 NA
ATOM     21  C   UNL     1      45.008   2.150   9.090  0.00  0.00    +0.000 A 
ATOM     22  C   UNL     1      44.543   2.941  10.129  0.00  0.00    +0.000 A 
ENDBRANCH  16  17
ENDBRANCH  15  16
ENDBRANCH  14  15
ENDBRANCH   4  14
TORSDOF 7
ENDMDL
MODEL 7
REMARK VINA RESULT:    -5.596      3.060      5.059
REMARK INTER + INTRA:          -8.275
REMARK INTER:                  -7.377
REMARK INTRA:                  -0.898
REMARK UNBOUND:                -0.390
REMARK  Name = 
REMARK  9 active torsions:
REMARK  status: ('A' for Active; 'I' for Inactive)
REMARK    1  A    between atoms: C_1  and  C_2
REMARK    2  A    between atoms: C_2  and  N_3
REMARK    3  A    between atoms: N_3  and  C_4
REMARK    4  A    between atoms: C_4  and  C_5
REMARK    5  A    between atoms: C_6  and  C_8
REMARK    6  A    between atoms: C_11  and  O_12
REMARK    7  A    between atoms: O_12  and  C_13
REMARK    8  A    between atoms: C_13  and  C_14
REMARK    9  A    between atoms: C_14  and  C_15
REMARK                            x       y       z     vdW  Elec       q    Type
REMARK                         _______ _______ _______ _____ _____    ______ ____
ROOT
ATOM      1  C   UNL     1      48.272   5.538  16.703  0.00  0.00    +0.000 A 
ATOM      2  C   UNL     1      47.482   4.472  16.283  0.00  0.00    +0.000 A 
ATOM      3  C   UNL     1      47.058   4.429  14.952  0.00  0.00    +0.000 A 
ATOM      4  C   UNL     1      47.433   5.448  14.083  0.00  0.00    +0.000 A 
ATOM      5  C   UNL     1      48.252   6.452  14.584  0.00  0.00    +0.000 A 
ATOM      6  N   UNL     1      48.678   6.526  15.865  0.00  0.00    +0.000 NA
ENDROOT
BRANCH   1   8
ATOM      7  N   UNL     1      49.916   4.854  18.507  0.00  0.00    +0.000 N 
ATOM      8  C   UNL     1      48.757   5.565  18.125  0.00  0.00    +0.000 C 
ATOM      9  O   UNL     1      48.111   6.240  18.927  0.00  0.00    +0.000 OA
BRANCH   7  11
ATOM     10  C   UNL     1      51.558   5.260  20.332  0.00  0.00    +0.000 C 
ATOM     11  C   UNL     1      50.177   4.746  19.943  0.00  0.00    +0.000 C 
ENDBRANCH   7  11
BRANCH   7  12
ATOM     12  C   UNL     1      50.754   4.141  17.532  0.00  0.00    +0.000 C 
ATOM     13  C   UNL     1      50.595   2.633  17.411  0.00  0.00    +0.000 C 
ENDBRANCH   7  12
ENDBRANCH   1   8
BRANCH   4  14
ATOM     14  O   UNL     1      47.092   5.552  12.768  0.00  0.00    +0.000 OA
BRANCH  14  15
ATOM     15  C   UNL     1      46.392   6.739  12.387  0.00  0.00    +0.000 C 
BRANCH  15  16
ATOM     16  C   UNL     1      44.906   6.501  12.644  0.00  0.00    +0.000 C 
BRANCH  16  17
ATOM     17  C   UNL     1      44.423   5.213  12.032  0.00  0.00    +0.000 A 
ATOM     18  C   UNL     1      43.938   4.181  12.841  0.00  0.00    +0.000 A 
ATOM     19  C   UNL     1      43.525   3.003  12.236  0.00  0.00    +0.000 A 
ATOM     20  N   UNL     1      43.564   2.787  10.906  0.00  0.00    +0.000 NA
ATOM     21  C   UNL     1      44.039   3.797  10.144  0.00  0.00    +0.000 A 
ATOM     22  C   UNL     1      44.477   5.009  10.654  0.00  0.00    +0.000 A 
ENDBRANCH  16  17
ENDBRANCH  15  16
ENDBRANCH  14  15
ENDBRANCH   4  14
TORSDOF 7
ENDMDL
MODEL 8
REMARK VINA RESULT:    -5.313      3.566      6.056
REMARK INTER + INTRA:          -7.877
REMARK INTER:                  -7.504
REMARK INTRA:                  -0.373
REMARK UNBOUND:                -0.390
REMARK  Name = 
REMARK  9 active torsions:
REMARK  status: ('A' for Active; 'I' for Inactive)
REMARK    1  A    between atoms: C_1  and  C_2
REMARK    2  A    between atoms: C_2  and  N_3
REMARK    3  A    between atoms: N_3  and  C_4
REMARK    4  A    between atoms: C_4  and  C_5
REMARK    5  A    between atoms: C_6  and  C_8
REMARK    6  A    between atoms: C_11  and  O_12
REMARK    7  A    between atoms: O_12  and  C_13
REMARK    8  A    between atoms: C_13  and  C_14
REMARK    9  A    between atoms: C_14  and  C_15
REMARK                            x       y       z     vdW  Elec       q    Type
REMARK                         _______ _______ _______ _____ _____    ______ ____
ROOT
ATOM      1  C   UNL     1      49.222   4.538  18.292  0.00  0.00    +0.000 A 
ATOM      2  C   UNL     1      48.425   3.401  18.396  0.00  0.00    +0.000 A 
ATOM      3  C   UNL     1      47.452   3.168  17.421  0.00  0.00    +0.000 A 
ATOM      4  C   UNL     1      47.301   4.074  16.376  0.00  0.00    +0.000 A 
ATOM      5  C   UNL     1      48.165   5.162  16.337  0.00  0.00    +0.000 A 
ATOM      6  N   UNL     1      49.115   5.418  17.265  0.00  0.00    +0.000 NA
ENDROOT
BRANCH   1   8
ATOM      7  N   UNL     1      51.609   4.308  19.110  0.00  0.00    +0.000 N 
ATOM      8  C   UNL     1      50.292   4.770  19.321  0.00  0.00    +0.000 C 
ATOM      9  O   UNL     1      49.971   5.386  20.338  0.00  0.00    +0.000 OA
BRANCH   7  11
ATOM     10  C   UNL     1      53.800   3.573  20.033  0.00  0.00    +0.000 C 
ATOM     11  C   UNL     1      52.520   4.368  20.255  0.00  0.00    +0.000 C 
ENDBRANCH   7  11
BRANCH   7  12
ATOM     12  C   UNL     1      52.025   3.674  17.850  0.00  0.00    +0.000 C 
ATOM     13  C   UNL     1      51.763   2.186  17.671  0.00  0.00    +0.000 C 
ENDBRANCH   7  12
ENDBRANCH   1   8
BRANCH   4  14
ATOM     14  O   UNL     1      46.395   3.991  15.362  0.00  0.00    +0.000 OA
BRANCH  14  15
ATOM     15  C   UNL     1      46.781   4.580  14.117  0.00  0.00    +0.000 C 
BRANCH  15  16
ATOM     16  C   UNL     1      46.300   3.655  13.001  0.00  0.00    +0.000 C 
BRANCH  16  17
ATOM     17  C   UNL     1      45.089   4.201  12.294  0.00  0.00    +0.000 A 
ATOM     18  C   UNL     1      44.912   3.989  10.923  0.00  0.00    +0.000 A 
ATOM     19  C   UNL     1      43.793   4.529  10.308  0.00  0.00    +0.000 A 
ATOM     20  N   UNL     1      42.857   5.255  10.953  0.00  0.00    +0.000 NA
ATOM     21  C   UNL     1      43.050   5.449  12.276  0.00  0.00    +0.000 A 
ATOM     22  C   UNL     1      44.136   4.953  12.979  0.00  0.00    +0.000 A 
ENDBRANCH  16  17
ENDBRANCH  15  16
ENDBRANCH  14  15
ENDBRANCH   4  14
TORSDOF 7
ENDMDL
MODEL 9
REMARK VINA RESULT:    -5.298      2.372      4.321
REMARK INTER + INTRA:          -7.856
REMARK INTER:                  -7.197
REMARK INTRA:                  -0.659
REMARK UNBOUND:                -0.390
REMARK  Name = 
REMARK  9 active torsions:
REMARK  status: ('A' for Active; 'I' for Inactive)
REMARK    1  A    between atoms: C_1  and  C_2
REMARK    2  A    between atoms: C_2  and  N_3
REMARK    3  A    between atoms: N_3  and  C_4
REMARK    4  A    between atoms: C_4  and  C_5
REMARK    5  A    between atoms: C_6  and  C_8
REMARK    6  A    between atoms: C_11  and  O_12
REMARK    7  A    between atoms: O_12  and  C_13
REMARK    8  A    between atoms: C_13  and  C_14
REMARK    9  A    between atoms: C_14  and  C_15
REMARK                            x       y       z     vdW  Elec       q    Type
REMARK                         _______ _______ _______ _____ _____    ______ ____
ROOT
ATOM      1  C   UNL     1      48.806   5.394  16.310  0.00  0.00    +0.000 A 
ATOM      2  C   UNL     1      48.098   4.248  16.663  0.00  0.00    +0.000 A 
ATOM      3  C   UNL     1      47.059   3.815  15.836  0.00  0.00    +0.000 A 
ATOM      4  C   UNL     1      46.756   4.536  14.685  0.00  0.00    +0.000 A 
ATOM      5  C   UNL     1      47.540   5.646  14.397  0.00  0.00    +0.000 A 
ATOM      6  N   UNL     1      48.550   6.094  15.177  0.00  0.00    +0.000 NA
ENDROOT
BRANCH   1   8
ATOM      7  N   UNL     1      49.750   6.808  18.189  0.00  0.00    +0.000 N 
ATOM      8  C   UNL     1      49.947   5.839  17.181  0.00  0.00    +0.000 C 
ATOM      9  O   UNL     1      51.043   5.313  16.985  0.00  0.00    +0.000 OA
BRANCH   7  11
ATOM     10  C   UNL     1      50.736   7.708  20.289  0.00  0.00    +0.000 C 
ATOM     11  C   UNL     1      50.953   7.349  18.825  0.00  0.00    +0.000 C 
ENDBRANCH   7  11
BRANCH   7  12
ATOM     12  C   UNL     1      48.422   7.353  18.504  0.00  0.00    +0.000 C 
ATOM     13  C   UNL     1      48.040   8.705  17.919  0.00  0.00    +0.000 C 
ENDBRANCH   7  12
ENDBRANCH   1   8
BRANCH   4  14
ATOM     14  O   UNL     1      45.770   4.248  13.790  0.00  0.00    +0.000 OA
BRANCH  14  15
ATOM     15  C   UNL     1      45.060   5.365  13.249  0.00  0.00    +0.000 C 
BRANCH  15  16
ATOM     16  C   UNL     1      43.884   4.818  12.443  0.00  0.00    +0.000 C 
BRANCH  16  17
ATOM     17  C   UNL     1      44.314   4.293  11.099  0.00  0.00    +0.000 A 
ATOM     18  C   UNL     1      44.042   2.971  10.734  0.00  0.00    +0.000 A 
ATOM     19  C   UNL     1      44.475   2.523   9.495  0.00  0.00    +0.000 A 
ATOM     20  N   UNL     1      45.151   3.288   8.613  0.00  0.00    +0.000 NA
ATOM     21  C   UNL     1      45.404   4.561   8.988  0.00  0.00    +0.000 A 
ATOM     22  C   UNL     1      45.015   5.100  10.205  0.00  0.00    +0.000 A 
ENDBRANCH  16  17
ENDBRANCH  15  16
ENDBRANCH  14  15
ENDBRANCH   4  14
TORSDOF 7
ENDMDL
