MODEL 1
REMARK VINA RESULT:    -7.213      0.000      0.000
REMARK INTER + INTRA:          -9.504
REMARK INTER:                  -9.111
REMARK INTRA:                  -0.394
REMARK UNBOUND:                -0.394
REMARK  Name = 
REMARK  5 active torsions:
REMARK  status: ('A' for Active; 'I' for Inactive)
REMARK    1  A    between atoms: N_1  and  C_2
REMARK    2  A    between atoms: C_2  and  C_3
REMARK    3  A    between atoms: C_3  and  C_4
REMARK    4  A    between atoms: C_8  and  C_9
REMARK    5  A    between atoms: C_9  and  N_10
REMARK                            x       y       z     vdW  Elec       q    Type
REMARK                         _______ _______ _______ _____ _____    ______ ____
ROOT
ATOM      1  C   UNL     1      46.030   3.355   7.761  0.00  0.00    +0.000 A 
ATOM      2  C   UNL     1      45.682   2.042   8.061  0.00  0.00    +0.000 A 
ATOM      3  C   UNL     1      44.835   1.804   9.137  0.00  0.00    +0.000 A 
ATOM      4  C   UNL     1      44.370   2.877   9.890  0.00  0.00    +0.000 A 
ATOM      5  C   UNL     1      44.792   4.164   9.562  0.00  0.00    +0.000 A 
ATOM      6  N   UNL     1      45.619   4.407   8.512  0.00  0.00    +0.000 NA
ENDROOT
BRANCH   1   7
ATOM      7  C   UNL     1      46.900   3.662   6.569  0.00  0.00    +0.000 C 
BRANCH   7   8
ATOM      8  C   UNL     1      47.172   2.412   5.731  0.00  0.00    +0.000 C 
BRANCH   8   9
ATOM      9  N   UNL     1      48.588   2.042   5.786  0.00  0.00    +0.000 NA
ATOM     10  H   UNL     1      48.684   1.154   6.280  0.00  0.00    +0.000 HD
ATOM     11  H   UNL     1      49.096   2.728   6.344  0.00  0.00    +0.000 HD
ENDBRANCH   8   9
ENDBRANCH   7   8
ENDBRANCH   1   7
BRANCH   5  12
ATOM     12  C   UNL     1      44.399   5.340  10.418  0.00  0.00    +0.000 C 
BRANCH  12  13
ATOM     13  N   UNL     1      45.063   5.350  11.718  0.00  0.00    +0.000 N 
ATOM     14  C   UNL     1      44.689   4.559  12.779  0.00  0.00    +0.000 A 
ATOM     15  C   UNL     1      45.642   4.685  13.763  0.00  0.00    +0.000 A 
ATOM     16  C   UNL     1      46.643   5.571  13.285  0.00  0.00    +0.000 A 
ATOM     17  C   UNL     1      47.857   6.044  13.823  0.00  0.00    +0.000 A 
ATOM     18  C   UNL     1      48.632   6.918  13.065  0.00  0.00    +0.000 A 
ATOM     19  F   UNL     1      49.797   7.357  13.562  0.00  0.00    +0.000 F 
ATOM     20  C   UNL     1      48.231   7.343  11.806  0.00  0.00    +0.000 A 
ATOM     21  C   UNL     1      47.028   6.892  11.254  0.00  0.00    +0.000 A 
ATOM     22  C   UNL     1      46.254   5.993  12.009  0.00  0.00    +0.000 A 
ENDBRANCH  12  13
ENDBRANCH   5  12
TORSDOF 5
ENDMDL
MODEL 2
REMARK VINA RESULT:    -7.202      2.985      6.031
REMARK INTER + INTRA:          -9.490
REMARK INTER:                  -8.912
REMARK INTRA:                  -0.578
REMARK UNBOUND:                -0.394
REMARK  Name = 
REMARK  5 active torsions:
REMARK  status: ('A' for Active; 'I' for Inactive)
REMARK    1  A    between atoms: N_1  and  C_2
REMARK    2  A    between atoms: C_2  and  C_3
REMARK    3  A    between atoms: C_3  and  C_4
REMARK    4  A    between atoms: C_8  and  C_9
REMARK    5  A    between atoms: C_9  and  N_10
REMARK                            x       y       z     vdW  Elec       q    Type
REMARK                         _______ _______ _______ _____ _____    ______ ____
ROOT
ATOM      1  C   UNL     1      46.604   6.605  13.155  0.00  0.00    +0.000 A 
ATOM      2  C   UNL     1      46.792   7.980  13.061  0.00  0.00    +0.000 A 
ATOM      3  C   UNL     1      45.893   8.729  12.311  0.00  0.00    +0.000 A 
ATOM      4  C   UNL     1      44.841   8.085  11.665  0.00  0.00    +0.000 A 
ATOM      5  C   UNL     1      44.736   6.700  11.765  0.00  0.00    +0.000 A 
ATOM      6  N   UNL     1      45.609   5.960  12.496  0.00  0.00    +0.000 NA
ENDROOT
BRANCH   1   7
ATOM      7  C   UNL     1      47.523   5.765  14.005  0.00  0.00    +0.000 C 
BRANCH   7   8
ATOM      8  C   UNL     1      46.797   4.557  14.597  0.00  0.00    +0.000 C 
BRANCH   8   9
ATOM      9  N   UNL     1      47.173   3.325  13.900  0.00  0.00    +0.000 NA
ATOM     10  H   UNL     1      47.385   2.602  14.588  0.00  0.00    +0.000 HD
ATOM     11  H   UNL     1      48.038   3.480  13.382  0.00  0.00    +0.000 HD
ENDBRANCH   8   9
ENDBRANCH   7   8
ENDBRANCH   1   7
BRANCH   5  12
ATOM     12  C   UNL     1      43.678   5.954  10.993  0.00  0.00    +0.000 C 
BRANCH  12  13
ATOM     13  N   UNL     1      43.998   4.544  10.797  0.00  0.00    +0.000 N 
ATOM     14  C   UNL     1      43.419   3.518  11.505  0.00  0.00    +0.000 A 
ATOM     15  C   UNL     1      43.808   2.329  10.932  0.00  0.00    +0.000 A 
ATOM     16  C   UNL     1      44.642   2.635   9.825  0.00  0.00    +0.000 A 
ATOM     17  C   UNL     1      45.296   1.848   8.856  0.00  0.00    +0.000 A 
ATOM     18  C   UNL     1      46.045   2.483   7.870  0.00  0.00    +0.000 A 
ATOM     19  F   UNL     1      46.655   1.742   6.933  0.00  0.00    +0.000 F 
ATOM     20  C   UNL     1      46.175   3.864   7.828  0.00  0.00    +0.000 A 
ATOM     21  C   UNL     1      45.541   4.666   8.782  0.00  0.00    +0.000 A 
ATOM     22  C   UNL     1      44.766   4.028   9.767  0.00  0.00    +0.000 A 
ENDBRANCH  12  13
ENDBRANCH   5  12
TORSDOF 5
ENDMDL
MODEL 3
REMARK VINA RESULT:    -6.886      1.224      1.931
REMARK INTER + INTRA:          -9.092
REMARK INTER:                  -8.577
REMARK INTRA:                  -0.515
REMARK UNBOUND:                -0.394
REMARK  Name = 
REMARK  5 active torsions:
REMARK  status: ('A' for Active; 'I' for Inactive)
REMARK    1  A    between atoms: N_1  and  C_2
REMARK    2  A    between atoms: C_2  and  C_3
REMARK    3  A    between atoms: C_3  and  C_4
REMARK    4  A    between atoms: C_8  and  C_9
REMARK    5  A    between atoms: C_9  and  N_10
REMARK                            x       y       z     vdW  Elec       q    Type
REMARK                         _______ _______ _______ _____ _____    ______ ____
ROOT
ATOM      1  C   UNL     1      45.871   3.516   8.071  0.00  0.00    +0.000 A 
ATOM      2  C   UNL     1      45.640   2.158   8.270  0.00  0.00    +0.000 A 
ATOM      3  C   UNL     1      44.750   1.770   9.265  0.00  0.00    +0.000 A 
ATOM      4  C   UNL     1      44.127   2.742  10.041  0.00  0.00    +0.000 A 
ATOM      5  C   UNL     1      44.436   4.082   9.819  0.00  0.00    +0.000 A 
ATOM      6  N   UNL     1      45.303   4.472   8.849  0.00  0.00    +0.000 NA
ENDROOT
BRANCH   1   7
ATOM      7  C   UNL     1      46.784   3.982   6.966  0.00  0.00    +0.000 C 
BRANCH   7   8
ATOM      8  C   UNL     1      47.161   2.838   6.025  0.00  0.00    +0.000 C 
BRANCH   8   9
ATOM      9  N   UNL     1      48.579   2.497   6.155  0.00  0.00    +0.000 NA
ATOM     10  H   UNL     1      48.734   1.560   5.782  0.00  0.00    +0.000 HD
ATOM     11  H   UNL     1      48.825   2.449   7.143  0.00  0.00    +0.000 HD
ENDBRANCH   8   9
ENDBRANCH   7   8
ENDBRANCH   1   7
BRANCH   5  12
ATOM     12  C   UNL     1      43.868   5.158  10.709  0.00  0.00    +0.000 C 
BRANCH  12  13
ATOM     13  N   UNL     1      44.895   5.952  11.376  0.00  0.00    +0.000 N 
ATOM     14  C   UNL     1      45.057   7.305  11.199  0.00  0.00    +0.000 A 
ATOM     15  C   UNL     1      45.980   7.750  12.117  0.00  0.00    +0.000 A 
ATOM     16  C   UNL     1      46.389   6.634  12.895  0.00  0.00    +0.000 A 
ATOM     17  C   UNL     1      47.268   6.481  13.985  0.00  0.00    +0.000 A 
ATOM     18  C   UNL     1      47.437   5.216  14.539  0.00  0.00    +0.000 A 
ATOM     19  F   UNL     1      48.257   5.065  15.589  0.00  0.00    +0.000 F 
ATOM     20  C   UNL     1      46.774   4.105  14.037  0.00  0.00    +0.000 A 
ATOM     21  C   UNL     1      45.901   4.231  12.952  0.00  0.00    +0.000 A 
ATOM     22  C   UNL     1      45.713   5.512  12.403  0.00  0.00    +0.000 A 
ENDBRANCH  12  13
ENDBRANCH   5  12
TORSDOF 5
ENDMDL
MODEL 4
REMARK VINA RESULT:    -6.053      4.132      7.450
REMARK INTER + INTRA:          -8.039
REMARK INTER:                  -7.478
REMARK INTRA:                  -0.561
REMARK UNBOUND:                -0.394
REMARK  Name = 
REMARK  5 active torsions:
REMARK  status: ('A' for Active; 'I' for Inactive)
REMARK    1  A    between atoms: N_1  and  C_2
REMARK    2  A    between atoms: C_2  and  C_3
REMARK    3  A    between atoms: C_3  and  C_4
REMARK    4  A    between atoms: C_8  and  C_9
REMARK    5  A    between atoms: C_9  and  N_10
REMARK                            x       y       z     vdW  Elec       q    Type
REMARK                         _______ _______ _______ _____ _____    ______ ____
ROOT
ATOM      1  C   UNL     1      48.606   5.649  16.687  0.00  0.00    +0.000 A 
ATOM      2  C   UNL     1      48.902   6.868  17.288  0.00  0.00    +0.000 A 
ATOM      3  C   UNL     1      48.902   8.017  16.505  0.00  0.00    +0.000 A 
ATOM      4  C   UNL     1      48.621   7.917  15.146  0.00  0.00    +0.000 A 
ATOM      5  C   UNL     1      48.376   6.660  14.599  0.00  0.00    +0.000 A 
ATOM      6  N   UNL     1      48.372   5.531  15.355  0.00  0.00    +0.000 NA
ENDROOT
BRANCH   1   7
ATOM      7  C   UNL     1      48.539   4.388  17.509  0.00  0.00    +0.000 C 
BRANCH   7   8
ATOM      8  C   UNL     1      47.687   3.315  16.830  0.00  0.00    +0.000 C 
BRANCH   8   9
ATOM      9  N   UNL     1      46.593   2.883  17.703  0.00  0.00    +0.000 NA
ATOM     10  H   UNL     1      46.025   2.193  17.210  0.00  0.00    +0.000 HD
ATOM     11  H   UNL     1      45.976   3.674  17.887  0.00  0.00    +0.000 HD
ENDBRANCH   8   9
ENDBRANCH   7   8
ENDBRANCH   1   7
BRANCH   5  12
ATOM     12  C   UNL     1      48.176   6.495  13.114  0.00  0.00    +0.000 C 
BRANCH  12  13
ATOM     13  N   UNL     1      46.776   6.573  12.712  0.00  0.00    +0.000 N 
ATOM     14  C   UNL     1      46.170   7.716  12.248  0.00  0.00    +0.000 A 
ATOM     15  C   UNL     1      44.918   7.381  11.786  0.00  0.00    +0.000 A 
ATOM     16  C   UNL     1      44.755   5.981  11.958  0.00  0.00    +0.000 A 
ATOM     17  C   UNL     1      43.717   5.080  11.645  0.00  0.00    +0.000 A 
ATOM     18  C   UNL     1      43.888   3.731  11.943  0.00  0.00    +0.000 A 
ATOM     19  F   UNL     1      42.913   2.865  11.631  0.00  0.00    +0.000 F 
ATOM     20  C   UNL     1      45.042   3.258  12.551  0.00  0.00    +0.000 A 
ATOM     21  C   UNL     1      46.082   4.134  12.877  0.00  0.00    +0.000 A 
ATOM     22  C   UNL     1      45.921   5.495  12.558  0.00  0.00    +0.000 A 
ENDBRANCH  12  13
ENDBRANCH   5  12
TORSDOF 5
ENDMDL
MODEL 5
REMARK VINA RESULT:    -6.023      3.304      6.637
REMARK INTER + INTRA:          -8.001
REMARK INTER:                  -7.241
REMARK INTRA:                  -0.760
REMARK UNBOUND:                -0.394
REMARK  Name = 
REMARK  5 active torsions:
REMARK  status: ('A' for Active; 'I' for Inactive)
REMARK    1  A    between atoms: N_1  and  C_2
REMARK    2  A    between atoms: C_2  and  C_3
REMARK    3  A    between atoms: C_3  and  C_4
REMARK    4  A    between atoms: C_8  and  C_9
REMARK    5  A    between atoms: C_9  and  N_10
REMARK                            x       y       z     vdW  Elec       q    Type
REMARK                         _______ _______ _______ _____ _____    ______ ____
ROOT
ATOM      1  C   UNL     1      48.931   7.715  14.061  0.00  0.00    +0.000 A 
ATOM      2  C   UNL     1      49.970   7.613  13.142  0.00  0.00    +0.000 A 
ATOM      3  C   UNL     1      49.661   7.524  11.790  0.00  0.00    +0.000 A 
ATOM      4  C   UNL     1      48.328   7.526  11.393  0.00  0.00    +0.000 A 
ATOM      5  C   UNL     1      47.334   7.586  12.368  0.00  0.00    +0.000 A 
ATOM      6  N   UNL     1      47.626   7.674  13.692  0.00  0.00    +0.000 NA
ENDROOT
BRANCH   1   7
ATOM      7  C   UNL     1      49.223   7.870  15.532  0.00  0.00    +0.000 C 
BRANCH   7   8
ATOM      8  C   UNL     1      49.228   6.521  16.252  0.00  0.00    +0.000 C 
BRANCH   8   9
ATOM      9  N   UNL     1      48.160   5.654  15.749  0.00  0.00    +0.000 NA
ATOM     10  H   UNL     1      47.645   5.264  16.540  0.00  0.00    +0.000 HD
ATOM     11  H   UNL     1      48.571   4.858  15.263  0.00  0.00    +0.000 HD
ENDBRANCH   8   9
ENDBRANCH   7   8
ENDBRANCH   1   7
BRANCH   5  12
ATOM     12  C   UNL     1      45.880   7.480  11.987  0.00  0.00    +0.000 C 
BRANCH  12  13
ATOM     13  N   UNL     1      45.358   6.121  12.093  0.00  0.00    +0.000 N 
ATOM     14  C   UNL     1      44.758   5.613  13.221  0.00  0.00    +0.000 A 
ATOM     15  C   UNL     1      44.221   4.386  12.904  0.00  0.00    +0.000 A 
ATOM     16  C   UNL     1      44.486   4.139  11.532  0.00  0.00    +0.000 A 
ATOM     17  C   UNL     1      44.157   3.086  10.654  0.00  0.00    +0.000 A 
ATOM     18  C   UNL     1      44.571   3.165   9.327  0.00  0.00    +0.000 A 
ATOM     19  F   UNL     1      44.246   2.176   8.482  0.00  0.00    +0.000 F 
ATOM     20  C   UNL     1      45.308   4.242   8.855  0.00  0.00    +0.000 A 
ATOM     21  C   UNL     1      45.651   5.295   9.708  0.00  0.00    +0.000 A 
ATOM     22  C   UNL     1      45.216   5.228  11.044  0.00  0.00    +0.000 A 
ENDBRANCH  12  13
ENDBRANCH   5  12
TORSDOF 5
ENDMDL
MODEL 6
REMARK VINA RESULT:    -5.930      1.948      3.286
REMARK INTER + INTRA:          -7.884
REMARK INTER:                  -7.392
REMARK INTRA:                  -0.491
REMARK UNBOUND:                -0.394
REMARK  Name = 
REMARK  5 active torsions:
REMARK  status: ('A' for Active; 'I' for Inactive)
REMARK    1  A    between atoms: N_1  and  C_2
REMARK    2  A    between atoms: C_2  and  C_3
REMARK    3  A    between atoms: C_3  and  C_4
REMARK    4  A    between atoms: C_8  and  C_9
REMARK    5  A    between atoms: C_9  and  N_10
REMARK                            x       y       z     vdW  Elec       q    Type
REMARK                         _______ _______ _______ _____ _____    ______ ____
ROOT
ATOM      1  C   UNL     1      44.651   4.024  10.265  0.00  0.00    +0.000 A 
ATOM      2  C   UNL     1      43.725   3.173  10.858  0.00  0.00    +0.000 A 
ATOM      3  C   UNL     1      43.594   3.186  12.242  0.00  0.00    +0.000 A 
ATOM      4  C   UNL     1      44.398   4.036  12.995  0.00  0.00    +0.000 A 
ATOM      5  C   UNL     1      45.337   4.831  12.342  0.00  0.00    +0.000 A 
ATOM      6  N   UNL     1      45.472   4.826  10.990  0.00  0.00    +0.000 NA
ENDROOT
BRANCH   1   7
ATOM      7  C   UNL     1      44.785   4.083   8.765  0.00  0.00    +0.000 C 
BRANCH   7   8
ATOM      8  C   UNL     1      46.096   4.744   8.340  0.00  0.00    +0.000 C 
BRANCH   8   9
ATOM      9  N   UNL     1      46.556   4.219   7.053  0.00  0.00    +0.000 NA
ATOM     10  H   UNL     1      46.116   3.313   6.884  0.00  0.00    +0.000 HD
ATOM     11  H   UNL     1      47.558   4.037   7.100  0.00  0.00    +0.000 HD
ENDBRANCH   8   9
ENDBRANCH   7   8
ENDBRANCH   1   7
BRANCH   5  12
ATOM     12  C   UNL     1      46.301   5.682  13.128  0.00  0.00    +0.000 C 
BRANCH  12  13
ATOM     13  N   UNL     1      46.334   7.071  12.682  0.00  0.00    +0.000 N 
ATOM     14  C   UNL     1      45.277   7.942  12.800  0.00  0.00    +0.000 A 
ATOM     15  C   UNL     1      45.719   9.201  12.460  0.00  0.00    +0.000 A 
ATOM     16  C   UNL     1      47.099   9.101  12.138  0.00  0.00    +0.000 A 
ATOM     17  C   UNL     1      48.077  10.043  11.760  0.00  0.00    +0.000 A 
ATOM     18  C   UNL     1      49.376   9.603  11.523  0.00  0.00    +0.000 A 
ATOM     19  F   UNL     1      50.316  10.496  11.182  0.00  0.00    +0.000 F 
ATOM     20  C   UNL     1      49.725   8.265  11.636  0.00  0.00    +0.000 A 
ATOM     21  C   UNL     1      48.771   7.311  12.004  0.00  0.00    +0.000 A 
ATOM     22  C   UNL     1      47.462   7.756  12.263  0.00  0.00    +0.000 A 
ENDBRANCH  12  13
ENDBRANCH   5  12
TORSDOF 5
ENDMDL
MODEL 7
REMARK VINA RESULT:    -5.536      2.359      4.013
REMARK INTER + INTRA:          -7.386
REMARK INTER:                  -6.945
REMARK INTRA:                  -0.440
REMARK UNBOUND:                -0.394
REMARK  Name = 
REMARK  5 active torsions:
REMARK  status: ('A' for Active; 'I' for Inactive)
REMARK    1  A    between atoms: N_1  and  C_2
REMARK    2  A    between atoms: C_2  and  C_3
REMARK    3  A    between atoms: C_3  and  C_4
REMARK    4  A    between atoms: C_8  and  C_9
REMARK    5  A    between atoms: C_9  and  N_10
REMARK                            x       y       z     vdW  Elec       q    Type
REMARK                         _______ _______ _______ _____ _____    ______ ____
ROOT
ATOM      1  C   UNL     1      44.233   4.395  10.345  0.00  0.00    +0.000 A 
ATOM      2  C   UNL     1      43.092   5.006  10.854  0.00  0.00    +0.000 A 
ATOM      3  C   UNL     1      43.008   5.231  12.224  0.00  0.00    +0.000 A 
ATOM      4  C   UNL     1      44.056   4.829  13.047  0.00  0.00    +0.000 A 
ATOM      5  C   UNL     1      45.150   4.183  12.478  0.00  0.00    +0.000 A 
ATOM      6  N   UNL     1      45.243   3.960  11.141  0.00  0.00    +0.000 NA
ENDROOT
BRANCH   1   7
ATOM      7  C   UNL     1      44.389   4.184   8.861  0.00  0.00    +0.000 C 
BRANCH   7   8
ATOM      8  C   UNL     1      45.341   3.028   8.552  0.00  0.00    +0.000 C 
BRANCH   8   9
ATOM      9  N   UNL     1      46.213   3.355   7.422  0.00  0.00    +0.000 NA
ATOM     10  H   UNL     1      45.788   4.106   6.877  0.00  0.00    +0.000 HD
ATOM     11  H   UNL     1      46.269   2.553   6.795  0.00  0.00    +0.000 HD
ENDBRANCH   8   9
ENDBRANCH   7   8
ENDBRANCH   1   7
BRANCH   5  12
ATOM     12  C   UNL     1      46.254   3.635  13.346  0.00  0.00    +0.000 C 
BRANCH  12  13
ATOM     13  N   UNL     1      47.153   4.668  13.849  0.00  0.00    +0.000 N 
ATOM     14  C   UNL     1      47.563   5.756  13.114  0.00  0.00    +0.000 A 
ATOM     15  C   UNL     1      48.239   6.610  13.955  0.00  0.00    +0.000 A 
ATOM     16  C   UNL     1      48.231   6.036  15.253  0.00  0.00    +0.000 A 
ATOM     17  C   UNL     1      48.724   6.458  16.504  0.00  0.00    +0.000 A 
ATOM     18  C   UNL     1      48.531   5.639  17.613  0.00  0.00    +0.000 A 
ATOM     19  F   UNL     1      48.982   6.042  18.810  0.00  0.00    +0.000 F 
ATOM     20  C   UNL     1      47.881   4.417  17.513  0.00  0.00    +0.000 A 
ATOM     21  C   UNL     1      47.387   3.974  16.282  0.00  0.00    +0.000 A 
ATOM     22  C   UNL     1      47.563   4.810  15.164  0.00  0.00    +0.000 A 
ENDBRANCH  12  13
ENDBRANCH   5  12
TORSDOF 5
ENDMDL
MODEL 8
REMARK VINA RESULT:    -5.500      2.263      4.279
REMARK INTER + INTRA:          -7.341
REMARK INTER:                  -6.562
REMARK INTRA:                  -0.779
REMARK UNBOUND:                -0.394
REMARK  Name = 
REMARK  5 active torsions:
REMARK  status: ('A' for Active; 'I' for Inactive)
REMARK    1  A    between atoms: N_1  and  C_2
REMARK    2  A    between atoms: C_2  and  C_3
REMARK    3  A    between atoms: C_3  and  C_4
REMARK    4  A    between atoms: C_8  and  C_9
REMARK    5  A    between atoms: C_9  and  N_10
REMARK                            x       y       z     vdW  Elec       q    Type
REMARK                         _______ _______ _______ _____ _____    ______ ____
ROOT
ATOM      1  C   UNL     1      44.785   4.486  11.316  0.00  0.00    +0.000 A 
ATOM      2  C   UNL     1      45.232   3.352  11.986  0.00  0.00    +0.000 A 
ATOM      3  C   UNL     1      46.068   3.510  13.085  0.00  0.00    +0.000 A 
ATOM      4  C   UNL     1      46.446   4.791  13.477  0.00  0.00    +0.000 A 
ATOM      5  C   UNL     1      45.998   5.882  12.736  0.00  0.00    +0.000 A 
ATOM      6  N   UNL     1      45.180   5.738  11.661  0.00  0.00    +0.000 NA
ENDROOT
BRANCH   1   7
ATOM      7  C   UNL     1      43.833   4.363  10.155  0.00  0.00    +0.000 C 
BRANCH   7   8
ATOM      8  C   UNL     1      44.575   4.137   8.837  0.00  0.00    +0.000 C 
BRANCH   8   9
ATOM      9  N   UNL     1      45.617   5.146   8.643  0.00  0.00    +0.000 NA
ATOM     10  H   UNL     1      45.755   5.297   7.643  0.00  0.00    +0.000 HD
ATOM     11  H   UNL     1      46.504   4.788   8.996  0.00  0.00    +0.000 HD
ENDBRANCH   8   9
ENDBRANCH   7   8
ENDBRANCH   1   7
BRANCH   5  12
ATOM     12  C   UNL     1      46.472   7.275  13.061  0.00  0.00    +0.000 C 
BRANCH  12  13
ATOM     13  N   UNL     1      47.903   7.459  12.842  0.00  0.00    +0.000 N 
ATOM     14  C   UNL     1      48.460   7.775  11.626  0.00  0.00    +0.000 A 
ATOM     15  C   UNL     1      49.792   8.059  11.826  0.00  0.00    +0.000 A 
ATOM     16  C   UNL     1      50.057   7.930  13.214  0.00  0.00    +0.000 A 
ATOM     17  C   UNL     1      51.208   8.126  14.005  0.00  0.00    +0.000 A 
ATOM     18  C   UNL     1      51.122   7.920  15.378  0.00  0.00    +0.000 A 
ATOM     19  F   UNL     1      52.207   8.123  16.139  0.00  0.00    +0.000 F 
ATOM     20  C   UNL     1      49.940   7.513  15.983  0.00  0.00    +0.000 A 
ATOM     21  C   UNL     1      48.788   7.306  15.219  0.00  0.00    +0.000 A 
ATOM     22  C   UNL     1      48.867   7.534  13.833  0.00  0.00    +0.000 A 
ENDBRANCH  12  13
ENDBRANCH   5  12
TORSDOF 5
ENDMDL
MODEL 9
REMARK VINA RESULT:    -5.311      3.611      5.062
REMARK INTER + INTRA:          -7.102
REMARK INTER:                  -6.806
REMARK INTRA:                  -0.296
REMARK UNBOUND:                -0.394
REMARK  Name = 
REMARK  5 active torsions:
REMARK  status: ('A' for Active; 'I' for Inactive)
REMARK    1  A    between atoms: N_1  and  C_2
REMARK    2  A    between atoms: C_2  and  C_3
REMARK    3  A    between atoms: C_3  and  C_4
REMARK    4  A    between atoms: C_8  and  C_9
REMARK    5  A    between atoms: C_9  and  N_10
REMARK                            x       y       z     vdW  Elec       q    Type
REMARK                         _______ _______ _______ _____ _____    ______ ____
ROOT
ATOM      1  C   UNL     1      44.778   4.814  11.887  0.00  0.00    +0.000 A 
ATOM      2  C   UNL     1      45.116   3.475  12.049  0.00  0.00    +0.000 A 
ATOM      3  C   UNL     1      46.153   3.147  12.914  0.00  0.00    +0.000 A 
ATOM      4  C   UNL     1      46.832   4.162  13.582  0.00  0.00    +0.000 A 
ATOM      5  C   UNL     1      46.471   5.485  13.341  0.00  0.00    +0.000 A 
ATOM      6  N   UNL     1      45.459   5.817  12.499  0.00  0.00    +0.000 NA
ENDROOT
BRANCH   1   7
ATOM      7  C   UNL     1      43.623   5.209  11.003  0.00  0.00    +0.000 C 
BRANCH   7   8
ATOM      8  C   UNL     1      42.387   5.584  11.821  0.00  0.00    +0.000 C 
BRANCH   8   9
ATOM      9  N   UNL     1      42.637   5.417  13.254  0.00  0.00    +0.000 NA
ATOM     10  H   UNL     1      43.266   6.155  13.573  0.00  0.00    +0.000 HD
ATOM     11  H   UNL     1      43.133   4.540  13.411  0.00  0.00    +0.000 HD
ENDBRANCH   8   9
ENDBRANCH   7   8
ENDBRANCH   1   7
BRANCH   5  12
ATOM     12  C   UNL     1      47.252   6.617  13.959  0.00  0.00    +0.000 C 
BRANCH  12  13
ATOM     13  N   UNL     1      47.329   7.795  13.102  0.00  0.00    +0.000 N 
ATOM     14  C   UNL     1      46.334   8.738  12.998  0.00  0.00    +0.000 A 
ATOM     15  C   UNL     1      46.820   9.794  12.260  0.00  0.00    +0.000 A 
ATOM     16  C   UNL     1      48.164   9.496  11.913  0.00  0.00    +0.000 A 
ATOM     17  C   UNL     1      49.163  10.200  11.210  0.00  0.00    +0.000 A 
ATOM     18  C   UNL     1      50.414   9.612  11.055  0.00  0.00    +0.000 A 
ATOM     19  F   UNL     1      51.375  10.283  10.403  0.00  0.00    +0.000 F 
ATOM     20  C   UNL     1      50.696   8.350  11.560  0.00  0.00    +0.000 A 
ATOM     21  C   UNL     1      49.720   7.631  12.256  0.00  0.00    +0.000 A 
ATOM     22  C   UNL     1      48.460   8.231  12.432  0.00  0.00    +0.000 A 
ENDBRANCH  12  13
ENDBRANCH   5  12
TORSDOF 5
ENDMDL
