MODEL 1
REMARK VINA RESULT:    -7.295      0.000      0.000
REMARK INTER + INTRA:          -9.742
REMARK INTER:                  -9.214
REMARK INTRA:                  -0.528
REMARK UNBOUND:                -0.528
REMARK  Name = 
REMARK  5 active torsions:
REMARK  status: ('A' for Active; 'I' for Inactive)
REMARK    1  A    between atoms: N_1  and  C_2
REMARK    2  A    between atoms: C_2  and  C_3
REMARK    3  A    between atoms: C_6  and  C_7
REMARK    4  A    between atoms: C_7  and  N_8
REMARK    5  A    between atoms: C_13  and  C_14
REMARK                            x       y       z     vdW  Elec       q    Type
REMARK                         _______ _______ _______ _____ _____    ______ ____
ROOT
ATOM      1  N   UNL     1      44.428   4.778  10.343  0.00  0.00    +0.000 N 
ATOM      2  C   UNL     1      43.697   3.745  10.869  0.00  0.00    +0.000 A 
ATOM      3  N   UNL     1      44.000   2.590  10.317  0.00  0.00    +0.000 NA
ATOM      4  C   UNL     1      44.932   2.897   9.358  0.00  0.00    +0.000 A 
ATOM      5  C   UNL     1      45.599   2.072   8.445  0.00  0.00    +0.000 A 
ATOM      6  C   UNL     1      46.465   2.696   7.538  0.00  0.00    +0.000 A 
ATOM      7  C   UNL     1      46.638   4.082   7.620  0.00  0.00    +0.000 A 
ATOM      8  N   UNL     1      46.037   4.920   8.511  0.00  0.00    +0.000 NA
ATOM      9  C   UNL     1      45.199   4.261   9.336  0.00  0.00    +0.000 A 
ENDROOT
BRANCH   6  10
ATOM     10  C   UNL     1      47.186   1.958   6.475  0.00  0.00    +0.000 C 
ATOM     11  N   UNL     1      47.914   2.668   5.561  0.00  0.00    +0.000 N 
ATOM     12  O   UNL     1      47.147   0.733   6.416  0.00  0.00    +0.000 OA
ATOM     13  H   UNL     1      48.020   3.671   5.548  0.00  0.00    +0.000 HD
ATOM     14  H   UNL     1      48.422   2.136   4.866  0.00  0.00    +0.000 HD
ENDBRANCH   6  10
BRANCH   1  15
ATOM     15  C   UNL     1      44.404   6.157  10.791  0.00  0.00    +0.000 C 
BRANCH  15  19
ATOM     16  C   UNL     1      47.384   8.226  12.186  0.00  0.00    +0.000 C 
ATOM     17  C   UNL     1      47.479   6.775  11.685  0.00  0.00    +0.000 C 
ATOM     18  C   UNL     1      46.448   5.844  12.322  0.00  0.00    +0.000 C 
ATOM     19  C   UNL     1      45.000   6.353  12.203  0.00  0.00    +0.000 C 
ATOM     20  C   UNL     1      44.898   7.817  12.664  0.00  0.00    +0.000 C 
ATOM     21  C   UNL     1      45.941   8.736  12.027  0.00  0.00    +0.000 C 
BRANCH  16  22
ATOM     22  C   UNL     1      47.889   8.417  13.633  0.00  0.00    +0.000 C 
BRANCH  22  23
ATOM     23  N   UNL     1      47.816   9.811  14.060  0.00  0.00    +0.000 NA
ATOM     24  H   UNL     1      48.527  10.355  13.570  0.00  0.00    +0.000 HD
ATOM     25  H   UNL     1      48.049   9.877  15.052  0.00  0.00    +0.000 HD
ENDBRANCH  22  23
ENDBRANCH  16  22
ENDBRANCH  15  19
ENDBRANCH   1  15
TORSDOF 5
ENDMDL
MODEL 2
REMARK VINA RESULT:    -6.796      2.663      6.832
REMARK INTER + INTRA:          -9.112
REMARK INTER:                  -8.659
REMARK INTRA:                  -0.454
REMARK UNBOUND:                -0.528
REMARK  Name = 
REMARK  5 active torsions:
REMARK  status: ('A' for Active; 'I' for Inactive)
REMARK    1  A    between atoms: N_1  and  C_2
REMARK    2  A    between atoms: C_2  and  C_3
REMARK    3  A    between atoms: C_6  and  C_7
REMARK    4  A    between atoms: C_7  and  N_8
REMARK    5  A    between atoms: C_13  and  C_14
REMARK                            x       y       z     vdW  Elec       q    Type
REMARK                         _______ _______ _______ _____ _____    ______ ____
ROOT
ATOM      1  N   UNL     1      44.330   4.235  10.912  0.00  0.00    +0.000 N 
ATOM      2  C   UNL     1      43.002   4.557  11.003  0.00  0.00    +0.000 A 
ATOM      3  N   UNL     1      42.817   5.789  11.425  0.00  0.00    +0.000 NA
ATOM      4  C   UNL     1      44.079   6.268  11.665  0.00  0.00    +0.000 A 
ATOM      5  C   UNL     1      44.501   7.513  12.144  0.00  0.00    +0.000 A 
ATOM      6  C   UNL     1      45.877   7.687  12.341  0.00  0.00    +0.000 A 
ATOM      7  C   UNL     1      46.740   6.634  12.016  0.00  0.00    +0.000 A 
ATOM      8  N   UNL     1      46.380   5.419  11.516  0.00  0.00    +0.000 NA
ATOM      9  C   UNL     1      45.043   5.308  11.377  0.00  0.00    +0.000 A 
ENDROOT
BRANCH   6  10
ATOM     10  C   UNL     1      46.461   8.927  12.904  0.00  0.00    +0.000 C 
ATOM     11  N   UNL     1      46.855   8.932  14.213  0.00  0.00    +0.000 N 
ATOM     12  O   UNL     1      46.601   9.931  12.213  0.00  0.00    +0.000 OA
ATOM     13  H   UNL     1      46.798   8.148  14.845  0.00  0.00    +0.000 HD
ATOM     14  H   UNL     1      47.280   9.782  14.561  0.00  0.00    +0.000 HD
ENDBRANCH   6  10
BRANCH   1  15
ATOM     15  C   UNL     1      44.876   2.994  10.396  0.00  0.00    +0.000 C 
BRANCH  15  19
ATOM     16  C   UNL     1      47.144   2.917   7.241  0.00  0.00    +0.000 C 
ATOM     17  C   UNL     1      46.470   4.178   7.808  0.00  0.00    +0.000 C 
ATOM     18  C   UNL     1      44.967   4.013   8.035  0.00  0.00    +0.000 C 
ATOM     19  C   UNL     1      44.603   2.785   8.889  0.00  0.00    +0.000 C 
ATOM     20  C   UNL     1      45.303   1.524   8.356  0.00  0.00    +0.000 C 
ATOM     21  C   UNL     1      46.803   1.705   8.124  0.00  0.00    +0.000 C 
BRANCH  16  22
ATOM     22  C   UNL     1      46.802   2.645   5.760  0.00  0.00    +0.000 C 
BRANCH  22  23
ATOM     23  N   UNL     1      48.000   2.498   4.938  0.00  0.00    +0.000 NA
ATOM     24  H   UNL     1      48.579   3.333   5.028  0.00  0.00    +0.000 HD
ATOM     25  H   UNL     1      47.735   2.449   3.952  0.00  0.00    +0.000 HD
ENDBRANCH  22  23
ENDBRANCH  16  22
ENDBRANCH  15  19
ENDBRANCH   1  15
TORSDOF 5
ENDMDL
MODEL 3
REMARK VINA RESULT:    -5.946      4.915      8.379
REMARK INTER + INTRA:          -8.038
REMARK INTER:                  -7.604
REMARK INTRA:                  -0.435
REMARK UNBOUND:                -0.528
REMARK  Name = 
REMARK  5 active torsions:
REMARK  status: ('A' for Active; 'I' for Inactive)
REMARK    1  A    between atoms: N_1  and  C_2
REMARK    2  A    between atoms: C_2  and  C_3
REMARK    3  A    between atoms: C_6  and  C_7
REMARK    4  A    between atoms: C_7  and  N_8
REMARK    5  A    between atoms: C_13  and  C_14
REMARK                            x       y       z     vdW  Elec       q    Type
REMARK                         _______ _______ _______ _____ _____    ______ ____
ROOT
ATOM      1  N   UNL     1      48.131   6.544  14.295  0.00  0.00    +0.000 N 
ATOM      2  C   UNL     1      48.556   7.827  14.519  0.00  0.00    +0.000 A 
ATOM      3  N   UNL     1      49.058   7.980  15.725  0.00  0.00    +0.000 NA
ATOM      4  C   UNL     1      48.905   6.756  16.324  0.00  0.00    +0.000 A 
ATOM      5  C   UNL     1      49.240   6.330  17.614  0.00  0.00    +0.000 A 
ATOM      6  C   UNL     1      48.902   5.014  17.958  0.00  0.00    +0.000 A 
ATOM      7  C   UNL     1      48.293   4.204  16.993  0.00  0.00    +0.000 A 
ATOM      8  N   UNL     1      47.978   4.564  15.717  0.00  0.00    +0.000 NA
ATOM      9  C   UNL     1      48.305   5.846  15.461  0.00  0.00    +0.000 A 
ENDROOT
BRANCH   6  10
ATOM     10  C   UNL     1      49.136   4.448  19.307  0.00  0.00    +0.000 C 
ATOM     11  N   UNL     1      48.424   3.345  19.689  0.00  0.00    +0.000 N 
ATOM     12  O   UNL     1      49.959   4.946  20.068  0.00  0.00    +0.000 OA
ATOM     13  H   UNL     1      47.747   2.859  19.120  0.00  0.00    +0.000 HD
ATOM     14  H   UNL     1      48.629   2.961  20.602  0.00  0.00    +0.000 HD
ENDBRANCH   6  10
BRANCH   1  15
ATOM     15  C   UNL     1      47.615   6.020  13.045  0.00  0.00    +0.000 C 
BRANCH  15  19
ATOM     16  C   UNL     1      44.970   4.161  10.888  0.00  0.00    +0.000 C 
ATOM     17  C   UNL     1      45.677   5.464  10.480  0.00  0.00    +0.000 C 
ATOM     18  C   UNL     1      45.595   6.558  11.545  0.00  0.00    +0.000 C 
ATOM     19  C   UNL     1      46.075   6.105  12.935  0.00  0.00    +0.000 C 
ATOM     20  C   UNL     1      45.404   4.780  13.338  0.00  0.00    +0.000 C 
ATOM     21  C   UNL     1      45.485   3.698  12.261  0.00  0.00    +0.000 C 
BRANCH  16  22
ATOM     22  C   UNL     1      43.429   4.262  10.874  0.00  0.00    +0.000 C 
BRANCH  22  23
ATOM     23  N   UNL     1      42.797   3.090  11.471  0.00  0.00    +0.000 NA
ATOM     24  H   UNL     1      41.834   3.017  11.141  0.00  0.00    +0.000 HD
ATOM     25  H   UNL     1      42.735   3.213  12.484  0.00  0.00    +0.000 HD
ENDBRANCH  22  23
ENDBRANCH  16  22
ENDBRANCH  15  19
ENDBRANCH   1  15
TORSDOF 5
ENDMDL
MODEL 4
REMARK VINA RESULT:    -5.750      4.725      6.370
REMARK INTER + INTRA:          -7.791
REMARK INTER:                  -7.443
REMARK INTRA:                  -0.348
REMARK UNBOUND:                -0.528
REMARK  Name = 
REMARK  5 active torsions:
REMARK  status: ('A' for Active; 'I' for Inactive)
REMARK    1  A    between atoms: N_1  and  C_2
REMARK    2  A    between atoms: C_2  and  C_3
REMARK    3  A    between atoms: C_6  and  C_7
REMARK    4  A    between atoms: C_7  and  N_8
REMARK    5  A    between atoms: C_13  and  C_14
REMARK                            x       y       z     vdW  Elec       q    Type
REMARK                         _______ _______ _______ _____ _____    ______ ____
ROOT
ATOM      1  N   UNL     1      47.498   5.410  14.647  0.00  0.00    +0.000 N 
ATOM      2  C   UNL     1      48.081   6.567  14.202  0.00  0.00    +0.000 A 
ATOM      3  N   UNL     1      47.629   6.929  13.020  0.00  0.00    +0.000 NA
ATOM      4  C   UNL     1      46.753   5.936  12.664  0.00  0.00    +0.000 A 
ATOM      5  C   UNL     1      45.987   5.775  11.504  0.00  0.00    +0.000 A 
ATOM      6  C   UNL     1      45.218   4.608  11.404  0.00  0.00    +0.000 A 
ATOM      7  C   UNL     1      45.232   3.703  12.470  0.00  0.00    +0.000 A 
ATOM      8  N   UNL     1      45.934   3.831  13.632  0.00  0.00    +0.000 NA
ATOM      9  C   UNL     1      46.672   4.960  13.651  0.00  0.00    +0.000 A 
ENDROOT
BRANCH   6  10
ATOM     10  C   UNL     1      44.411   4.275  10.208  0.00  0.00    +0.000 C 
ATOM     11  N   UNL     1      44.797   4.773   8.995  0.00  0.00    +0.000 N 
ATOM     12  O   UNL     1      43.420   3.556  10.293  0.00  0.00    +0.000 OA
ATOM     13  H   UNL     1      45.608   5.350   8.830  0.00  0.00    +0.000 HD
ATOM     14  H   UNL     1      44.245   4.501   8.191  0.00  0.00    +0.000 HD
ENDBRANCH   6  10
BRANCH   1  15
ATOM     15  C   UNL     1      47.704   4.792  15.942  0.00  0.00    +0.000 C 
BRANCH  15  19
ATOM     16  C   UNL     1      48.596   4.786  19.725  0.00  0.00    +0.000 C 
ATOM     17  C   UNL     1      47.638   5.781  19.050  0.00  0.00    +0.000 C 
ATOM     18  C   UNL     1      48.238   6.466  17.822  0.00  0.00    +0.000 C 
ATOM     19  C   UNL     1      48.804   5.482  16.781  0.00  0.00    +0.000 C 
ATOM     20  C   UNL     1      49.734   4.456  17.451  0.00  0.00    +0.000 C 
ATOM     21  C   UNL     1      49.125   3.786  18.683  0.00  0.00    +0.000 C 
BRANCH  16  22
ATOM     22  C   UNL     1      49.755   5.464  20.489  0.00  0.00    +0.000 C 
BRANCH  22  23
ATOM     23  N   UNL     1      50.722   4.493  20.992  0.00  0.00    +0.000 NA
ATOM     24  H   UNL     1      51.632   4.943  21.100  0.00  0.00    +0.000 HD
ATOM     25  H   UNL     1      50.858   3.754  20.299  0.00  0.00    +0.000 HD
ENDBRANCH  22  23
ENDBRANCH  16  22
ENDBRANCH  15  19
ENDBRANCH   1  15
TORSDOF 5
ENDMDL
MODEL 5
REMARK VINA RESULT:    -5.568      4.446      6.114
REMARK INTER + INTRA:          -7.561
REMARK INTER:                  -7.142
REMARK INTRA:                  -0.419
REMARK UNBOUND:                -0.528
REMARK  Name = 
REMARK  5 active torsions:
REMARK  status: ('A' for Active; 'I' for Inactive)
REMARK    1  A    between atoms: N_1  and  C_2
REMARK    2  A    between atoms: C_2  and  C_3
REMARK    3  A    between atoms: C_6  and  C_7
REMARK    4  A    between atoms: C_7  and  N_8
REMARK    5  A    between atoms: C_13  and  C_14
REMARK                            x       y       z     vdW  Elec       q    Type
REMARK                         _______ _______ _______ _____ _____    ______ ____
ROOT
ATOM      1  N   UNL     1      47.785   6.314  14.075  0.00  0.00    +0.000 N 
ATOM      2  C   UNL     1      47.497   7.526  13.504  0.00  0.00    +0.000 A 
ATOM      3  N   UNL     1      46.536   7.437  12.610  0.00  0.00    +0.000 NA
ATOM      4  C   UNL     1      46.224   6.103  12.565  0.00  0.00    +0.000 A 
ATOM      5  C   UNL     1      45.289   5.416  11.783  0.00  0.00    +0.000 A 
ATOM      6  C   UNL     1      45.241   4.023  11.923  0.00  0.00    +0.000 A 
ATOM      7  C   UNL     1      46.092   3.413  12.850  0.00  0.00    +0.000 A 
ATOM      8  N   UNL     1      46.994   4.041  13.656  0.00  0.00    +0.000 NA
ATOM      9  C   UNL     1      47.008   5.374  13.452  0.00  0.00    +0.000 A 
ENDROOT
BRANCH   6  10
ATOM     10  C   UNL     1      44.348   3.162  11.114  0.00  0.00    +0.000 C 
ATOM     11  N   UNL     1      44.888   2.435  10.090  0.00  0.00    +0.000 N 
ATOM     12  O   UNL     1      43.147   3.088  11.358  0.00  0.00    +0.000 OA
ATOM     13  H   UNL     1      45.863   2.418   9.834  0.00  0.00    +0.000 HD
ATOM     14  H   UNL     1      44.259   1.831   9.575  0.00  0.00    +0.000 HD
ENDBRANCH   6  10
BRANCH   1  15
ATOM     15  C   UNL     1      48.724   6.079  15.155  0.00  0.00    +0.000 C 
BRANCH  15  19
ATOM     16  C   UNL     1      49.780   4.630  18.604  0.00  0.00    +0.000 C 
ATOM     17  C   UNL     1      48.984   3.863  17.535  0.00  0.00    +0.000 C 
ATOM     18  C   UNL     1      47.751   4.618  17.037  0.00  0.00    +0.000 C 
ATOM     19  C   UNL     1      48.058   6.046  16.549  0.00  0.00    +0.000 C 
ATOM     20  C   UNL     1      48.888   6.812  17.593  0.00  0.00    +0.000 C 
ATOM     21  C   UNL     1      50.112   6.041  18.090  0.00  0.00    +0.000 C 
BRANCH  16  22
ATOM     22  C   UNL     1      49.078   4.685  19.978  0.00  0.00    +0.000 C 
BRANCH  22  23
ATOM     23  N   UNL     1      48.447   3.415  20.324  0.00  0.00    +0.000 NA
ATOM     24  H   UNL     1      48.995   2.647  19.936  0.00  0.00    +0.000 HD
ATOM     25  H   UNL     1      47.530   3.356  19.877  0.00  0.00    +0.000 HD
ENDBRANCH  22  23
ENDBRANCH  16  22
ENDBRANCH  15  19
ENDBRANCH   1  15
TORSDOF 5
ENDMDL
MODEL 6
REMARK VINA RESULT:    -5.151      3.627      7.429
REMARK INTER + INTRA:          -7.035
REMARK INTER:                  -6.737
REMARK INTRA:                  -0.297
REMARK UNBOUND:                -0.528
REMARK  Name = 
REMARK  5 active torsions:
REMARK  status: ('A' for Active; 'I' for Inactive)
REMARK    1  A    between atoms: N_1  and  C_2
REMARK    2  A    between atoms: C_2  and  C_3
REMARK    3  A    between atoms: C_6  and  C_7
REMARK    4  A    between atoms: C_7  and  N_8
REMARK    5  A    between atoms: C_13  and  C_14
REMARK                            x       y       z     vdW  Elec       q    Type
REMARK                         _______ _______ _______ _____ _____    ______ ____
ROOT
ATOM      1  N   UNL     1      46.002   7.454  12.957  0.00  0.00    +0.000 N 
ATOM      2  C   UNL     1      45.571   8.685  12.538  0.00  0.00    +0.000 A 
ATOM      3  N   UNL     1      46.523   9.590  12.595  0.00  0.00    +0.000 NA
ATOM      4  C   UNL     1      47.603   8.928  13.121  0.00  0.00    +0.000 A 
ATOM      5  C   UNL     1      48.889   9.387  13.425  0.00  0.00    +0.000 A 
ATOM      6  C   UNL     1      49.770   8.472  14.015  0.00  0.00    +0.000 A 
ATOM      7  C   UNL     1      49.331   7.161  14.228  0.00  0.00    +0.000 A 
ATOM      8  N   UNL     1      48.102   6.659  13.919  0.00  0.00    +0.000 NA
ATOM      9  C   UNL     1      47.297   7.596  13.380  0.00  0.00    +0.000 A 
ENDROOT
BRANCH   6  10
ATOM     10  C   UNL     1      51.139   8.835  14.450  0.00  0.00    +0.000 C 
ATOM     11  N   UNL     1      52.122   7.888  14.383  0.00  0.00    +0.000 N 
ATOM     12  O   UNL     1      51.396   9.966  14.853  0.00  0.00    +0.000 OA
ATOM     13  H   UNL     1      52.005   6.946  14.044  0.00  0.00    +0.000 HD
ATOM     14  H   UNL     1      53.054   8.175  14.656  0.00  0.00    +0.000 HD
ENDBRANCH   6  10
BRANCH   1  15
ATOM     15  C   UNL     1      45.233   6.225  12.933  0.00  0.00    +0.000 C 
BRANCH  15  19
ATOM     16  C   UNL     1      43.702   3.393  10.755  0.00  0.00    +0.000 C 
ATOM     17  C   UNL     1      44.127   3.239  12.225  0.00  0.00    +0.000 C 
ATOM     18  C   UNL     1      45.555   3.709  12.498  0.00  0.00    +0.000 C 
ATOM     19  C   UNL     1      45.837   5.142  12.010  0.00  0.00    +0.000 C 
ATOM     20  C   UNL     1      45.380   5.321  10.552  0.00  0.00    +0.000 C 
ATOM     21  C   UNL     1      43.953   4.837  10.292  0.00  0.00    +0.000 C 
BRANCH  16  22
ATOM     22  C   UNL     1      44.373   2.376   9.807  0.00  0.00    +0.000 C 
BRANCH  22  23
ATOM     23  N   UNL     1      44.325   2.810   8.414  0.00  0.00    +0.000 NA
ATOM     24  H   UNL     1      44.808   3.704   8.320  0.00  0.00    +0.000 HD
ATOM     25  H   UNL     1      43.355   2.987   8.144  0.00  0.00    +0.000 HD
ENDBRANCH  22  23
ENDBRANCH  16  22
ENDBRANCH  15  19
ENDBRANCH   1  15
TORSDOF 5
ENDMDL
MODEL 7
REMARK VINA RESULT:    -4.908      3.387      7.161
REMARK INTER + INTRA:          -6.727
REMARK INTER:                  -6.664
REMARK INTRA:                  -0.063
REMARK UNBOUND:                -0.528
REMARK  Name = 
REMARK  5 active torsions:
REMARK  status: ('A' for Active; 'I' for Inactive)
REMARK    1  A    between atoms: N_1  and  C_2
REMARK    2  A    between atoms: C_2  and  C_3
REMARK    3  A    between atoms: C_6  and  C_7
REMARK    4  A    between atoms: C_7  and  N_8
REMARK    5  A    between atoms: C_13  and  C_14
REMARK                            x       y       z     vdW  Elec       q    Type
REMARK                         _______ _______ _______ _____ _____    ______ ____
ROOT
ATOM      1  N   UNL     1      44.592   7.289  11.597  0.00  0.00    +0.000 N 
ATOM      2  C   UNL     1      43.962   8.398  11.096  0.00  0.00    +0.000 A 
ATOM      3  N   UNL     1      44.669   9.493  11.274  0.00  0.00    +0.000 NA
ATOM      4  C   UNL     1      45.780   9.082  11.964  0.00  0.00    +0.000 A 
ATOM      5  C   UNL     1      46.872   9.814  12.444  0.00  0.00    +0.000 A 
ATOM      6  C   UNL     1      47.839   9.111  13.174  0.00  0.00    +0.000 A 
ATOM      7  C   UNL     1      47.679   7.732  13.346  0.00  0.00    +0.000 A 
ATOM      8  N   UNL     1      46.652   6.972  12.871  0.00  0.00    +0.000 NA
ATOM      9  C   UNL     1      45.745   7.712  12.202  0.00  0.00    +0.000 A 
ENDROOT
BRANCH   6  10
ATOM     10  C   UNL     1      49.013   9.766  13.796  0.00  0.00    +0.000 C 
ATOM     11  N   UNL     1      50.263   9.309  13.484  0.00  0.00    +0.000 N 
ATOM     12  O   UNL     1      48.876  10.709  14.570  0.00  0.00    +0.000 OA
ATOM     13  H   UNL     1      50.469   8.557  12.844  0.00  0.00    +0.000 HD
ATOM     14  H   UNL     1      51.047   9.796  13.899  0.00  0.00    +0.000 HD
ENDBRANCH   6  10
BRANCH   1  15
ATOM     15  C   UNL     1      44.129   5.919  11.485  0.00  0.00    +0.000 C 
BRANCH  15  19
ATOM     16  C   UNL     1      44.403   2.895   9.059  0.00  0.00    +0.000 C 
ATOM     17  C   UNL     1      43.933   2.809  10.521  0.00  0.00    +0.000 C 
ATOM     18  C   UNL     1      44.899   3.464  11.509  0.00  0.00    +0.000 C 
ATOM     19  C   UNL     1      45.258   4.917  11.150  0.00  0.00    +0.000 C 
ATOM     20  C   UNL     1      45.692   5.023   9.678  0.00  0.00    +0.000 C 
ATOM     21  C   UNL     1      44.723   4.356   8.702  0.00  0.00    +0.000 C 
BRANCH  16  22
ATOM     22  C   UNL     1      45.594   1.966   8.736  0.00  0.00    +0.000 C 
BRANCH  22  23
ATOM     23  N   UNL     1      46.299   2.380   7.526  0.00  0.00    +0.000 NA
ATOM     24  H   UNL     1      47.300   2.216   7.643  0.00  0.00    +0.000 HD
ATOM     25  H   UNL     1      46.196   3.388   7.397  0.00  0.00    +0.000 HD
ENDBRANCH  22  23
ENDBRANCH  16  22
ENDBRANCH  15  19
ENDBRANCH   1  15
TORSDOF 5
ENDMDL
MODEL 8
REMARK VINA RESULT:    -4.860      3.382      5.224
REMARK INTER + INTRA:          -6.666
REMARK INTER:                  -6.277
REMARK INTRA:                  -0.389
REMARK UNBOUND:                -0.528
REMARK  Name = 
REMARK  5 active torsions:
REMARK  status: ('A' for Active; 'I' for Inactive)
REMARK    1  A    between atoms: N_1  and  C_2
REMARK    2  A    between atoms: C_2  and  C_3
REMARK    3  A    between atoms: C_6  and  C_7
REMARK    4  A    between atoms: C_7  and  N_8
REMARK    5  A    between atoms: C_13  and  C_14
REMARK                            x       y       z     vdW  Elec       q    Type
REMARK                         _______ _______ _______ _____ _____    ______ ____
ROOT
ATOM      1  N   UNL     1      47.644   5.897  14.283  0.00  0.00    +0.000 N 
ATOM      2  C   UNL     1      47.683   4.848  15.164  0.00  0.00    +0.000 A 
ATOM      3  N   UNL     1      47.018   3.803  14.722  0.00  0.00    +0.000 NA
ATOM      4  C   UNL     1      46.485   4.210  13.526  0.00  0.00    +0.000 A 
ATOM      5  C   UNL     1      45.670   3.526  12.617  0.00  0.00    +0.000 A 
ATOM      6  C   UNL     1      45.232   4.238  11.493  0.00  0.00    +0.000 A 
ATOM      7  C   UNL     1      45.658   5.560  11.329  0.00  0.00    +0.000 A 
ATOM      8  N   UNL     1      46.477   6.256  12.168  0.00  0.00    +0.000 NA
ATOM      9  C   UNL     1      46.840   5.523  13.239  0.00  0.00    +0.000 A 
ENDROOT
BRANCH   6  10
ATOM     10  C   UNL     1      44.313   3.664  10.483  0.00  0.00    +0.000 C 
ATOM     11  N   UNL     1      43.986   2.340  10.569  0.00  0.00    +0.000 N 
ATOM     12  O   UNL     1      43.841   4.360   9.588  0.00  0.00    +0.000 OA
ATOM     13  H   UNL     1      44.308   1.702  11.282  0.00  0.00    +0.000 HD
ATOM     14  H   UNL     1      43.331   1.983   9.885  0.00  0.00    +0.000 HD
ENDBRANCH   6  10
BRANCH   1  15
ATOM     15  C   UNL     1      48.346   7.158  14.423  0.00  0.00    +0.000 C 
BRANCH  15  19
ATOM     16  C   UNL     1      50.464   9.950  16.103  0.00  0.00    +0.000 C 
ATOM     17  C   UNL     1      50.941   9.066  14.939  0.00  0.00    +0.000 C 
ATOM     18  C   UNL     1      50.764   7.570  15.200  0.00  0.00    +0.000 C 
ATOM     19  C   UNL     1      49.333   7.180  15.612  0.00  0.00    +0.000 C 
ATOM     20  C   UNL     1      48.829   8.084  16.750  0.00  0.00    +0.000 C 
ATOM     21  C   UNL     1      49.021   9.577  16.480  0.00  0.00    +0.000 C 
BRANCH  16  22
ATOM     22  C   UNL     1      51.394   9.907  17.335  0.00  0.00    +0.000 C 
BRANCH  22  23
ATOM     23  N   UNL     1      50.840  10.643  18.467  0.00  0.00    +0.000 NA
ATOM     24  H   UNL     1      50.245  11.398  18.123  0.00  0.00    +0.000 HD
ATOM     25  H   UNL     1      51.596  11.098  18.983  0.00  0.00    +0.000 HD
ENDBRANCH  22  23
ENDBRANCH  16  22
ENDBRANCH  15  19
ENDBRANCH   1  15
TORSDOF 5
ENDMDL
MODEL 9
REMARK VINA RESULT:    -4.610      4.349      6.172
REMARK INTER + INTRA:          -6.350
REMARK INTER:                  -5.969
REMARK INTRA:                  -0.381
REMARK UNBOUND:                -0.528
REMARK  Name = 
REMARK  5 active torsions:
REMARK  status: ('A' for Active; 'I' for Inactive)
REMARK    1  A    between atoms: N_1  and  C_2
REMARK    2  A    between atoms: C_2  and  C_3
REMARK    3  A    between atoms: C_6  and  C_7
REMARK    4  A    between atoms: C_7  and  N_8
REMARK    5  A    between atoms: C_13  and  C_14
REMARK                            x       y       z     vdW  Elec       q    Type
REMARK                         _______ _______ _______ _____ _____    ______ ____
ROOT
ATOM      1  N   UNL     1      47.847   5.308  15.106  0.00  0.00    +0.000 N 
ATOM      2  C   UNL     1      47.791   3.988  15.469  0.00  0.00    +0.000 A 
ATOM      3  N   UNL     1      47.110   3.265  14.607  0.00  0.00    +0.000 NA
ATOM      4  C   UNL     1      46.665   4.164  13.672  0.00  0.00    +0.000 A 
ATOM      5  C   UNL     1      45.877   3.972  12.532  0.00  0.00    +0.000 A 
ATOM      6  C   UNL     1      45.536   5.112  11.794  0.00  0.00    +0.000 A 
ATOM      7  C   UNL     1      46.025   6.354  12.213  0.00  0.00    +0.000 A 
ATOM      8  N   UNL     1      46.821   6.586  13.295  0.00  0.00    +0.000 NA
ATOM      9  C   UNL     1      47.090   5.453  13.974  0.00  0.00    +0.000 A 
ENDROOT
BRANCH   6  10
ATOM     10  C   UNL     1      44.655   5.069  10.604  0.00  0.00    +0.000 C 
ATOM     11  N   UNL     1      43.389   5.576  10.704  0.00  0.00    +0.000 N 
ATOM     12  O   UNL     1      45.050   4.598   9.541  0.00  0.00    +0.000 OA
ATOM     13  H   UNL     1      42.992   6.000  11.528  0.00  0.00    +0.000 HD
ATOM     14  H   UNL     1      42.822   5.562   9.866  0.00  0.00    +0.000 HD
ENDBRANCH   6  10
BRANCH   1  15
ATOM     15  C   UNL     1      48.591   6.351  15.786  0.00  0.00    +0.000 C 
BRANCH  15  19
ATOM     16  C   UNL     1      49.768   8.291  18.941  0.00  0.00    +0.000 C 
ATOM     17  C   UNL     1      50.681   7.871  17.777  0.00  0.00    +0.000 C 
ATOM     18  C   UNL     1      50.574   6.387  17.426  0.00  0.00    +0.000 C 
ATOM     19  C   UNL     1      49.131   5.916  17.168  0.00  0.00    +0.000 C 
ATOM     20  C   UNL     1      48.200   6.365  18.307  0.00  0.00    +0.000 C 
ATOM     21  C   UNL     1      48.324   7.848  18.654  0.00  0.00    +0.000 C 
BRANCH  16  22
ATOM     22  C   UNL     1      50.247   7.781  20.318  0.00  0.00    +0.000 C 
BRANCH  22  23
ATOM     23  N   UNL     1      51.674   8.009  20.522  0.00  0.00    +0.000 NA
ATOM     24  H   UNL     1      52.152   8.002  19.620  0.00  0.00    +0.000 HD
ATOM     25  H   UNL     1      52.072   7.232  21.054  0.00  0.00    +0.000 HD
ENDBRANCH  22  23
ENDBRANCH  16  22
ENDBRANCH  15  19
ENDBRANCH   1  15
TORSDOF 5
ENDMDL
