MODEL 1
REMARK VINA RESULT:    -8.343      0.000      0.000
REMARK INTER + INTRA:         -12.591
REMARK INTER:                 -11.756
REMARK INTRA:                  -0.835
REMARK UNBOUND:                -0.835
REMARK  Name = 
REMARK  7 active torsions:
REMARK  status: ('A' for Active; 'I' for Inactive)
REMARK    1  A    between atoms: C_2  and  C_3
REMARK    2  A    between atoms: C_2  and  C_13
REMARK    3  A    between atoms: C_3  and  N_4
REMARK    4  A    between atoms: C_5  and  C_7
REMARK    5  A    between atoms: C_16  and  C_17
REMARK    6  A    between atoms: C_17  and  N_18
REMARK    7  A    between atoms: C_19  and  C_21
REMARK                            x       y       z     vdW  Elec       q    Type
REMARK                         _______ _______ _______ _____ _____    ______ ____
ROOT
ATOM      1  C   UNL     1      46.579   4.930  13.336  0.00  0.00    +0.000 A 
ATOM      2  C   UNL     1      46.750   4.438  14.628  0.00  0.00    +0.000 A 
ATOM      3  C   UNL     1      47.645   5.029  15.509  0.00  0.00    +0.000 A 
ATOM      4  C   UNL     1      48.387   6.150  15.126  0.00  0.00    +0.000 A 
ATOM      5  C   UNL     1      48.231   6.630  13.813  0.00  0.00    +0.000 A 
ATOM      6  C   UNL     1      47.326   6.032  12.919  0.00  0.00    +0.000 A 
ENDROOT
BRANCH   1   8
ATOM      7  O   UNL     1      45.235   3.122  12.638  0.00  0.00    +0.000 OA
ATOM      8  C   UNL     1      45.555   4.278  12.460  0.00  0.00    +0.000 C 
BRANCH   8   9
ATOM      9  C   UNL     1      44.936   5.134  11.360  0.00  0.00    +0.000 C 
BRANCH   9  10
ATOM     10  N   UNL     1      44.597   4.358  10.190  0.00  0.00    +0.000 N 
ATOM     11  C   UNL     1      45.290   4.563   9.015  0.00  0.00    +0.000 C 
ATOM     12  O   UNL     1      46.187   5.399   8.939  0.00  0.00    +0.000 OA
ATOM     13  H   UNL     1      43.852   3.679  10.264  0.00  0.00    +0.000 HD
BRANCH  11  14
ATOM     14  C   UNL     1      44.842   3.696   7.814  0.00  0.00    +0.000 C 
ATOM     15  C   UNL     1      45.987   3.502   6.808  0.00  0.00    +0.000 C 
ATOM     16  C   UNL     1      47.098   2.611   7.369  0.00  0.00    +0.000 C 
ATOM     17  C   UNL     1      46.530   1.310   7.920  0.00  0.00    +0.000 C 
ATOM     18  C   UNL     1      45.345   1.547   8.855  0.00  0.00    +0.000 C 
ATOM     19  N   UNL     1      44.313   2.380   8.237  0.00  0.00    +0.000 NA
ATOM     20  H   UNL     1      43.532   2.495   8.877  0.00  0.00    +0.000 HD
ENDBRANCH  11  14
ENDBRANCH   9  10
ENDBRANCH   8   9
ENDBRANCH   1   8
BRANCH   4  21
ATOM     21  C   UNL     1      49.306   6.875  16.090  0.00  0.00    +0.000 C 
BRANCH  21  22
ATOM     22  N   UNL     1      50.331   6.036  16.665  0.00  0.00    +0.000 N 
ATOM     23  C   UNL     1      50.206   5.475  17.908  0.00  0.00    +0.000 C 
ATOM     24  O   UNL     1      49.222   5.639  18.627  0.00  0.00    +0.000 OA
ATOM     25  H   UNL     1      51.265   6.124  16.291  0.00  0.00    +0.000 HD
BRANCH  23  26
ATOM     26  C   UNL     1      51.317   4.599  18.312  0.00  0.00    +0.000 A 
ATOM     27  C   UNL     1      52.349   5.089  19.098  0.00  0.00    +0.000 A 
ATOM     28  S   UNL     1      53.530   3.915  19.477  0.00  0.00    +0.000 S 
ATOM     29  C   UNL     1      52.718   2.723  18.573  0.00  0.00    +0.000 A 
ATOM     30  N   UNL     1      53.222   1.463  18.449  0.00  0.00    +0.000 NA
ATOM     31  C   UNL     1      52.522   0.677  17.712  0.00  0.00    +0.000 A 
ATOM     32  N   UNL     1      51.346   1.024  17.085  0.00  0.00    +0.000 N 
ATOM     33  C   UNL     1      50.770   2.256  17.244  0.00  0.00    +0.000 A 
ATOM     34  O   UNL     1      49.652   2.505  16.780  0.00  0.00    +0.000 OA
ATOM     35  C   UNL     1      51.544   3.202  18.021  0.00  0.00    +0.000 A 
ATOM     36  H   UNL     1      50.824   0.344  16.558  0.00  0.00    +0.000 HD
ENDBRANCH  23  26
ENDBRANCH  21  22
ENDBRANCH   4  21
TORSDOF 7
ENDMDL
MODEL 2
REMARK VINA RESULT:    -7.494      2.309      3.436
REMARK INTER + INTRA:         -11.396
REMARK INTER:                 -10.237
REMARK INTRA:                  -1.159
REMARK UNBOUND:                -0.835
REMARK  Name = 
REMARK  7 active torsions:
REMARK  status: ('A' for Active; 'I' for Inactive)
REMARK    1  A    between atoms: C_2  and  C_3
REMARK    2  A    between atoms: C_2  and  C_13
REMARK    3  A    between atoms: C_3  and  N_4
REMARK    4  A    between atoms: C_5  and  C_7
REMARK    5  A    between atoms: C_16  and  C_17
REMARK    6  A    between atoms: C_17  and  N_18
REMARK    7  A    between atoms: C_19  and  C_21
REMARK                            x       y       z     vdW  Elec       q    Type
REMARK                         _______ _______ _______ _____ _____    ______ ____
ROOT
ATOM      1  C   UNL     1      47.453   5.791  13.986  0.00  0.00    +0.000 A 
ATOM      2  C   UNL     1      48.117   6.238  15.127  0.00  0.00    +0.000 A 
ATOM      3  C   UNL     1      48.241   5.430  16.249  0.00  0.00    +0.000 A 
ATOM      4  C   UNL     1      47.716   4.135  16.256  0.00  0.00    +0.000 A 
ATOM      5  C   UNL     1      47.024   3.694  15.113  0.00  0.00    +0.000 A 
ATOM      6  C   UNL     1      46.898   4.511  13.976  0.00  0.00    +0.000 A 
ENDROOT
BRANCH   1   8
ATOM      7  O   UNL     1      48.373   6.809  12.068  0.00  0.00    +0.000 OA
ATOM      8  C   UNL     1      47.408   6.694  12.794  0.00  0.00    +0.000 C 
BRANCH   8   9
ATOM      9  C   UNL     1      46.102   7.439  12.536  0.00  0.00    +0.000 C 
BRANCH   9  10
ATOM     10  N   UNL     1      45.261   6.751  11.585  0.00  0.00    +0.000 N 
ATOM     11  C   UNL     1      44.165   6.044  12.035  0.00  0.00    +0.000 C 
ATOM     12  O   UNL     1      43.892   5.979  13.230  0.00  0.00    +0.000 OA
ATOM     13  H   UNL     1      45.501   6.804  10.604  0.00  0.00    +0.000 HD
BRANCH  11  14
ATOM     14  C   UNL     1      43.338   5.325  10.942  0.00  0.00    +0.000 C 
ATOM     15  C   UNL     1      44.236   4.831   9.797  0.00  0.00    +0.000 C 
ATOM     16  C   UNL     1      45.142   3.677  10.235  0.00  0.00    +0.000 C 
ATOM     17  C   UNL     1      44.335   2.575  10.911  0.00  0.00    +0.000 C 
ATOM     18  C   UNL     1      43.400   3.122  11.990  0.00  0.00    +0.000 C 
ATOM     19  N   UNL     1      42.547   4.199  11.486  0.00  0.00    +0.000 NA
ATOM     20  H   UNL     1      41.923   4.519  12.222  0.00  0.00    +0.000 HD
ENDBRANCH  11  14
ENDBRANCH   9  10
ENDBRANCH   8   9
ENDBRANCH   1   8
BRANCH   4  21
ATOM     21  C   UNL     1      47.909   3.194  17.430  0.00  0.00    +0.000 C 
BRANCH  21  22
ATOM     22  N   UNL     1      49.293   2.960  17.771  0.00  0.00    +0.000 N 
ATOM     23  C   UNL     1      50.115   2.179  17.003  0.00  0.00    +0.000 C 
ATOM     24  O   UNL     1      49.746   1.620  15.972  0.00  0.00    +0.000 OA
ATOM     25  H   UNL     1      49.562   3.107  18.733  0.00  0.00    +0.000 HD
BRANCH  23  26
ATOM     26  C   UNL     1      51.509   2.099  17.465  0.00  0.00    +0.000 A 
ATOM     27  C   UNL     1      52.112   0.867  17.671  0.00  0.00    +0.000 A 
ATOM     28  S   UNL     1      53.736   0.983  18.186  0.00  0.00    +0.000 S 
ATOM     29  C   UNL     1      53.675   2.684  18.183  0.00  0.00    +0.000 A 
ATOM     30  N   UNL     1      54.749   3.430  18.565  0.00  0.00    +0.000 NA
ATOM     31  C   UNL     1      54.552   4.701  18.545  0.00  0.00    +0.000 A 
ATOM     32  N   UNL     1      53.376   5.309  18.167  0.00  0.00    +0.000 N 
ATOM     33  C   UNL     1      52.300   4.597  17.708  0.00  0.00    +0.000 A 
ATOM     34  O   UNL     1      51.303   5.168  17.252  0.00  0.00    +0.000 OA
ATOM     35  C   UNL     1      52.447   3.157  17.761  0.00  0.00    +0.000 A 
ATOM     36  H   UNL     1      53.304   6.312  18.132  0.00  0.00    +0.000 HD
ENDBRANCH  23  26
ENDBRANCH  21  22
ENDBRANCH   4  21
TORSDOF 7
ENDMDL
MODEL 3
REMARK VINA RESULT:    -7.308      3.193      9.066
REMARK INTER + INTRA:         -11.134
REMARK INTER:                 -10.091
REMARK INTRA:                  -1.043
REMARK UNBOUND:                -0.835
REMARK  Name = 
REMARK  7 active torsions:
REMARK  status: ('A' for Active; 'I' for Inactive)
REMARK    1  A    between atoms: C_2  and  C_3
REMARK    2  A    between atoms: C_2  and  C_13
REMARK    3  A    between atoms: C_3  and  N_4
REMARK    4  A    between atoms: C_5  and  C_7
REMARK    5  A    between atoms: C_16  and  C_17
REMARK    6  A    between atoms: C_17  and  N_18
REMARK    7  A    between atoms: C_19  and  C_21
REMARK                            x       y       z     vdW  Elec       q    Type
REMARK                         _______ _______ _______ _____ _____    ______ ____
ROOT
ATOM      1  C   UNL     1      49.574   8.533  15.643  0.00  0.00    +0.000 A 
ATOM      2  C   UNL     1      50.263   7.847  14.645  0.00  0.00    +0.000 A 
ATOM      3  C   UNL     1      49.670   7.574  13.420  0.00  0.00    +0.000 A 
ATOM      4  C   UNL     1      48.367   7.999  13.148  0.00  0.00    +0.000 A 
ATOM      5  C   UNL     1      47.663   8.670  14.166  0.00  0.00    +0.000 A 
ATOM      6  C   UNL     1      48.262   8.947  15.407  0.00  0.00    +0.000 A 
ENDROOT
BRANCH   1   8
ATOM      7  O   UNL     1      50.326   9.974  17.351  0.00  0.00    +0.000 OA
ATOM      8  C   UNL     1      50.295   8.843  16.917  0.00  0.00    +0.000 C 
BRANCH   8   9
ATOM      9  C   UNL     1      50.967   7.676  17.635  0.00  0.00    +0.000 C 
BRANCH   9  10
ATOM     10  N   UNL     1      50.007   6.767  18.214  0.00  0.00    +0.000 N 
ATOM     11  C   UNL     1      49.941   5.467  17.757  0.00  0.00    +0.000 C 
ATOM     12  O   UNL     1      50.678   5.066  16.860  0.00  0.00    +0.000 OA
ATOM     13  H   UNL     1      49.399   7.111  18.945  0.00  0.00    +0.000 HD
BRANCH  11  14
ATOM     14  C   UNL     1      48.867   4.576  18.426  0.00  0.00    +0.000 C 
ATOM     15  C   UNL     1      47.534   4.643  17.665  0.00  0.00    +0.000 C 
ATOM     16  C   UNL     1      47.618   3.963  16.297  0.00  0.00    +0.000 C 
ATOM     17  C   UNL     1      48.191   2.557  16.420  0.00  0.00    +0.000 C 
ATOM     18  C   UNL     1      49.475   2.526  17.248  0.00  0.00    +0.000 C 
ATOM     19  N   UNL     1      49.305   3.168  18.552  0.00  0.00    +0.000 NA
ATOM     20  H   UNL     1      50.170   3.106  19.084  0.00  0.00    +0.000 HD
ENDBRANCH  11  14
ENDBRANCH   9  10
ENDBRANCH   8   9
ENDBRANCH   1   8
BRANCH   4  21
ATOM     21  C   UNL     1      47.720   7.796  11.792  0.00  0.00    +0.000 C 
BRANCH  21  22
ATOM     22  N   UNL     1      46.919   6.599  11.698  0.00  0.00    +0.000 N 
ATOM     23  C   UNL     1      45.552   6.624  11.776  0.00  0.00    +0.000 C 
ATOM     24  O   UNL     1      44.903   7.657  11.932  0.00  0.00    +0.000 OA
ATOM     25  H   UNL     1      47.376   5.721  11.895  0.00  0.00    +0.000 HD
BRANCH  23  26
ATOM     26  C   UNL     1      44.893   5.320  11.599  0.00  0.00    +0.000 A 
ATOM     27  C   UNL     1      44.127   4.775  12.619  0.00  0.00    +0.000 A 
ATOM     28  S   UNL     1      43.430   3.270  12.214  0.00  0.00    +0.000 S 
ATOM     29  C   UNL     1      44.157   3.282  10.675  0.00  0.00    +0.000 A 
ATOM     30  N   UNL     1      43.993   2.245   9.808  0.00  0.00    +0.000 NA
ATOM     31  C   UNL     1      44.625   2.373   8.695  0.00  0.00    +0.000 A 
ATOM     32  N   UNL     1      45.407   3.453   8.354  0.00  0.00    +0.000 N 
ATOM     33  C   UNL     1      45.538   4.547   9.168  0.00  0.00    +0.000 A 
ATOM     34  O   UNL     1      46.137   5.559   8.789  0.00  0.00    +0.000 OA
ATOM     35  C   UNL     1      44.891   4.434  10.459  0.00  0.00    +0.000 A 
ATOM     36  H   UNL     1      45.839   3.509   7.447  0.00  0.00    +0.000 HD
ENDBRANCH  23  26
ENDBRANCH  21  22
ENDBRANCH   4  21
TORSDOF 7
ENDMDL
MODEL 4
REMARK VINA RESULT:    -7.288      3.841      9.234
REMARK INTER + INTRA:         -11.105
REMARK INTER:                  -9.024
REMARK INTRA:                  -2.081
REMARK UNBOUND:                -0.835
REMARK  Name = 
REMARK  7 active torsions:
REMARK  status: ('A' for Active; 'I' for Inactive)
REMARK    1  A    between atoms: C_2  and  C_3
REMARK    2  A    between atoms: C_2  and  C_13
REMARK    3  A    between atoms: C_3  and  N_4
REMARK    4  A    between atoms: C_5  and  C_7
REMARK    5  A    between atoms: C_16  and  C_17
REMARK    6  A    between atoms: C_17  and  N_18
REMARK    7  A    between atoms: C_19  and  C_21
REMARK                            x       y       z     vdW  Elec       q    Type
REMARK                         _______ _______ _______ _____ _____    ______ ____
ROOT
ATOM      1  C   UNL     1      51.062   4.038  18.682  0.00  0.00    +0.000 A 
ATOM      2  C   UNL     1      50.871   3.226  17.566  0.00  0.00    +0.000 A 
ATOM      3  C   UNL     1      49.606   3.028  17.031  0.00  0.00    +0.000 A 
ATOM      4  C   UNL     1      48.489   3.656  17.588  0.00  0.00    +0.000 A 
ATOM      5  C   UNL     1      48.681   4.456  18.730  0.00  0.00    +0.000 A 
ATOM      6  C   UNL     1      49.961   4.656  19.274  0.00  0.00    +0.000 A 
ENDROOT
BRANCH   1   8
ATOM      7  O   UNL     1      53.169   3.308  19.451  0.00  0.00    +0.000 OA
ATOM      8  C   UNL     1      52.461   4.251  19.170  0.00  0.00    +0.000 C 
BRANCH   8   9
ATOM      9  C   UNL     1      52.945   5.694  19.281  0.00  0.00    +0.000 C 
BRANCH   9  10
ATOM     10  N   UNL     1      52.581   6.481  18.126  0.00  0.00    +0.000 N 
ATOM     11  C   UNL     1      51.897   7.666  18.300  0.00  0.00    +0.000 C 
ATOM     12  O   UNL     1      51.583   8.066  19.418  0.00  0.00    +0.000 OA
ATOM     13  H   UNL     1      52.837   6.137  17.211  0.00  0.00    +0.000 HD
BRANCH  11  14
ATOM     14  C   UNL     1      51.535   8.427  17.002  0.00  0.00    +0.000 C 
ATOM     15  C   UNL     1      51.270   7.455  15.842  0.00  0.00    +0.000 C 
ATOM     16  C   UNL     1      49.979   6.659  16.043  0.00  0.00    +0.000 C 
ATOM     17  C   UNL     1      48.810   7.584  16.355  0.00  0.00    +0.000 C 
ATOM     18  C   UNL     1      49.144   8.584  17.463  0.00  0.00    +0.000 C 
ATOM     19  N   UNL     1      50.374   9.326  17.183  0.00  0.00    +0.000 NA
ATOM     20  H   UNL     1      50.550   9.997  17.926  0.00  0.00    +0.000 HD
ENDBRANCH  11  14
ENDBRANCH   9  10
ENDBRANCH   8   9
ENDBRANCH   1   8
BRANCH   4  21
ATOM     21  C   UNL     1      47.107   3.534  16.977  0.00  0.00    +0.000 C 
BRANCH  21  22
ATOM     22  N   UNL     1      46.858   4.465  15.902  0.00  0.00    +0.000 N 
ATOM     23  C   UNL     1      46.990   4.115  14.584  0.00  0.00    +0.000 C 
ATOM     24  O   UNL     1      47.328   2.991  14.215  0.00  0.00    +0.000 OA
ATOM     25  H   UNL     1      46.900   5.449  16.124  0.00  0.00    +0.000 HD
BRANCH  23  26
ATOM     26  C   UNL     1      46.638   5.168  13.620  0.00  0.00    +0.000 A 
ATOM     27  C   UNL     1      47.564   6.139  13.270  0.00  0.00    +0.000 A 
ATOM     28  S   UNL     1      46.973   7.259  12.124  0.00  0.00    +0.000 S 
ATOM     29  C   UNL     1      45.449   6.502  12.085  0.00  0.00    +0.000 A 
ATOM     30  N   UNL     1      44.438   6.989  11.313  0.00  0.00    +0.000 NA
ATOM     31  C   UNL     1      43.333   6.338  11.406  0.00  0.00    +0.000 A 
ATOM     32  N   UNL     1      43.138   5.228  12.196  0.00  0.00    +0.000 N 
ATOM     33  C   UNL     1      44.148   4.666  12.930  0.00  0.00    +0.000 A 
ATOM     34  O   UNL     1      43.987   3.597  13.529  0.00  0.00    +0.000 OA
ATOM     35  C   UNL     1      45.402   5.390  12.905  0.00  0.00    +0.000 A 
ATOM     36  H   UNL     1      42.258   4.739  12.188  0.00  0.00    +0.000 HD
ENDBRANCH  23  26
ENDBRANCH  21  22
ENDBRANCH   4  21
TORSDOF 7
ENDMDL
MODEL 5
REMARK VINA RESULT:    -7.050      2.698      3.054
REMARK INTER + INTRA:         -10.770
REMARK INTER:                  -9.938
REMARK INTRA:                  -0.831
REMARK UNBOUND:                -0.835
REMARK  Name = 
REMARK  7 active torsions:
REMARK  status: ('A' for Active; 'I' for Inactive)
REMARK    1  A    between atoms: C_2  and  C_3
REMARK    2  A    between atoms: C_2  and  C_13
REMARK    3  A    between atoms: C_3  and  N_4
REMARK    4  A    between atoms: C_5  and  C_7
REMARK    5  A    between atoms: C_16  and  C_17
REMARK    6  A    between atoms: C_17  and  N_18
REMARK    7  A    between atoms: C_19  and  C_21
REMARK                            x       y       z     vdW  Elec       q    Type
REMARK                         _______ _______ _______ _____ _____    ______ ____
ROOT
ATOM      1  C   UNL     1      46.119   5.271  12.756  0.00  0.00    +0.000 A 
ATOM      2  C   UNL     1      46.533   6.486  12.214  0.00  0.00    +0.000 A 
ATOM      3  C   UNL     1      47.586   7.199  12.769  0.00  0.00    +0.000 A 
ATOM      4  C   UNL     1      48.274   6.705  13.881  0.00  0.00    +0.000 A 
ATOM      5  C   UNL     1      47.839   5.490  14.443  0.00  0.00    +0.000 A 
ATOM      6  C   UNL     1      46.772   4.767  13.882  0.00  0.00    +0.000 A 
ENDROOT
BRANCH   1   8
ATOM      7  O   UNL     1      44.695   3.419  12.436  0.00  0.00    +0.000 OA
ATOM      8  C   UNL     1      45.014   4.530  12.071  0.00  0.00    +0.000 C 
BRANCH   8   9
ATOM      9  C   UNL     1      44.313   5.240  10.917  0.00  0.00    +0.000 C 
BRANCH   9  10
ATOM     10  N   UNL     1      44.156   4.383   9.765  0.00  0.00    +0.000 N 
ATOM     11  C   UNL     1      45.091   4.428   8.752  0.00  0.00    +0.000 C 
ATOM     12  O   UNL     1      46.054   5.189   8.804  0.00  0.00    +0.000 OA
ATOM     13  H   UNL     1      43.355   3.768   9.730  0.00  0.00    +0.000 HD
BRANCH  11  14
ATOM     14  C   UNL     1      44.825   3.487   7.553  0.00  0.00    +0.000 C 
ATOM     15  C   UNL     1      46.040   3.422   6.614  0.00  0.00    +0.000 C 
ATOM     16  C   UNL     1      47.223   2.694   7.257  0.00  0.00    +0.000 C 
ATOM     17  C   UNL     1      46.797   1.342   7.813  0.00  0.00    +0.000 C 
ATOM     18  C   UNL     1      45.541   1.442   8.677  0.00  0.00    +0.000 C 
ATOM     19  N   UNL     1      44.447   2.123   7.983  0.00  0.00    +0.000 NA
ATOM     20  H   UNL     1      43.622   2.148   8.578  0.00  0.00    +0.000 HD
ENDBRANCH  11  14
ENDBRANCH   9  10
ENDBRANCH   8   9
ENDBRANCH   1   8
BRANCH   4  21
ATOM     21  C   UNL     1      49.485   7.412  14.459  0.00  0.00    +0.000 C 
BRANCH  21  22
ATOM     22  N   UNL     1      49.653   7.218  15.880  0.00  0.00    +0.000 N 
ATOM     23  C   UNL     1      49.019   8.002  16.806  0.00  0.00    +0.000 C 
ATOM     24  O   UNL     1      48.264   8.925  16.507  0.00  0.00    +0.000 OA
ATOM     25  H   UNL     1      50.477   6.720  16.183  0.00  0.00    +0.000 HD
BRANCH  23  26
ATOM     26  C   UNL     1      49.256   7.626  18.209  0.00  0.00    +0.000 A 
ATOM     27  C   UNL     1      49.890   8.504  19.075  0.00  0.00    +0.000 A 
ATOM     28  S   UNL     1      50.053   7.893  20.661  0.00  0.00    +0.000 S 
ATOM     29  C   UNL     1      49.311   6.423  20.233  0.00  0.00    +0.000 A 
ATOM     30  N   UNL     1      49.161   5.416  21.139  0.00  0.00    +0.000 NA
ATOM     31  C   UNL     1      48.614   4.351  20.670  0.00  0.00    +0.000 A 
ATOM     32  N   UNL     1      48.188   4.192  19.371  0.00  0.00    +0.000 N 
ATOM     33  C   UNL     1      48.255   5.204  18.451  0.00  0.00    +0.000 A 
ATOM     34  O   UNL     1      47.748   5.084  17.330  0.00  0.00    +0.000 OA
ATOM     35  C   UNL     1      48.912   6.410  18.909  0.00  0.00    +0.000 A 
ATOM     36  H   UNL     1      47.726   3.346  19.082  0.00  0.00    +0.000 HD
ENDBRANCH  23  26
ENDBRANCH  21  22
ENDBRANCH   4  21
TORSDOF 7
ENDMDL
MODEL 6
REMARK VINA RESULT:    -6.696      3.374      8.834
REMARK INTER + INTRA:         -10.271
REMARK INTER:                  -9.482
REMARK INTRA:                  -0.789
REMARK UNBOUND:                -0.835
REMARK  Name = 
REMARK  7 active torsions:
REMARK  status: ('A' for Active; 'I' for Inactive)
REMARK    1  A    between atoms: C_2  and  C_3
REMARK    2  A    between atoms: C_2  and  C_13
REMARK    3  A    between atoms: C_3  and  N_4
REMARK    4  A    between atoms: C_5  and  C_7
REMARK    5  A    between atoms: C_16  and  C_17
REMARK    6  A    between atoms: C_17  and  N_18
REMARK    7  A    between atoms: C_19  and  C_21
REMARK                            x       y       z     vdW  Elec       q    Type
REMARK                         _______ _______ _______ _____ _____    ______ ____
ROOT
ATOM      1  C   UNL     1      48.824   8.460  15.969  0.00  0.00    +0.000 A 
ATOM      2  C   UNL     1      48.701   7.203  15.382  0.00  0.00    +0.000 A 
ATOM      3  C   UNL     1      48.533   7.064  14.011  0.00  0.00    +0.000 A 
ATOM      4  C   UNL     1      48.502   8.187  13.179  0.00  0.00    +0.000 A 
ATOM      5  C   UNL     1      48.601   9.457  13.777  0.00  0.00    +0.000 A 
ATOM      6  C   UNL     1      48.771   9.599  15.165  0.00  0.00    +0.000 A 
ENDROOT
BRANCH   1   8
ATOM      7  O   UNL     1      48.447   9.319  18.133  0.00  0.00    +0.000 OA
ATOM      8  C   UNL     1      49.060   8.531  17.445  0.00  0.00    +0.000 C 
BRANCH   8   9
ATOM      9  C   UNL     1      50.087   7.566  18.031  0.00  0.00    +0.000 C 
BRANCH   9  10
ATOM     10  N   UNL     1      49.477   6.348  18.511  0.00  0.00    +0.000 N 
ATOM     11  C   UNL     1      49.855   5.139  17.965  0.00  0.00    +0.000 C 
ATOM     12  O   UNL     1      50.695   5.075  17.072  0.00  0.00    +0.000 OA
ATOM     13  H   UNL     1      48.781   6.415  19.241  0.00  0.00    +0.000 HD
BRANCH  11  14
ATOM     14  C   UNL     1      49.131   3.894  18.532  0.00  0.00    +0.000 C 
ATOM     15  C   UNL     1      47.718   3.754  17.945  0.00  0.00    +0.000 C 
ATOM     16  C   UNL     1      47.748   3.382  16.461  0.00  0.00    +0.000 C 
ATOM     17  C   UNL     1      48.642   2.174  16.217  0.00  0.00    +0.000 C 
ATOM     18  C   UNL     1      50.010   2.323  16.884  0.00  0.00    +0.000 C 
ATOM     19  N   UNL     1      49.897   2.648  18.306  0.00  0.00    +0.000 NA
ATOM     20  H   UNL     1      50.824   2.714  18.720  0.00  0.00    +0.000 HD
ENDBRANCH  11  14
ENDBRANCH   9  10
ENDBRANCH   8   9
ENDBRANCH   1   8
BRANCH   4  21
ATOM     21  C   UNL     1      48.409   8.069  11.670  0.00  0.00    +0.000 C 
BRANCH  21  22
ATOM     22  N   UNL     1      47.638   6.935  11.217  0.00  0.00    +0.000 N 
ATOM     23  C   UNL     1      46.269   6.920  11.250  0.00  0.00    +0.000 C 
ATOM     24  O   UNL     1      45.593   7.860  11.663  0.00  0.00    +0.000 OA
ATOM     25  H   UNL     1      48.109   6.043  11.179  0.00  0.00    +0.000 HD
BRANCH  23  26
ATOM     26  C   UNL     1      45.645   5.710  10.693  0.00  0.00    +0.000 A 
ATOM     27  C   UNL     1      45.742   5.428   9.338  0.00  0.00    +0.000 A 
ATOM     28  S   UNL     1      44.973   3.971   8.892  0.00  0.00    +0.000 S 
ATOM     29  C   UNL     1      44.456   3.687  10.488  0.00  0.00    +0.000 A 
ATOM     30  N   UNL     1      43.700   2.598  10.804  0.00  0.00    +0.000 NA
ATOM     31  C   UNL     1      43.354   2.527  12.040  0.00  0.00    +0.000 A 
ATOM     32  N   UNL     1      43.700   3.443  13.008  0.00  0.00    +0.000 N 
ATOM     33  C   UNL     1      44.518   4.509  12.746  0.00  0.00    +0.000 A 
ATOM     34  O   UNL     1      44.923   5.244  13.654  0.00  0.00    +0.000 OA
ATOM     35  C   UNL     1      44.894   4.669  11.357  0.00  0.00    +0.000 A 
ATOM     36  H   UNL     1      43.432   3.302  13.968  0.00  0.00    +0.000 HD
ENDBRANCH  23  26
ENDBRANCH  21  22
ENDBRANCH   4  21
TORSDOF 7
ENDMDL
MODEL 7
REMARK VINA RESULT:    -6.638      2.703      3.623
REMARK INTER + INTRA:         -10.190
REMARK INTER:                  -9.426
REMARK INTRA:                  -0.764
REMARK UNBOUND:                -0.835
REMARK  Name = 
REMARK  7 active torsions:
REMARK  status: ('A' for Active; 'I' for Inactive)
REMARK    1  A    between atoms: C_2  and  C_3
REMARK    2  A    between atoms: C_2  and  C_13
REMARK    3  A    between atoms: C_3  and  N_4
REMARK    4  A    between atoms: C_5  and  C_7
REMARK    5  A    between atoms: C_16  and  C_17
REMARK    6  A    between atoms: C_17  and  N_18
REMARK    7  A    between atoms: C_19  and  C_21
REMARK                            x       y       z     vdW  Elec       q    Type
REMARK                         _______ _______ _______ _____ _____    ______ ____
ROOT
ATOM      1  C   UNL     1      44.730   3.961  11.605  0.00  0.00    +0.000 A 
ATOM      2  C   UNL     1      45.626   3.780  12.656  0.00  0.00    +0.000 A 
ATOM      3  C   UNL     1      46.418   4.824  13.112  0.00  0.00    +0.000 A 
ATOM      4  C   UNL     1      46.323   6.095  12.538  0.00  0.00    +0.000 A 
ATOM      5  C   UNL     1      45.436   6.269  11.460  0.00  0.00    +0.000 A 
ATOM      6  C   UNL     1      44.633   5.213  10.997  0.00  0.00    +0.000 A 
ENDROOT
BRANCH   1   8
ATOM      7  O   UNL     1      43.093   2.308  11.994  0.00  0.00    +0.000 OA
ATOM      8  C   UNL     1      43.867   2.806  11.204  0.00  0.00    +0.000 C 
BRANCH   8   9
ATOM      9  C   UNL     1      44.000   2.304   9.769  0.00  0.00    +0.000 C 
BRANCH   9  10
ATOM     10  N   UNL     1      45.355   2.406   9.280  0.00  0.00    +0.000 N 
ATOM     11  C   UNL     1      45.621   3.186   8.174  0.00  0.00    +0.000 C 
ATOM     12  O   UNL     1      44.727   3.792   7.589  0.00  0.00    +0.000 OA
ATOM     13  H   UNL     1      46.080   1.895   9.765  0.00  0.00    +0.000 HD
BRANCH  11  14
ATOM     14  C   UNL     1      47.099   3.216   7.716  0.00  0.00    +0.000 C 
ATOM     15  C   UNL     1      47.617   1.801   7.413  0.00  0.00    +0.000 C 
ATOM     16  C   UNL     1      46.970   1.208   6.160  0.00  0.00    +0.000 C 
ATOM     17  C   UNL     1      47.073   2.170   4.984  0.00  0.00    +0.000 C 
ATOM     18  C   UNL     1      46.619   3.583   5.350  0.00  0.00    +0.000 C 
ATOM     19  N   UNL     1      47.304   4.090   6.540  0.00  0.00    +0.000 NA
ATOM     20  H   UNL     1      46.996   5.039   6.738  0.00  0.00    +0.000 HD
ENDBRANCH  11  14
ENDBRANCH   9  10
ENDBRANCH   8   9
ENDBRANCH   1   8
BRANCH   4  21
ATOM     21  C   UNL     1      47.107   7.279  13.068  0.00  0.00    +0.000 C 
BRANCH  21  22
ATOM     22  N   UNL     1      47.500   7.150  14.451  0.00  0.00    +0.000 N 
ATOM     23  C   UNL     1      48.809   7.022  14.833  0.00  0.00    +0.000 C 
ATOM     24  O   UNL     1      49.746   7.007  14.037  0.00  0.00    +0.000 OA
ATOM     25  H   UNL     1      46.797   6.834  15.103  0.00  0.00    +0.000 HD
BRANCH  23  26
ATOM     26  C   UNL     1      49.033   6.964  16.286  0.00  0.00    +0.000 A 
ATOM     27  C   UNL     1      49.491   8.078  16.972  0.00  0.00    +0.000 A 
ATOM     28  S   UNL     1      49.667   7.816  18.650  0.00  0.00    +0.000 S 
ATOM     29  C   UNL     1      49.169   6.195  18.508  0.00  0.00    +0.000 A 
ATOM     30  N   UNL     1      49.125   5.371  19.592  0.00  0.00    +0.000 NA
ATOM     31  C   UNL     1      48.761   4.165  19.333  0.00  0.00    +0.000 A 
ATOM     32  N   UNL     1      48.423   3.696  18.084  0.00  0.00    +0.000 N 
ATOM     33  C   UNL     1      48.385   4.510  16.984  0.00  0.00    +0.000 A 
ATOM     34  O   UNL     1      47.954   4.101  15.900  0.00  0.00    +0.000 OA
ATOM     35  C   UNL     1      48.838   5.868  17.206  0.00  0.00    +0.000 A 
ATOM     36  H   UNL     1      48.104   2.750  17.959  0.00  0.00    +0.000 HD
ENDBRANCH  23  26
ENDBRANCH  21  22
ENDBRANCH   4  21
TORSDOF 7
ENDMDL
MODEL 8
REMARK VINA RESULT:    -6.555      4.265      9.392
REMARK INTER + INTRA:         -10.073
REMARK INTER:                  -8.203
REMARK INTRA:                  -1.869
REMARK UNBOUND:                -0.835
REMARK  Name = 
REMARK  7 active torsions:
REMARK  status: ('A' for Active; 'I' for Inactive)
REMARK    1  A    between atoms: C_2  and  C_3
REMARK    2  A    between atoms: C_2  and  C_13
REMARK    3  A    between atoms: C_3  and  N_4
REMARK    4  A    between atoms: C_5  and  C_7
REMARK    5  A    between atoms: C_16  and  C_17
REMARK    6  A    between atoms: C_17  and  N_18
REMARK    7  A    between atoms: C_19  and  C_21
REMARK                            x       y       z     vdW  Elec       q    Type
REMARK                         _______ _______ _______ _____ _____    ______ ____
ROOT
ATOM      1  C   UNL     1      51.457   3.611  18.392  0.00  0.00    +0.000 A 
ATOM      2  C   UNL     1      51.059   2.644  17.471  0.00  0.00    +0.000 A 
ATOM      3  C   UNL     1      49.730   2.517  17.092  0.00  0.00    +0.000 A 
ATOM      4  C   UNL     1      48.755   3.373  17.612  0.00  0.00    +0.000 A 
ATOM      5  C   UNL     1      49.155   4.332  18.561  0.00  0.00    +0.000 A 
ATOM      6  C   UNL     1      50.500   4.462  18.946  0.00  0.00    +0.000 A 
ENDROOT
BRANCH   1   8
ATOM      7  O   UNL     1      53.393   3.127  19.648  0.00  0.00    +0.000 OA
ATOM      8  C   UNL     1      52.915   3.727  18.710  0.00  0.00    +0.000 C 
BRANCH   8   9
ATOM      9  C   UNL     1      53.756   4.616  17.798  0.00  0.00    +0.000 C 
BRANCH   9  10
ATOM     10  N   UNL     1      53.549   6.021  18.065  0.00  0.00    +0.000 N 
ATOM     11  C   UNL     1      52.764   6.766  17.211  0.00  0.00    +0.000 C 
ATOM     12  O   UNL     1      52.241   6.263  16.220  0.00  0.00    +0.000 OA
ATOM     13  H   UNL     1      53.992   6.425  18.879  0.00  0.00    +0.000 HD
BRANCH  11  14
ATOM     14  C   UNL     1      52.619   8.264  17.571  0.00  0.00    +0.000 C 
ATOM     15  C   UNL     1      51.282   8.831  17.068  0.00  0.00    +0.000 C 
ATOM     16  C   UNL     1      50.090   8.263  17.842  0.00  0.00    +0.000 C 
ATOM     17  C   UNL     1      50.296   8.402  19.344  0.00  0.00    +0.000 C 
ATOM     18  C   UNL     1      51.668   7.896  19.789  0.00  0.00    +0.000 C 
ATOM     19  N   UNL     1      52.756   8.508  19.024  0.00  0.00    +0.000 NA
ATOM     20  H   UNL     1      53.652   8.168  19.363  0.00  0.00    +0.000 HD
ENDBRANCH  11  14
ENDBRANCH   9  10
ENDBRANCH   8   9
ENDBRANCH   1   8
BRANCH   4  21
ATOM     21  C   UNL     1      47.311   3.322  17.155  0.00  0.00    +0.000 C 
BRANCH  21  22
ATOM     22  N   UNL     1      46.984   4.292  16.137  0.00  0.00    +0.000 N 
ATOM     23  C   UNL     1      47.080   4.012  14.800  0.00  0.00    +0.000 C 
ATOM     24  O   UNL     1      47.448   2.924  14.362  0.00  0.00    +0.000 OA
ATOM     25  H   UNL     1      46.994   5.265  16.406  0.00  0.00    +0.000 HD
BRANCH  23  26
ATOM     26  C   UNL     1      46.649   5.096  13.903  0.00  0.00    +0.000 A 
ATOM     27  C   UNL     1      45.457   4.997  13.202  0.00  0.00    +0.000 A 
ATOM     28  S   UNL     1      45.123   6.362  12.233  0.00  0.00    +0.000 S 
ATOM     29  C   UNL     1      46.578   7.116  12.693  0.00  0.00    +0.000 A 
ATOM     30  N   UNL     1      46.938   8.329  12.187  0.00  0.00    +0.000 NA
ATOM     31  C   UNL     1      48.076   8.763  12.596  0.00  0.00    +0.000 A 
ATOM     32  N   UNL     1      48.899   8.103  13.480  0.00  0.00    +0.000 N 
ATOM     33  C   UNL     1      48.541   6.918  14.066  0.00  0.00    +0.000 A 
ATOM     34  O   UNL     1      49.234   6.408  14.954  0.00  0.00    +0.000 OA
ATOM     35  C   UNL     1      47.291   6.354  13.600  0.00  0.00    +0.000 A 
ATOM     36  H   UNL     1      49.759   8.522  13.794  0.00  0.00    +0.000 HD
ENDBRANCH  23  26
ENDBRANCH  21  22
ENDBRANCH   4  21
TORSDOF 7
ENDMDL
MODEL 9
REMARK VINA RESULT:    -6.546      2.372      3.191
REMARK INTER + INTRA:         -10.060
REMARK INTER:                  -9.306
REMARK INTRA:                  -0.754
REMARK UNBOUND:                -0.835
REMARK  Name = 
REMARK  7 active torsions:
REMARK  status: ('A' for Active; 'I' for Inactive)
REMARK    1  A    between atoms: C_2  and  C_3
REMARK    2  A    between atoms: C_2  and  C_13
REMARK    3  A    between atoms: C_3  and  N_4
REMARK    4  A    between atoms: C_5  and  C_7
REMARK    5  A    between atoms: C_16  and  C_17
REMARK    6  A    between atoms: C_17  and  N_18
REMARK    7  A    between atoms: C_19  and  C_21
REMARK                            x       y       z     vdW  Elec       q    Type
REMARK                         _______ _______ _______ _____ _____    ______ ____
ROOT
ATOM      1  C   UNL     1      48.114   7.780  14.286  0.00  0.00    +0.000 A 
ATOM      2  C   UNL     1      48.247   6.477  14.764  0.00  0.00    +0.000 A 
ATOM      3  C   UNL     1      48.694   6.228  16.054  0.00  0.00    +0.000 A 
ATOM      4  C   UNL     1      49.005   7.282  16.917  0.00  0.00    +0.000 A 
ATOM      5  C   UNL     1      48.894   8.596  16.425  0.00  0.00    +0.000 A 
ATOM      6  C   UNL     1      48.442   8.850  15.118  0.00  0.00    +0.000 A 
ENDROOT
BRANCH   1   8
ATOM      7  O   UNL     1      48.265   7.765  11.933  0.00  0.00    +0.000 OA
ATOM      8  C   UNL     1      47.571   7.974  12.905  0.00  0.00    +0.000 C 
BRANCH   8   9
ATOM      9  C   UNL     1      46.120   8.429  12.787  0.00  0.00    +0.000 C 
BRANCH   9  10
ATOM     10  N   UNL     1      45.190   7.375  13.122  0.00  0.00    +0.000 N 
ATOM     11  C   UNL     1      44.746   6.522  12.134  0.00  0.00    +0.000 C 
ATOM     12  O   UNL     1      45.118   6.642  10.970  0.00  0.00    +0.000 OA
ATOM     13  H   UNL     1      44.885   7.292  14.082  0.00  0.00    +0.000 HD
BRANCH  11  14
ATOM     14  C   UNL     1      43.738   5.439  12.589  0.00  0.00    +0.000 C 
ATOM     15  C   UNL     1      42.882   4.945  11.412  0.00  0.00    +0.000 C 
ATOM     16  C   UNL     1      43.701   4.130  10.408  0.00  0.00    +0.000 C 
ATOM     17  C   UNL     1      44.486   3.029  11.109  0.00  0.00    +0.000 C 
ATOM     18  C   UNL     1      45.261   3.551  12.318  0.00  0.00    +0.000 C 
ATOM     19  N   UNL     1      44.404   4.292  13.244  0.00  0.00    +0.000 NA
ATOM     20  H   UNL     1      44.947   4.601  14.046  0.00  0.00    +0.000 HD
ENDBRANCH  11  14
ENDBRANCH   9  10
ENDBRANCH   8   9
ENDBRANCH   1   8
BRANCH   4  21
ATOM     21  C   UNL     1      49.410   7.050  18.360  0.00  0.00    +0.000 C 
BRANCH  21  22
ATOM     22  N   UNL     1      50.298   5.926  18.545  0.00  0.00    +0.000 N 
ATOM     23  C   UNL     1      51.605   5.949  18.136  0.00  0.00    +0.000 C 
ATOM     24  O   UNL     1      52.122   6.918  17.584  0.00  0.00    +0.000 OA
ATOM     25  H   UNL     1      49.873   5.020  18.681  0.00  0.00    +0.000 HD
BRANCH  23  26
ATOM     26  C   UNL     1      52.380   4.741  18.459  0.00  0.00    +0.000 A 
ATOM     27  C   UNL     1      53.552   4.834  19.195  0.00  0.00    +0.000 A 
ATOM     28  S   UNL     1      54.295   3.324  19.483  0.00  0.00    +0.000 S 
ATOM     29  C   UNL     1      53.092   2.500  18.604  0.00  0.00    +0.000 A 
ATOM     30  N   UNL     1      53.144   1.151  18.428  0.00  0.00    +0.000 NA
ATOM     31  C   UNL     1      52.189   0.667  17.717  0.00  0.00    +0.000 A 
ATOM     32  N   UNL     1      51.167   1.405  17.165  0.00  0.00    +0.000 N 
ATOM     33  C   UNL     1      51.039   2.751  17.379  0.00  0.00    +0.000 A 
ATOM     34  O   UNL     1      50.045   3.371  16.984  0.00  0.00    +0.000 OA
ATOM     35  C   UNL     1      52.118   3.360  18.129  0.00  0.00    +0.000 A 
ATOM     36  H   UNL     1      50.424   0.955  16.654  0.00  0.00    +0.000 HD
ENDBRANCH  23  26
ENDBRANCH  21  22
ENDBRANCH   4  21
TORSDOF 7
ENDMDL
