MODEL 1
REMARK VINA RESULT:    -8.343      0.000      0.000
REMARK INTER + INTRA:         -11.143
REMARK INTER:                 -10.782
REMARK INTRA:                  -0.361
REMARK UNBOUND:                -0.361
REMARK  Name = 
REMARK  5 active torsions:
REMARK  status: ('A' for Active; 'I' for Inactive)
REMARK    1  A    between atoms: C_2  and  C_18
REMARK    2  A    between atoms: N_3  and  C_4
REMARK    3  A    between atoms: C_4  and  C_5
REMARK    4  A    between atoms: N_8  and  C_9
REMARK    5  A    between atoms: C_9  and  C_10
REMARK                            x       y       z     vdW  Elec       q    Type
REMARK                         _______ _______ _______ _____ _____    ______ ____
ROOT
ATOM      1  O   UNL     1      47.588   2.901  14.977  0.00  0.00    +0.000 OA
ATOM      2  C   UNL     1      47.802   3.982  15.510  0.00  0.00    +0.000 C 
ATOM      3  N   UNL     1      47.688   5.210  14.886  0.00  0.00    +0.000 N 
ATOM      4  H   UNL     1      47.687   6.031  15.471  0.00  0.00    +0.000 HD
ENDROOT
BRANCH   2   5
ATOM      5  C   UNL     1      47.992   4.150  16.944  0.00  0.00    +0.000 A 
ATOM      6  C   UNL     1      47.090   4.829  17.744  0.00  0.00    +0.000 A 
ATOM      7  S   UNL     1      47.859   5.451  19.149  0.00  0.00    +0.000 S 
ATOM      8  C   UNL     1      49.320   4.656  18.772  0.00  0.00    +0.000 A 
ATOM      9  N   UNL     1      50.471   4.866  19.465  0.00  0.00    +0.000 NA
ATOM     10  C   UNL     1      51.461   4.122  19.087  0.00  0.00    +0.000 A 
ATOM     11  N   UNL     1      51.394   3.155  18.111  0.00  0.00    +0.000 N 
ATOM     12  C   UNL     1      50.253   2.905  17.378  0.00  0.00    +0.000 A 
ATOM     13  O   UNL     1      50.189   2.000  16.567  0.00  0.00    +0.000 OA
ATOM     14  C   UNL     1      49.166   3.814  17.692  0.00  0.00    +0.000 A 
ATOM     15  H   UNL     1      52.175   2.542  17.936  0.00  0.00    +0.000 HD
ENDBRANCH   2   5
BRANCH   3  16
ATOM     16  C   UNL     1      47.243   5.398  13.522  0.00  0.00    +0.000 C 
BRANCH  16  17
ATOM     17  C   UNL     1      45.721   5.514  13.418  0.00  0.00    +0.000 C 
ATOM     18  C   UNL     1      45.020   4.164  13.189  0.00  0.00    +0.000 C 
ATOM     19  C   UNL     1      44.840   3.775  11.722  0.00  0.00    +0.000 C 
ATOM     20  N   UNL     1      44.214   4.867  10.969  0.00  0.00    +0.000 NA
ATOM     21  C   UNL     1      45.112   6.024  10.955  0.00  0.00    +0.000 C 
ATOM     22  C   UNL     1      45.317   6.564  12.372  0.00  0.00    +0.000 C 
BRANCH  20  23
ATOM     23  C   UNL     1      43.861   4.405   9.600  0.00  0.00    +0.000 C 
BRANCH  23  24
ATOM     24  C   UNL     1      44.952   3.661   8.827  0.00  0.00    +0.000 A 
ATOM     25  N   UNL     1      45.041   2.320   9.004  0.00  0.00    +0.000 NA
ATOM     26  C   UNL     1      45.994   1.687   8.296  0.00  0.00    +0.000 A 
ATOM     27  C   UNL     1      46.842   2.320   7.423  0.00  0.00    +0.000 A 
ATOM     28  C   UNL     1      46.671   3.678   7.308  0.00  0.00    +0.000 A 
ATOM     29  N   UNL     1      45.739   4.370   7.988  0.00  0.00    +0.000 NA
ENDBRANCH  23  24
ENDBRANCH  20  23
ENDBRANCH  16  17
ENDBRANCH   3  16
TORSDOF 5
ENDMDL
MODEL 2
REMARK VINA RESULT:    -8.234      1.823      2.382
REMARK INTER + INTRA:         -11.001
REMARK INTER:                 -10.402
REMARK INTRA:                  -0.600
REMARK UNBOUND:                -0.361
REMARK  Name = 
REMARK  5 active torsions:
REMARK  status: ('A' for Active; 'I' for Inactive)
REMARK    1  A    between atoms: C_2  and  C_18
REMARK    2  A    between atoms: N_3  and  C_4
REMARK    3  A    between atoms: C_4  and  C_5
REMARK    4  A    between atoms: N_8  and  C_9
REMARK    5  A    between atoms: C_9  and  C_10
REMARK                            x       y       z     vdW  Elec       q    Type
REMARK                         _______ _______ _______ _____ _____    ______ ____
ROOT
ATOM      1  O   UNL     1      48.671   5.907  12.905  0.00  0.00    +0.000 OA
ATOM      2  C   UNL     1      47.944   6.371  13.773  0.00  0.00    +0.000 C 
ATOM      3  N   UNL     1      46.596   6.634  13.621  0.00  0.00    +0.000 N 
ATOM      4  H   UNL     1      46.060   6.818  14.455  0.00  0.00    +0.000 HD
ENDROOT
BRANCH   2   5
ATOM      5  C   UNL     1      48.341   6.509  15.168  0.00  0.00    +0.000 A 
ATOM      6  C   UNL     1      48.936   7.655  15.667  0.00  0.00    +0.000 A 
ATOM      7  S   UNL     1      49.881   7.302  17.058  0.00  0.00    +0.000 S 
ATOM      8  C   UNL     1      49.340   5.685  17.087  0.00  0.00    +0.000 A 
ATOM      9  N   UNL     1      49.860   4.751  17.927  0.00  0.00    +0.000 NA
ATOM     10  C   UNL     1      49.277   3.597  17.863  0.00  0.00    +0.000 A 
ATOM     11  N   UNL     1      48.191   3.304  17.072  0.00  0.00    +0.000 N 
ATOM     12  C   UNL     1      47.627   4.214  16.203  0.00  0.00    +0.000 A 
ATOM     13  O   UNL     1      46.625   3.961  15.561  0.00  0.00    +0.000 OA
ATOM     14  C   UNL     1      48.343   5.475  16.158  0.00  0.00    +0.000 A 
ATOM     15  H   UNL     1      47.722   2.414  17.146  0.00  0.00    +0.000 HD
ENDBRANCH   2   5
BRANCH   3  16
ATOM     16  C   UNL     1      45.834   6.344  12.426  0.00  0.00    +0.000 C 
BRANCH  16  17
ATOM     17  C   UNL     1      44.773   5.266  12.661  0.00  0.00    +0.000 C 
ATOM     18  C   UNL     1      45.350   3.841  12.705  0.00  0.00    +0.000 C 
ATOM     19  C   UNL     1      45.413   3.131  11.353  0.00  0.00    +0.000 C 
ATOM     20  N   UNL     1      44.112   3.189  10.676  0.00  0.00    +0.000 NA
ATOM     21  C   UNL     1      43.789   4.584  10.366  0.00  0.00    +0.000 C 
ATOM     22  C   UNL     1      43.622   5.397  11.652  0.00  0.00    +0.000 C 
BRANCH  20  23
ATOM     23  C   UNL     1      44.130   2.328   9.464  0.00  0.00    +0.000 C 
BRANCH  23  24
ATOM     24  C   UNL     1      45.361   2.440   8.563  0.00  0.00    +0.000 A 
ATOM     25  N   UNL     1      46.095   1.318   8.362  0.00  0.00    +0.000 NA
ATOM     26  C   UNL     1      47.160   1.438   7.549  0.00  0.00    +0.000 A 
ATOM     27  C   UNL     1      47.514   2.608   6.926  0.00  0.00    +0.000 A 
ATOM     28  C   UNL     1      46.707   3.688   7.187  0.00  0.00    +0.000 A 
ATOM     29  N   UNL     1      45.630   3.635   7.992  0.00  0.00    +0.000 NA
ENDBRANCH  23  24
ENDBRANCH  20  23
ENDBRANCH  16  17
ENDBRANCH   3  16
TORSDOF 5
ENDMDL
MODEL 3
REMARK VINA RESULT:    -7.958      2.004      2.439
REMARK INTER + INTRA:         -10.646
REMARK INTER:                 -10.167
REMARK INTRA:                  -0.479
REMARK UNBOUND:                -0.361
REMARK  Name = 
REMARK  5 active torsions:
REMARK  status: ('A' for Active; 'I' for Inactive)
REMARK    1  A    between atoms: C_2  and  C_18
REMARK    2  A    between atoms: N_3  and  C_4
REMARK    3  A    between atoms: C_4  and  C_5
REMARK    4  A    between atoms: N_8  and  C_9
REMARK    5  A    between atoms: C_9  and  C_10
REMARK                            x       y       z     vdW  Elec       q    Type
REMARK                         _______ _______ _______ _____ _____    ______ ____
ROOT
ATOM      1  O   UNL     1      48.054   3.018  15.961  0.00  0.00    +0.000 OA
ATOM      2  C   UNL     1      47.850   4.225  15.992  0.00  0.00    +0.000 C 
ATOM      3  N   UNL     1      47.148   4.935  15.036  0.00  0.00    +0.000 N 
ATOM      4  H   UNL     1      46.867   5.875  15.267  0.00  0.00    +0.000 HD
ENDROOT
BRANCH   2   5
ATOM      5  C   UNL     1      48.123   5.059  17.154  0.00  0.00    +0.000 A 
ATOM      6  C   UNL     1      47.765   4.692  18.439  0.00  0.00    +0.000 A 
ATOM      7  S   UNL     1      47.572   6.074  19.443  0.00  0.00    +0.000 S 
ATOM      8  C   UNL     1      48.144   7.115  18.219  0.00  0.00    +0.000 A 
ATOM      9  N   UNL     1      48.107   8.469  18.329  0.00  0.00    +0.000 NA
ATOM     10  C   UNL     1      48.652   9.098  17.338  0.00  0.00    +0.000 A 
ATOM     11  N   UNL     1      49.273   8.497  16.268  0.00  0.00    +0.000 N 
ATOM     12  C   UNL     1      49.337   7.128  16.108  0.00  0.00    +0.000 A 
ATOM     13  O   UNL     1      49.950   6.611  15.193  0.00  0.00    +0.000 OA
ATOM     14  C   UNL     1      48.619   6.402  17.139  0.00  0.00    +0.000 A 
ATOM     15  H   UNL     1      49.766   9.045  15.581  0.00  0.00    +0.000 HD
ENDBRANCH   2   5
BRANCH   3  16
ATOM     16  C   UNL     1      46.503   4.342  13.884  0.00  0.00    +0.000 C 
BRANCH  16  17
ATOM     17  C   UNL     1      45.369   5.214  13.340  0.00  0.00    +0.000 C 
ATOM     18  C   UNL     1      44.085   4.425  13.032  0.00  0.00    +0.000 C 
ATOM     19  C   UNL     1      44.000   3.866  11.613  0.00  0.00    +0.000 C 
ATOM     20  N   UNL     1      44.263   4.918  10.624  0.00  0.00    +0.000 NA
ATOM     21  C   UNL     1      45.642   5.389  10.772  0.00  0.00    +0.000 C 
ATOM     22  C   UNL     1      45.842   6.047  12.139  0.00  0.00    +0.000 C 
BRANCH  20  23
ATOM     23  C   UNL     1      43.980   4.412   9.254  0.00  0.00    +0.000 C 
BRANCH  23  24
ATOM     24  C   UNL     1      45.082   3.586   8.589  0.00  0.00    +0.000 A 
ATOM     25  N   UNL     1      45.147   2.267   8.894  0.00  0.00    +0.000 NA
ATOM     26  C   UNL     1      46.112   1.559   8.279  0.00  0.00    +0.000 A 
ATOM     27  C   UNL     1      46.993   2.097   7.376  0.00  0.00    +0.000 A 
ATOM     28  C   UNL     1      46.844   3.440   7.127  0.00  0.00    +0.000 A 
ATOM     29  N   UNL     1      45.903   4.204   7.711  0.00  0.00    +0.000 NA
ENDBRANCH  23  24
ENDBRANCH  20  23
ENDBRANCH  16  17
ENDBRANCH   3  16
TORSDOF 5
ENDMDL
MODEL 4
REMARK VINA RESULT:    -7.944      2.768      3.436
REMARK INTER + INTRA:         -10.627
REMARK INTER:                 -10.217
REMARK INTRA:                  -0.410
REMARK UNBOUND:                -0.361
REMARK  Name = 
REMARK  5 active torsions:
REMARK  status: ('A' for Active; 'I' for Inactive)
REMARK    1  A    between atoms: C_2  and  C_18
REMARK    2  A    between atoms: N_3  and  C_4
REMARK    3  A    between atoms: C_4  and  C_5
REMARK    4  A    between atoms: N_8  and  C_9
REMARK    5  A    between atoms: C_9  and  C_10
REMARK                            x       y       z     vdW  Elec       q    Type
REMARK                         _______ _______ _______ _____ _____    ______ ____
ROOT
ATOM      1  O   UNL     1      47.527   4.683  13.720  0.00  0.00    +0.000 OA
ATOM      2  C   UNL     1      47.246   5.860  13.534  0.00  0.00    +0.000 C 
ATOM      3  N   UNL     1      45.972   6.344  13.303  0.00  0.00    +0.000 N 
ATOM      4  H   UNL     1      45.833   7.340  13.370  0.00  0.00    +0.000 HD
ENDROOT
BRANCH   2   5
ATOM      5  C   UNL     1      48.180   6.956  13.750  0.00  0.00    +0.000 A 
ATOM      6  C   UNL     1      48.346   7.987  12.842  0.00  0.00    +0.000 A 
ATOM      7  S   UNL     1      49.904   8.696  12.993  0.00  0.00    +0.000 S 
ATOM      8  C   UNL     1      50.260   7.760  14.373  0.00  0.00    +0.000 A 
ATOM      9  N   UNL     1      51.492   7.735  14.947  0.00  0.00    +0.000 NA
ATOM     10  C   UNL     1      51.560   7.027  16.029  0.00  0.00    +0.000 A 
ATOM     11  N   UNL     1      50.499   6.381  16.616  0.00  0.00    +0.000 N 
ATOM     12  C   UNL     1      49.230   6.373  16.075  0.00  0.00    +0.000 A 
ATOM     13  O   UNL     1      48.286   5.855  16.642  0.00  0.00    +0.000 OA
ATOM     14  C   UNL     1      49.156   7.049  14.793  0.00  0.00    +0.000 A 
ATOM     15  H   UNL     1      50.598   5.931  17.514  0.00  0.00    +0.000 HD
ENDBRANCH   2   5
BRANCH   3  16
ATOM     16  C   UNL     1      44.774   5.532  13.303  0.00  0.00    +0.000 C 
BRANCH  16  17
ATOM     17  C   UNL     1      44.029   5.595  11.968  0.00  0.00    +0.000 C 
ATOM     18  C   UNL     1      42.970   4.491  11.807  0.00  0.00    +0.000 C 
ATOM     19  C   UNL     1      43.483   3.197  11.175  0.00  0.00    +0.000 C 
ATOM     20  N   UNL     1      44.195   3.478   9.923  0.00  0.00    +0.000 NA
ATOM     21  C   UNL     1      45.394   4.268  10.214  0.00  0.00    +0.000 C 
ATOM     22  C   UNL     1      45.012   5.635  10.789  0.00  0.00    +0.000 C 
BRANCH  20  23
ATOM     23  C   UNL     1      44.510   2.207   9.219  0.00  0.00    +0.000 C 
BRANCH  23  24
ATOM     24  C   UNL     1      45.618   2.264   8.166  0.00  0.00    +0.000 A 
ATOM     25  N   UNL     1      46.507   1.242   8.135  0.00  0.00    +0.000 NA
ATOM     26  C   UNL     1      47.459   1.306   7.186  0.00  0.00    +0.000 A 
ATOM     27  C   UNL     1      47.553   2.323   6.270  0.00  0.00    +0.000 A 
ATOM     28  C   UNL     1      46.603   3.310   6.377  0.00  0.00    +0.000 A 
ATOM     29  N   UNL     1      45.629   3.306   7.305  0.00  0.00    +0.000 NA
ENDBRANCH  23  24
ENDBRANCH  20  23
ENDBRANCH  16  17
ENDBRANCH   3  16
TORSDOF 5
ENDMDL
MODEL 5
REMARK VINA RESULT:    -7.783      3.428      4.642
REMARK INTER + INTRA:         -10.419
REMARK INTER:                  -9.722
REMARK INTRA:                  -0.697
REMARK UNBOUND:                -0.361
REMARK  Name = 
REMARK  5 active torsions:
REMARK  status: ('A' for Active; 'I' for Inactive)
REMARK    1  A    between atoms: C_2  and  C_18
REMARK    2  A    between atoms: N_3  and  C_4
REMARK    3  A    between atoms: C_4  and  C_5
REMARK    4  A    between atoms: N_8  and  C_9
REMARK    5  A    between atoms: C_9  and  C_10
REMARK                            x       y       z     vdW  Elec       q    Type
REMARK                         _______ _______ _______ _____ _____    ______ ____
ROOT
ATOM      1  O   UNL     1      47.390   4.658  13.637  0.00  0.00    +0.000 OA
ATOM      2  C   UNL     1      47.244   5.873  13.610  0.00  0.00    +0.000 C 
ATOM      3  N   UNL     1      46.043   6.522  13.393  0.00  0.00    +0.000 N 
ATOM      4  H   UNL     1      46.004   7.509  13.597  0.00  0.00    +0.000 HD
ENDROOT
BRANCH   2   5
ATOM      5  C   UNL     1      48.272   6.818  14.024  0.00  0.00    +0.000 A 
ATOM      6  C   UNL     1      48.791   6.844  15.307  0.00  0.00    +0.000 A 
ATOM      7  S   UNL     1      49.410   8.401  15.689  0.00  0.00    +0.000 S 
ATOM      8  C   UNL     1      49.154   8.957  14.098  0.00  0.00    +0.000 A 
ATOM      9  N   UNL     1      49.317  10.258  13.739  0.00  0.00    +0.000 NA
ATOM     10  C   UNL     1      49.152  10.485  12.475  0.00  0.00    +0.000 A 
ATOM     11  N   UNL     1      48.886   9.523  11.529  0.00  0.00    +0.000 N 
ATOM     12  C   UNL     1      48.710   8.191  11.840  0.00  0.00    +0.000 A 
ATOM     13  O   UNL     1      48.545   7.342  10.985  0.00  0.00    +0.000 OA
ATOM     14  C   UNL     1      48.760   7.930  13.267  0.00  0.00    +0.000 A 
ATOM     15  H   UNL     1      48.870   9.753  10.547  0.00  0.00    +0.000 HD
ENDBRANCH   2   5
BRANCH   3  16
ATOM     16  C   UNL     1      44.770   5.856  13.222  0.00  0.00    +0.000 C 
BRANCH  16  17
ATOM     17  C   UNL     1      44.233   5.987  11.795  0.00  0.00    +0.000 C 
ATOM     18  C   UNL     1      43.022   5.082  11.513  0.00  0.00    +0.000 C 
ATOM     19  C   UNL     1      43.370   3.690  10.986  0.00  0.00    +0.000 C 
ATOM     20  N   UNL     1      44.281   3.782   9.840  0.00  0.00    +0.000 NA
ATOM     21  C   UNL     1      45.555   4.359  10.278  0.00  0.00    +0.000 C 
ATOM     22  C   UNL     1      45.355   5.797  10.763  0.00  0.00    +0.000 C 
BRANCH  20  23
ATOM     23  C   UNL     1      44.451   2.443   9.215  0.00  0.00    +0.000 C 
BRANCH  23  24
ATOM     24  C   UNL     1      45.552   2.314   8.161  0.00  0.00    +0.000 A 
ATOM     25  N   UNL     1      45.682   3.322   7.264  0.00  0.00    +0.000 NA
ATOM     26  C   UNL     1      46.672   3.194   6.361  0.00  0.00    +0.000 A 
ATOM     27  C   UNL     1      47.533   2.127   6.322  0.00  0.00    +0.000 A 
ATOM     28  C   UNL     1      47.325   1.159   7.275  0.00  0.00    +0.000 A 
ATOM     29  N   UNL     1      46.353   1.226   8.202  0.00  0.00    +0.000 NA
ENDBRANCH  23  24
ENDBRANCH  20  23
ENDBRANCH  16  17
ENDBRANCH   3  16
TORSDOF 5
ENDMDL
MODEL 6
REMARK VINA RESULT:    -7.288      3.292      7.998
REMARK INTER + INTRA:          -9.779
REMARK INTER:                  -8.953
REMARK INTRA:                  -0.826
REMARK UNBOUND:                -0.361
REMARK  Name = 
REMARK  5 active torsions:
REMARK  status: ('A' for Active; 'I' for Inactive)
REMARK    1  A    between atoms: C_2  and  C_18
REMARK    2  A    between atoms: N_3  and  C_4
REMARK    3  A    between atoms: C_4  and  C_5
REMARK    4  A    between atoms: N_8  and  C_9
REMARK    5  A    between atoms: C_9  and  C_10
REMARK                            x       y       z     vdW  Elec       q    Type
REMARK                         _______ _______ _______ _____ _____    ______ ____
ROOT
ATOM      1  O   UNL     1      44.742   7.448  12.528  0.00  0.00    +0.000 OA
ATOM      2  C   UNL     1      45.638   7.062  11.787  0.00  0.00    +0.000 C 
ATOM      3  N   UNL     1      46.892   7.635  11.696  0.00  0.00    +0.000 N 
ATOM      4  H   UNL     1      47.608   7.115  11.213  0.00  0.00    +0.000 HD
ENDROOT
BRANCH   2   5
ATOM      5  C   UNL     1      45.592   5.806  11.052  0.00  0.00    +0.000 A 
ATOM      6  C   UNL     1      45.914   5.713   9.709  0.00  0.00    +0.000 A 
ATOM      7  S   UNL     1      45.137   4.363   8.982  0.00  0.00    +0.000 S 
ATOM      8  C   UNL     1      44.543   3.821  10.486  0.00  0.00    +0.000 A 
ATOM      9  N   UNL     1      43.661   2.793  10.600  0.00  0.00    +0.000 NA
ATOM     10  C   UNL     1      43.378   2.470  11.821  0.00  0.00    +0.000 A 
ATOM     11  N   UNL     1      43.931   3.048  12.939  0.00  0.00    +0.000 N 
ATOM     12  C   UNL     1      44.828   4.094  12.879  0.00  0.00    +0.000 A 
ATOM     13  O   UNL     1      45.362   4.549  13.873  0.00  0.00    +0.000 OA
ATOM     14  C   UNL     1      45.063   4.562  11.525  0.00  0.00    +0.000 A 
ATOM     15  H   UNL     1      43.743   2.681  13.859  0.00  0.00    +0.000 HD
ENDBRANCH   2   5
BRANCH   3  16
ATOM     16  C   UNL     1      47.349   8.742  12.508  0.00  0.00    +0.000 C 
BRANCH  16  17
ATOM     17  C   UNL     1      48.730   8.486  13.116  0.00  0.00    +0.000 C 
ATOM     18  C   UNL     1      49.012   6.998  13.385  0.00  0.00    +0.000 C 
ATOM     19  C   UNL     1      48.587   6.503  14.767  0.00  0.00    +0.000 C 
ATOM     20  N   UNL     1      49.125   7.375  15.818  0.00  0.00    +0.000 NA
ATOM     21  C   UNL     1      48.537   8.711  15.687  0.00  0.00    +0.000 C 
ATOM     22  C   UNL     1      48.953   9.355  14.363  0.00  0.00    +0.000 C 
BRANCH  20  23
ATOM     23  C   UNL     1      48.877   6.774  17.155  0.00  0.00    +0.000 C 
BRANCH  23  24
ATOM     24  C   UNL     1      48.649   5.262  17.194  0.00  0.00    +0.000 A 
ATOM     25  N   UNL     1      49.741   4.462  17.144  0.00  0.00    +0.000 NA
ATOM     26  C   UNL     1      49.515   3.136  17.201  0.00  0.00    +0.000 A 
ATOM     27  C   UNL     1      48.265   2.582  17.318  0.00  0.00    +0.000 A 
ATOM     28  C   UNL     1      47.221   3.474  17.367  0.00  0.00    +0.000 A 
ATOM     29  N   UNL     1      47.381   4.809  17.312  0.00  0.00    +0.000 NA
ENDBRANCH  23  24
ENDBRANCH  20  23
ENDBRANCH  16  17
ENDBRANCH   3  16
TORSDOF 5
ENDMDL
MODEL 7
REMARK VINA RESULT:    -7.192      2.426      3.270
REMARK INTER + INTRA:          -9.655
REMARK INTER:                  -8.821
REMARK INTRA:                  -0.834
REMARK UNBOUND:                -0.361
REMARK  Name = 
REMARK  5 active torsions:
REMARK  status: ('A' for Active; 'I' for Inactive)
REMARK    1  A    between atoms: C_2  and  C_18
REMARK    2  A    between atoms: N_3  and  C_4
REMARK    3  A    between atoms: C_4  and  C_5
REMARK    4  A    between atoms: N_8  and  C_9
REMARK    5  A    between atoms: C_9  and  C_10
REMARK                            x       y       z     vdW  Elec       q    Type
REMARK                         _______ _______ _______ _____ _____    ______ ____
ROOT
ATOM      1  O   UNL     1      48.258   8.217  17.799  0.00  0.00    +0.000 OA
ATOM      2  C   UNL     1      48.669   7.323  17.072  0.00  0.00    +0.000 C 
ATOM      3  N   UNL     1      48.595   7.327  15.691  0.00  0.00    +0.000 N 
ATOM      4  H   UNL     1      49.144   6.644  15.194  0.00  0.00    +0.000 HD
ENDROOT
BRANCH   2   5
ATOM      5  C   UNL     1      49.499   6.221  17.539  0.00  0.00    +0.000 A 
ATOM      6  C   UNL     1      50.833   6.377  17.870  0.00  0.00    +0.000 A 
ATOM      7  S   UNL     1      51.686   4.894  17.707  0.00  0.00    +0.000 S 
ATOM      8  C   UNL     1      50.248   4.036  17.386  0.00  0.00    +0.000 A 
ATOM      9  N   UNL     1      50.241   2.733  16.997  0.00  0.00    +0.000 NA
ATOM     10  C   UNL     1      49.058   2.223  16.871  0.00  0.00    +0.000 A 
ATOM     11  N   UNL     1      47.882   2.881  17.143  0.00  0.00    +0.000 N 
ATOM     12  C   UNL     1      47.834   4.202  17.539  0.00  0.00    +0.000 A 
ATOM     13  O   UNL     1      46.791   4.749  17.843  0.00  0.00    +0.000 OA
ATOM     14  C   UNL     1      49.139   4.835  17.561  0.00  0.00    +0.000 A 
ATOM     15  H   UNL     1      46.999   2.394  17.122  0.00  0.00    +0.000 HD
ENDBRANCH   2   5
BRANCH   3  16
ATOM     16  C   UNL     1      48.069   8.419  14.902  0.00  0.00    +0.000 C 
BRANCH  16  17
ATOM     17  C   UNL     1      48.059   8.102  13.405  0.00  0.00    +0.000 C 
ATOM     18  C   UNL     1      46.797   8.605  12.682  0.00  0.00    +0.000 C 
ATOM     19  C   UNL     1      45.638   7.610  12.647  0.00  0.00    +0.000 C 
ATOM     20  N   UNL     1      46.088   6.306  12.146  0.00  0.00    +0.000 NA
ATOM     21  C   UNL     1      47.059   5.736  13.084  0.00  0.00    +0.000 C 
ATOM     22  C   UNL     1      48.315   6.608  13.156  0.00  0.00    +0.000 C 
BRANCH  20  23
ATOM     23  C   UNL     1      44.920   5.414  11.927  0.00  0.00    +0.000 C 
BRANCH  23  24
ATOM     24  C   UNL     1      44.955   4.535  10.675  0.00  0.00    +0.000 A 
ATOM     25  N   UNL     1      44.395   3.304  10.757  0.00  0.00    +0.000 NA
ATOM     26  C   UNL     1      44.421   2.560   9.636  0.00  0.00    +0.000 A 
ATOM     27  C   UNL     1      44.961   2.988   8.450  0.00  0.00    +0.000 A 
ATOM     28  C   UNL     1      45.499   4.253   8.464  0.00  0.00    +0.000 A 
ATOM     29  N   UNL     1      45.508   5.045   9.551  0.00  0.00    +0.000 NA
ENDBRANCH  23  24
ENDBRANCH  20  23
ENDBRANCH  16  17
ENDBRANCH   3  16
TORSDOF 5
ENDMDL
MODEL 8
REMARK VINA RESULT:    -6.755      4.308      5.586
REMARK INTER + INTRA:          -9.090
REMARK INTER:                  -8.663
REMARK INTRA:                  -0.427
REMARK UNBOUND:                -0.361
REMARK  Name = 
REMARK  5 active torsions:
REMARK  status: ('A' for Active; 'I' for Inactive)
REMARK    1  A    between atoms: C_2  and  C_18
REMARK    2  A    between atoms: N_3  and  C_4
REMARK    3  A    between atoms: C_4  and  C_5
REMARK    4  A    between atoms: N_8  and  C_9
REMARK    5  A    between atoms: C_9  and  C_10
REMARK                            x       y       z     vdW  Elec       q    Type
REMARK                         _______ _______ _______ _____ _____    ______ ____
ROOT
ATOM      1  O   UNL     1      49.844   7.083  14.440  0.00  0.00    +0.000 OA
ATOM      2  C   UNL     1      49.297   7.472  13.416  0.00  0.00    +0.000 C 
ATOM      3  N   UNL     1      48.271   6.814  12.766  0.00  0.00    +0.000 N 
ATOM      4  H   UNL     1      47.764   7.324  12.059  0.00  0.00    +0.000 HD
ENDROOT
BRANCH   2   5
ATOM      5  C   UNL     1      49.495   8.800  12.851  0.00  0.00    +0.000 A 
ATOM      6  C   UNL     1      48.468   9.720  12.724  0.00  0.00    +0.000 A 
ATOM      7  S   UNL     1      48.798  10.841  11.465  0.00  0.00    +0.000 S 
ATOM      8  C   UNL     1      50.367  10.212  11.236  0.00  0.00    +0.000 A 
ATOM      9  N   UNL     1      51.170  10.595  10.209  0.00  0.00    +0.000 NA
ATOM     10  C   UNL     1      52.353  10.070  10.235  0.00  0.00    +0.000 A 
ATOM     11  N   UNL     1      52.823   9.233  11.219  0.00  0.00    +0.000 N 
ATOM     12  C   UNL     1      52.049   8.813  12.281  0.00  0.00    +0.000 A 
ATOM     13  O   UNL     1      52.500   8.129  13.181  0.00  0.00    +0.000 OA
ATOM     14  C   UNL     1      50.678   9.283  12.206  0.00  0.00    +0.000 A 
ATOM     15  H   UNL     1      53.788   8.940  11.233  0.00  0.00    +0.000 HD
ENDBRANCH   2   5
BRANCH   3  16
ATOM     16  C   UNL     1      47.653   5.593  13.236  0.00  0.00    +0.000 C 
BRANCH  16  17
ATOM     17  C   UNL     1      46.126   5.694  13.281  0.00  0.00    +0.000 C 
ATOM     18  C   UNL     1      45.422   4.327  13.228  0.00  0.00    +0.000 C 
ATOM     19  C   UNL     1      45.097   3.827  11.821  0.00  0.00    +0.000 C 
ATOM     20  N   UNL     1      44.384   4.856  11.056  0.00  0.00    +0.000 NA
ATOM     21  C   UNL     1      45.262   6.012  10.862  0.00  0.00    +0.000 C 
ATOM     22  C   UNL     1      45.605   6.659  12.206  0.00  0.00    +0.000 C 
BRANCH  20  23
ATOM     23  C   UNL     1      43.898   4.290   9.770  0.00  0.00    +0.000 C 
BRANCH  23  24
ATOM     24  C   UNL     1      44.936   3.576   8.902  0.00  0.00    +0.000 A 
ATOM     25  N   UNL     1      45.661   4.331   8.042  0.00  0.00    +0.000 NA
ATOM     26  C   UNL     1      46.581   3.682   7.305  0.00  0.00    +0.000 A 
ATOM     27  C   UNL     1      46.816   2.334   7.396  0.00  0.00    +0.000 A 
ATOM     28  C   UNL     1      46.035   1.654   8.300  0.00  0.00    +0.000 A 
ATOM     29  N   UNL     1      45.097   2.243   9.063  0.00  0.00    +0.000 NA
ENDBRANCH  23  24
ENDBRANCH  20  23
ENDBRANCH  16  17
ENDBRANCH   3  16
TORSDOF 5
ENDMDL
MODEL 9
REMARK VINA RESULT:    -6.532      3.093      8.712
REMARK INTER + INTRA:          -8.802
REMARK INTER:                  -7.839
REMARK INTRA:                  -0.963
REMARK UNBOUND:                -0.361
REMARK  Name = 
REMARK  5 active torsions:
REMARK  status: ('A' for Active; 'I' for Inactive)
REMARK    1  A    between atoms: C_2  and  C_18
REMARK    2  A    between atoms: N_3  and  C_4
REMARK    3  A    between atoms: C_4  and  C_5
REMARK    4  A    between atoms: N_8  and  C_9
REMARK    5  A    between atoms: C_9  and  C_10
REMARK                            x       y       z     vdW  Elec       q    Type
REMARK                         _______ _______ _______ _____ _____    ______ ____
ROOT
ATOM      1  O   UNL     1      47.532   2.948  14.583  0.00  0.00    +0.000 OA
ATOM      2  C   UNL     1      47.088   4.081  14.716  0.00  0.00    +0.000 C 
ATOM      3  N   UNL     1      46.875   4.712  15.927  0.00  0.00    +0.000 N 
ATOM      4  H   UNL     1      46.704   5.706  15.911  0.00  0.00    +0.000 HD
ENDROOT
BRANCH   2   5
ATOM      5  C   UNL     1      46.926   5.018  13.612  0.00  0.00    +0.000 A 
ATOM      6  C   UNL     1      47.789   6.079  13.399  0.00  0.00    +0.000 A 
ATOM      7  S   UNL     1      47.010   7.342  12.532  0.00  0.00    +0.000 S 
ATOM      8  C   UNL     1      45.613   6.394  12.292  0.00  0.00    +0.000 A 
ATOM      9  N   UNL     1      44.469   6.894  11.753  0.00  0.00    +0.000 NA
ATOM     10  C   UNL     1      43.536   6.013  11.576  0.00  0.00    +0.000 A 
ATOM     11  N   UNL     1      43.658   4.670  11.845  0.00  0.00    +0.000 N 
ATOM     12  C   UNL     1      44.795   4.113  12.392  0.00  0.00    +0.000 A 
ATOM     13  O   UNL     1      44.913   2.914  12.559  0.00  0.00    +0.000 OA
ATOM     14  C   UNL     1      45.808   5.099  12.722  0.00  0.00    +0.000 A 
ATOM     15  H   UNL     1      42.929   4.023  11.589  0.00  0.00    +0.000 HD
ENDBRANCH   2   5
BRANCH   3  16
ATOM     16  C   UNL     1      47.201   4.143  17.216  0.00  0.00    +0.000 C 
BRANCH  16  17
ATOM     17  C   UNL     1      48.027   5.097  18.081  0.00  0.00    +0.000 C 
ATOM     18  C   UNL     1      48.668   6.245  17.282  0.00  0.00    +0.000 C 
ATOM     19  C   UNL     1      50.059   5.943  16.726  0.00  0.00    +0.000 C 
ATOM     20  N   UNL     1      50.941   5.435  17.784  0.00  0.00    +0.000 NA
ATOM     21  C   UNL     1      50.429   4.150  18.266  0.00  0.00    +0.000 C 
ATOM     22  C   UNL     1      49.058   4.328  18.922  0.00  0.00    +0.000 C 
BRANCH  20  23
ATOM     23  C   UNL     1      52.336   5.338  17.280  0.00  0.00    +0.000 C 
BRANCH  23  24
ATOM     24  C   UNL     1      53.014   6.650  16.883  0.00  0.00    +0.000 A 
ATOM     25  N   UNL     1      53.489   6.754  15.618  0.00  0.00    +0.000 NA
ATOM     26  C   UNL     1      54.062   7.926  15.289  0.00  0.00    +0.000 A 
ATOM     27  C   UNL     1      54.169   8.989  16.149  0.00  0.00    +0.000 A 
ATOM     28  C   UNL     1      53.654   8.791  17.407  0.00  0.00    +0.000 A 
ATOM     29  N   UNL     1      53.072   7.643  17.799  0.00  0.00    +0.000 NA
ENDBRANCH  23  24
ENDBRANCH  20  23
ENDBRANCH  16  17
ENDBRANCH   3  16
TORSDOF 5
ENDMDL
