MODEL 1
REMARK VINA RESULT:    -6.681      0.000      0.000
REMARK INTER + INTRA:          -8.986
REMARK INTER:                  -8.243
REMARK INTRA:                  -0.743
REMARK UNBOUND:                -0.743
REMARK  Name = 
REMARK  6 active torsions:
REMARK  status: ('A' for Active; 'I' for Inactive)
REMARK    1  A    between atoms: C_1  and  C_2
REMARK    2  A    between atoms: C_2  and  C_3
REMARK    3  A    between atoms: C_2  and  C_4
REMARK    4  A    between atoms: C_2  and  C_18
REMARK    5  A    between atoms: C_4  and  N_5
REMARK    6  A    between atoms: C_8  and  C_9
REMARK                            x       y       z     vdW  Elec       q    Type
REMARK                         _______ _______ _______ _____ _____    ______ ____
ROOT
ATOM      1  N   UNL     1      46.180   4.812  12.479  0.00  0.00    +0.000 N 
ATOM      2  C   UNL     1      46.387   6.200  12.445  0.00  0.00    +0.000 A 
ATOM      3  C   UNL     1      47.654   6.672  12.104  0.00  0.00    +0.000 A 
ATOM      4  C   UNL     1      47.916   8.051  12.051  0.00  0.00    +0.000 A 
ATOM      5  C   UNL     1      46.856   8.907  12.364  0.00  0.00    +0.000 A 
ATOM      6  C   UNL     1      45.637   8.366  12.723  0.00  0.00    +0.000 A 
ATOM      7  N   UNL     1      45.395   7.046  12.772  0.00  0.00    +0.000 NA
ATOM      8  H   UNL     1      46.515   4.402  11.612  0.00  0.00    +0.000 HD
ENDROOT
BRANCH   4   9
ATOM      9  C   UNL     1      49.244   8.585  11.677  0.00  0.00    +0.000 A 
ATOM     10  C   UNL     1      50.329   7.748  11.376  0.00  0.00    +0.000 A 
ATOM     11  C   UNL     1      51.577   8.279  11.057  0.00  0.00    +0.000 A 
ATOM     12  C   UNL     1      51.717   9.655  11.031  0.00  0.00    +0.000 A 
ATOM     13  N   UNL     1      50.709  10.508  11.301  0.00  0.00    +0.000 NA
ATOM     14  C   UNL     1      49.511   9.956  11.616  0.00  0.00    +0.000 A 
ENDBRANCH   4   9
BRANCH   1  15
ATOM     15  C   UNL     1      44.816   4.374  12.792  0.00  0.00    +0.000 C 
BRANCH  15  17
ATOM     16  C   UNL     1      43.263   2.611  11.867  0.00  0.00    +0.000 C 
ATOM     17  C   UNL     1      44.056   3.893  11.521  0.00  0.00    +0.000 C 
ATOM     18  C   UNL     1      43.028   4.956  11.067  0.00  0.00    +0.000 C 
BRANCH  17  19
ATOM     19  C   UNL     1      45.063   3.596  10.337  0.00  0.00    +0.000 C 
ATOM     20  C   UNL     1      45.123   4.721   9.281  0.00  0.00    +0.000 C 
ATOM     21  C   UNL     1      46.041   4.363   8.118  0.00  0.00    +0.000 C 
ATOM     22  O   UNL     1      45.646   3.131   7.523  0.00  0.00    +0.000 OA
ATOM     23  C   UNL     1      45.752   2.047   8.441  0.00  0.00    +0.000 C 
ATOM     24  C   UNL     1      44.812   2.248   9.622  0.00  0.00    +0.000 C 
ENDBRANCH  17  19
ENDBRANCH  15  17
ENDBRANCH   1  15
TORSDOF 4
ENDMDL
MODEL 2
REMARK VINA RESULT:    -6.439      4.811      5.912
REMARK INTER + INTRA:          -8.687
REMARK INTER:                  -8.182
REMARK INTRA:                  -0.505
REMARK UNBOUND:                -0.743
REMARK  Name = 
REMARK  6 active torsions:
REMARK  status: ('A' for Active; 'I' for Inactive)
REMARK    1  A    between atoms: C_1  and  C_2
REMARK    2  A    between atoms: C_2  and  C_3
REMARK    3  A    between atoms: C_2  and  C_4
REMARK    4  A    between atoms: C_2  and  C_18
REMARK    5  A    between atoms: C_4  and  N_5
REMARK    6  A    between atoms: C_8  and  C_9
REMARK                            x       y       z     vdW  Elec       q    Type
REMARK                         _______ _______ _______ _____ _____    ______ ____
ROOT
ATOM      1  N   UNL     1      46.402   5.141  14.284  0.00  0.00    +0.000 N 
ATOM      2  C   UNL     1      47.153   4.406  15.215  0.00  0.00    +0.000 A 
ATOM      3  C   UNL     1      47.536   5.033  16.400  0.00  0.00    +0.000 A 
ATOM      4  C   UNL     1      48.285   4.344  17.368  0.00  0.00    +0.000 A 
ATOM      5  C   UNL     1      48.627   3.020  17.076  0.00  0.00    +0.000 A 
ATOM      6  C   UNL     1      48.238   2.475  15.868  0.00  0.00    +0.000 A 
ATOM      7  N   UNL     1      47.523   3.141  14.947  0.00  0.00    +0.000 NA
ATOM      8  H   UNL     1      45.611   5.570  14.757  0.00  0.00    +0.000 HD
ENDROOT
BRANCH   4   9
ATOM      9  C   UNL     1      48.693   4.974  18.643  0.00  0.00    +0.000 A 
ATOM     10  C   UNL     1      48.681   4.274  19.859  0.00  0.00    +0.000 A 
ATOM     11  C   UNL     1      49.041   4.902  21.050  0.00  0.00    +0.000 A 
ATOM     12  C   UNL     1      49.424   6.230  21.001  0.00  0.00    +0.000 A 
ATOM     13  N   UNL     1      49.465   6.949  19.863  0.00  0.00    +0.000 NA
ATOM     14  C   UNL     1      49.099   6.309  18.724  0.00  0.00    +0.000 A 
ENDBRANCH   4   9
BRANCH   1  15
ATOM     15  C   UNL     1      45.982   4.414  13.082  0.00  0.00    +0.000 C 
BRANCH  15  17
ATOM     16  C   UNL     1      43.758   5.597  12.917  0.00  0.00    +0.000 C 
ATOM     17  C   UNL     1      45.073   5.285  12.166  0.00  0.00    +0.000 C 
ATOM     18  C   UNL     1      45.752   6.640  11.854  0.00  0.00    +0.000 C 
BRANCH  17  19
ATOM     19  C   UNL     1      44.750   4.535  10.810  0.00  0.00    +0.000 C 
ATOM     20  C   UNL     1      44.867   2.999  10.910  0.00  0.00    +0.000 C 
ATOM     21  C   UNL     1      44.628   2.320   9.567  0.00  0.00    +0.000 C 
ATOM     22  O   UNL     1      45.514   2.831   8.577  0.00  0.00    +0.000 OA
ATOM     23  C   UNL     1      45.299   4.220   8.346  0.00  0.00    +0.000 C 
ATOM     24  C   UNL     1      45.588   5.026   9.606  0.00  0.00    +0.000 C 
ENDBRANCH  17  19
ENDBRANCH  15  17
ENDBRANCH   1  15
TORSDOF 4
ENDMDL
MODEL 3
REMARK VINA RESULT:    -6.210      4.939      6.011
REMARK INTER + INTRA:          -8.405
REMARK INTER:                  -7.884
REMARK INTRA:                  -0.521
REMARK UNBOUND:                -0.743
REMARK  Name = 
REMARK  6 active torsions:
REMARK  status: ('A' for Active; 'I' for Inactive)
REMARK    1  A    between atoms: C_1  and  C_2
REMARK    2  A    between atoms: C_2  and  C_3
REMARK    3  A    between atoms: C_2  and  C_4
REMARK    4  A    between atoms: C_2  and  C_18
REMARK    5  A    between atoms: C_4  and  N_5
REMARK    6  A    between atoms: C_8  and  C_9
REMARK                            x       y       z     vdW  Elec       q    Type
REMARK                         _______ _______ _______ _____ _____    ______ ____
ROOT
ATOM      1  N   UNL     1      46.964   5.517  14.290  0.00  0.00    +0.000 N 
ATOM      2  C   UNL     1      47.476   4.753  15.350  0.00  0.00    +0.000 A 
ATOM      3  C   UNL     1      47.963   5.421  16.473  0.00  0.00    +0.000 A 
ATOM      4  C   UNL     1      48.483   4.706  17.564  0.00  0.00    +0.000 A 
ATOM      5  C   UNL     1      48.493   3.312  17.458  0.00  0.00    +0.000 A 
ATOM      6  C   UNL     1      48.022   2.721  16.302  0.00  0.00    +0.000 A 
ATOM      7  N   UNL     1      47.526   3.412  15.262  0.00  0.00    +0.000 NA
ATOM      8  H   UNL     1      46.290   6.185  14.654  0.00  0.00    +0.000 HD
ENDROOT
BRANCH   4   9
ATOM      9  C   UNL     1      48.993   5.383  18.777  0.00  0.00    +0.000 A 
ATOM     10  C   UNL     1      48.761   6.744  19.026  0.00  0.00    +0.000 A 
ATOM     11  C   UNL     1      49.280   7.363  20.162  0.00  0.00    +0.000 A 
ATOM     12  C   UNL     1      50.019   6.598  21.046  0.00  0.00    +0.000 A 
ATOM     13  N   UNL     1      50.265   5.286  20.864  0.00  0.00    +0.000 NA
ATOM     14  C   UNL     1      49.753   4.718  19.744  0.00  0.00    +0.000 A 
ENDBRANCH   4   9
BRANCH   1  15
ATOM     15  C   UNL     1      46.417   4.760  13.159  0.00  0.00    +0.000 C 
BRANCH  15  17
ATOM     16  C   UNL     1      44.771   6.643  12.812  0.00  0.00    +0.000 C 
ATOM     17  C   UNL     1      45.762   5.694  12.099  0.00  0.00    +0.000 C 
ATOM     18  C   UNL     1      46.832   6.580  11.418  0.00  0.00    +0.000 C 
BRANCH  17  19
ATOM     19  C   UNL     1      44.999   4.852  10.997  0.00  0.00    +0.000 C 
ATOM     20  C   UNL     1      44.872   3.352  11.342  0.00  0.00    +0.000 C 
ATOM     21  C   UNL     1      44.204   2.564  10.222  0.00  0.00    +0.000 C 
ATOM     22  O   UNL     1      44.900   2.743   8.993  0.00  0.00    +0.000 OA
ATOM     23  C   UNL     1      44.876   4.103   8.569  0.00  0.00    +0.000 C 
ATOM     24  C   UNL     1      45.593   4.993   9.576  0.00  0.00    +0.000 C 
ENDBRANCH  17  19
ENDBRANCH  15  17
ENDBRANCH   1  15
TORSDOF 4
ENDMDL
MODEL 4
REMARK VINA RESULT:    -6.150      2.952      3.512
REMARK INTER + INTRA:          -8.331
REMARK INTER:                  -7.711
REMARK INTRA:                  -0.620
REMARK UNBOUND:                -0.743
REMARK  Name = 
REMARK  6 active torsions:
REMARK  status: ('A' for Active; 'I' for Inactive)
REMARK    1  A    between atoms: C_1  and  C_2
REMARK    2  A    between atoms: C_2  and  C_3
REMARK    3  A    between atoms: C_2  and  C_4
REMARK    4  A    between atoms: C_2  and  C_18
REMARK    5  A    between atoms: C_4  and  N_5
REMARK    6  A    between atoms: C_8  and  C_9
REMARK                            x       y       z     vdW  Elec       q    Type
REMARK                         _______ _______ _______ _____ _____    ______ ____
ROOT
ATOM      1  N   UNL     1      45.732   6.065  12.826  0.00  0.00    +0.000 N 
ATOM      2  C   UNL     1      47.031   6.597  12.833  0.00  0.00    +0.000 A 
ATOM      3  C   UNL     1      47.755   6.558  14.024  0.00  0.00    +0.000 A 
ATOM      4  C   UNL     1      49.060   7.073  14.087  0.00  0.00    +0.000 A 
ATOM      5  C   UNL     1      49.578   7.626  12.913  0.00  0.00    +0.000 A 
ATOM      6  C   UNL     1      48.790   7.657  11.778  0.00  0.00    +0.000 A 
ATOM      7  N   UNL     1      47.542   7.163  11.726  0.00  0.00    +0.000 NA
ATOM      8  H   UNL     1      45.751   5.131  13.226  0.00  0.00    +0.000 HD
ENDROOT
BRANCH   4   9
ATOM      9  C   UNL     1      49.862   7.033  15.330  0.00  0.00    +0.000 A 
ATOM     10  C   UNL     1      51.219   7.391  15.355  0.00  0.00    +0.000 A 
ATOM     11  C   UNL     1      51.959   7.313  16.533  0.00  0.00    +0.000 A 
ATOM     12  C   UNL     1      51.318   6.886  17.682  0.00  0.00    +0.000 A 
ATOM     13  N   UNL     1      50.017   6.540  17.721  0.00  0.00    +0.000 NA
ATOM     14  C   UNL     1      49.330   6.619  16.554  0.00  0.00    +0.000 A 
ENDBRANCH   4   9
BRANCH   1  15
ATOM     15  C   UNL     1      45.038   6.084  11.534  0.00  0.00    +0.000 C 
BRANCH  15  17
ATOM     16  C   UNL     1      44.229   3.939  12.591  0.00  0.00    +0.000 C 
ATOM     17  C   UNL     1      44.035   4.902  11.396  0.00  0.00    +0.000 C 
ATOM     18  C   UNL     1      42.576   5.414  11.456  0.00  0.00    +0.000 C 
BRANCH  17  19
ATOM     19  C   UNL     1      44.261   4.122  10.037  0.00  0.00    +0.000 C 
ATOM     20  C   UNL     1      44.436   2.599  10.221  0.00  0.00    +0.000 C 
ATOM     21  C   UNL     1      44.731   1.895   8.902  0.00  0.00    +0.000 C 
ATOM     22  O   UNL     1      45.874   2.463   8.271  0.00  0.00    +0.000 OA
ATOM     23  C   UNL     1      45.663   3.831   7.935  0.00  0.00    +0.000 C 
ATOM     24  C   UNL     1      45.435   4.665   9.189  0.00  0.00    +0.000 C 
ENDBRANCH  17  19
ENDBRANCH  15  17
ENDBRANCH   1  15
TORSDOF 4
ENDMDL
MODEL 5
REMARK VINA RESULT:    -6.118      4.260      7.366
REMARK INTER + INTRA:          -8.292
REMARK INTER:                  -7.763
REMARK INTRA:                  -0.529
REMARK UNBOUND:                -0.743
REMARK  Name = 
REMARK  6 active torsions:
REMARK  status: ('A' for Active; 'I' for Inactive)
REMARK    1  A    between atoms: C_1  and  C_2
REMARK    2  A    between atoms: C_2  and  C_3
REMARK    3  A    between atoms: C_2  and  C_4
REMARK    4  A    between atoms: C_2  and  C_18
REMARK    5  A    between atoms: C_4  and  N_5
REMARK    6  A    between atoms: C_8  and  C_9
REMARK                            x       y       z     vdW  Elec       q    Type
REMARK                         _______ _______ _______ _____ _____    ______ ____
ROOT
ATOM      1  N   UNL     1      48.009   6.271  14.226  0.00  0.00    +0.000 N 
ATOM      2  C   UNL     1      46.990   6.543  13.299  0.00  0.00    +0.000 A 
ATOM      3  C   UNL     1      46.651   5.553  12.379  0.00  0.00    +0.000 A 
ATOM      4  C   UNL     1      45.637   5.770  11.432  0.00  0.00    +0.000 A 
ATOM      5  C   UNL     1      45.006   7.017  11.458  0.00  0.00    +0.000 A 
ATOM      6  C   UNL     1      45.416   7.961  12.379  0.00  0.00    +0.000 A 
ATOM      7  N   UNL     1      46.388   7.745  13.281  0.00  0.00    +0.000 NA
ATOM      8  H   UNL     1      47.819   5.382  14.681  0.00  0.00    +0.000 HD
ENDROOT
BRANCH   4   9
ATOM      9  C   UNL     1      45.240   4.735  10.452  0.00  0.00    +0.000 A 
ATOM     10  C   UNL     1      45.583   4.821   9.094  0.00  0.00    +0.000 A 
ATOM     11  C   UNL     1      45.169   3.848   8.187  0.00  0.00    +0.000 A 
ATOM     12  C   UNL     1      44.421   2.785   8.662  0.00  0.00    +0.000 A 
ATOM     13  N   UNL     1      44.072   2.644   9.955  0.00  0.00    +0.000 NA
ATOM     14  C   UNL     1      44.484   3.615  10.808  0.00  0.00    +0.000 A 
ENDBRANCH   4   9
BRANCH   1  15
ATOM     15  C   UNL     1      48.287   7.328  15.204  0.00  0.00    +0.000 C 
BRANCH  15  17
ATOM     16  C   UNL     1      50.599   7.053  16.178  0.00  0.00    +0.000 C 
ATOM     17  C   UNL     1      49.094   6.794  16.422  0.00  0.00    +0.000 C 
ATOM     18  C   UNL     1      48.705   7.556  17.711  0.00  0.00    +0.000 C 
BRANCH  17  19
ATOM     19  C   UNL     1      48.844   5.245  16.633  0.00  0.00    +0.000 C 
ATOM     20  C   UNL     1      47.529   4.927  17.377  0.00  0.00    +0.000 C 
ATOM     21  C   UNL     1      47.364   3.434  17.631  0.00  0.00    +0.000 C 
ATOM     22  O   UNL     1      48.485   2.915  18.339  0.00  0.00    +0.000 OA
ATOM     23  C   UNL     1      49.688   3.044  17.587  0.00  0.00    +0.000 C 
ATOM     24  C   UNL     1      50.010   4.511  17.335  0.00  0.00    +0.000 C 
ENDBRANCH  17  19
ENDBRANCH  15  17
ENDBRANCH   1  15
TORSDOF 4
ENDMDL
MODEL 6
REMARK VINA RESULT:    -6.087      3.699      4.988
REMARK INTER + INTRA:          -8.253
REMARK INTER:                  -7.711
REMARK INTRA:                  -0.542
REMARK UNBOUND:                -0.743
REMARK  Name = 
REMARK  6 active torsions:
REMARK  status: ('A' for Active; 'I' for Inactive)
REMARK    1  A    between atoms: C_1  and  C_2
REMARK    2  A    between atoms: C_2  and  C_3
REMARK    3  A    between atoms: C_2  and  C_4
REMARK    4  A    between atoms: C_2  and  C_18
REMARK    5  A    between atoms: C_4  and  N_5
REMARK    6  A    between atoms: C_8  and  C_9
REMARK                            x       y       z     vdW  Elec       q    Type
REMARK                         _______ _______ _______ _____ _____    ______ ____
ROOT
ATOM      1  N   UNL     1      45.838   4.459  12.891  0.00  0.00    +0.000 N 
ATOM      2  C   UNL     1      46.784   5.193  13.623  0.00  0.00    +0.000 A 
ATOM      3  C   UNL     1      47.035   4.818  14.942  0.00  0.00    +0.000 A 
ATOM      4  C   UNL     1      47.974   5.516  15.720  0.00  0.00    +0.000 A 
ATOM      5  C   UNL     1      48.622   6.594  15.110  0.00  0.00    +0.000 A 
ATOM      6  C   UNL     1      48.299   6.926  13.809  0.00  0.00    +0.000 A 
ATOM      7  N   UNL     1      47.399   6.254  13.072  0.00  0.00    +0.000 NA
ATOM      8  H   UNL     1      46.051   3.468  12.967  0.00  0.00    +0.000 HD
ENDROOT
BRANCH   4   9
ATOM      9  C   UNL     1      48.278   5.134  17.117  0.00  0.00    +0.000 A 
ATOM     10  C   UNL     1      48.601   6.085  18.097  0.00  0.00    +0.000 A 
ATOM     11  C   UNL     1      48.914   5.694  19.398  0.00  0.00    +0.000 A 
ATOM     12  C   UNL     1      48.884   4.345  19.703  0.00  0.00    +0.000 A 
ATOM     13  N   UNL     1      48.570   3.390  18.807  0.00  0.00    +0.000 NA
ATOM     14  C   UNL     1      48.281   3.805  17.548  0.00  0.00    +0.000 A 
ENDBRANCH   4   9
BRANCH   1  15
ATOM     15  C   UNL     1      45.653   4.864  11.493  0.00  0.00    +0.000 C 
BRANCH  15  17
ATOM     16  C   UNL     1      43.827   3.157  11.843  0.00  0.00    +0.000 C 
ATOM     17  C   UNL     1      44.387   4.214  10.863  0.00  0.00    +0.000 C 
ATOM     18  C   UNL     1      43.278   5.272  10.652  0.00  0.00    +0.000 C 
BRANCH  17  19
ATOM     19  C   UNL     1      44.731   3.530   9.477  0.00  0.00    +0.000 C 
ATOM     20  C   UNL     1      45.274   2.091   9.616  0.00  0.00    +0.000 C 
ATOM     21  C   UNL     1      45.668   1.498   8.269  0.00  0.00    +0.000 C 
ATOM     22  O   UNL     1      46.611   2.333   7.606  0.00  0.00    +0.000 OA
ATOM     23  C   UNL     1      46.063   3.615   7.312  0.00  0.00    +0.000 C 
ATOM     24  C   UNL     1      45.700   4.351   8.596  0.00  0.00    +0.000 C 
ENDBRANCH  17  19
ENDBRANCH  15  17
ENDBRANCH   1  15
TORSDOF 4
ENDMDL
MODEL 7
REMARK VINA RESULT:    -5.915      5.624      8.184
REMARK INTER + INTRA:          -8.041
REMARK INTER:                  -7.491
REMARK INTRA:                  -0.550
REMARK UNBOUND:                -0.743
REMARK  Name = 
REMARK  6 active torsions:
REMARK  status: ('A' for Active; 'I' for Inactive)
REMARK    1  A    between atoms: C_1  and  C_2
REMARK    2  A    between atoms: C_2  and  C_3
REMARK    3  A    between atoms: C_2  and  C_4
REMARK    4  A    between atoms: C_2  and  C_18
REMARK    5  A    between atoms: C_4  and  N_5
REMARK    6  A    between atoms: C_8  and  C_9
REMARK                            x       y       z     vdW  Elec       q    Type
REMARK                         _______ _______ _______ _____ _____    ______ ____
ROOT
ATOM      1  N   UNL     1      48.297   5.407  16.258  0.00  0.00    +0.000 N 
ATOM      2  C   UNL     1      48.053   5.806  14.934  0.00  0.00    +0.000 A 
ATOM      3  C   UNL     1      46.868   5.394  14.327  0.00  0.00    +0.000 A 
ATOM      4  C   UNL     1      46.572   5.766  13.005  0.00  0.00    +0.000 A 
ATOM      5  C   UNL     1      47.521   6.550  12.342  0.00  0.00    +0.000 A 
ATOM      6  C   UNL     1      48.687   6.893  12.998  0.00  0.00    +0.000 A 
ATOM      7  N   UNL     1      48.963   6.533  14.262  0.00  0.00    +0.000 NA
ATOM      8  H   UNL     1      47.485   5.627  16.828  0.00  0.00    +0.000 HD
ENDROOT
BRANCH   4   9
ATOM      9  C   UNL     1      45.315   5.362  12.337  0.00  0.00    +0.000 A 
ATOM     10  C   UNL     1      45.287   4.922  11.005  0.00  0.00    +0.000 A 
ATOM     11  C   UNL     1      44.084   4.577  10.390  0.00  0.00    +0.000 A 
ATOM     12  C   UNL     1      42.920   4.666  11.131  0.00  0.00    +0.000 A 
ATOM     13  N   UNL     1      42.888   5.072  12.415  0.00  0.00    +0.000 NA
ATOM     14  C   UNL     1      44.075   5.408  12.978  0.00  0.00    +0.000 A 
ENDBRANCH   4   9
BRANCH   1  15
ATOM     15  C   UNL     1      49.534   5.913  16.863  0.00  0.00    +0.000 C 
BRANCH  15  17
ATOM     16  C   UNL     1      50.628   6.002  19.136  0.00  0.00    +0.000 C 
ATOM     17  C   UNL     1      49.963   5.068  18.098  0.00  0.00    +0.000 C 
ATOM     18  C   UNL     1      48.728   4.435  18.781  0.00  0.00    +0.000 C 
BRANCH  17  19
ATOM     19  C   UNL     1      50.975   3.926  17.679  0.00  0.00    +0.000 C 
ATOM     20  C   UNL     1      50.310   2.542  17.511  0.00  0.00    +0.000 C 
ATOM     21  C   UNL     1      51.328   1.456  17.186  0.00  0.00    +0.000 C 
ATOM     22  O   UNL     1      52.349   1.408  18.177  0.00  0.00    +0.000 OA
ATOM     23  C   UNL     1      53.091   2.624  18.226  0.00  0.00    +0.000 C 
ATOM     24  C   UNL     1      52.192   3.787  18.624  0.00  0.00    +0.000 C 
ENDBRANCH  17  19
ENDBRANCH  15  17
ENDBRANCH   1  15
TORSDOF 4
ENDMDL
MODEL 8
REMARK VINA RESULT:    -5.459      3.837      7.592
REMARK INTER + INTRA:          -7.478
REMARK INTER:                  -6.832
REMARK INTRA:                  -0.645
REMARK UNBOUND:                -0.743
REMARK  Name = 
REMARK  6 active torsions:
REMARK  status: ('A' for Active; 'I' for Inactive)
REMARK    1  A    between atoms: C_1  and  C_2
REMARK    2  A    between atoms: C_2  and  C_3
REMARK    3  A    between atoms: C_2  and  C_4
REMARK    4  A    between atoms: C_2  and  C_18
REMARK    5  A    between atoms: C_4  and  N_5
REMARK    6  A    between atoms: C_8  and  C_9
REMARK                            x       y       z     vdW  Elec       q    Type
REMARK                         _______ _______ _______ _____ _____    ______ ____
ROOT
ATOM      1  N   UNL     1      48.548   7.968  12.746  0.00  0.00    +0.000 N 
ATOM      2  C   UNL     1      47.226   7.765  12.318  0.00  0.00    +0.000 A 
ATOM      3  C   UNL     1      46.932   6.601  11.609  0.00  0.00    +0.000 A 
ATOM      4  C   UNL     1      45.626   6.346  11.160  0.00  0.00    +0.000 A 
ATOM      5  C   UNL     1      44.659   7.313  11.449  0.00  0.00    +0.000 A 
ATOM      6  C   UNL     1      45.031   8.456  12.129  0.00  0.00    +0.000 A 
ATOM      7  N   UNL     1      46.283   8.693  12.555  0.00  0.00    +0.000 NA
ATOM      8  H   UNL     1      48.873   7.137  13.233  0.00  0.00    +0.000 HD
ENDROOT
BRANCH   4   9
ATOM      9  C   UNL     1      45.275   5.114  10.420  0.00  0.00    +0.000 A 
ATOM     10  C   UNL     1      45.614   4.930   9.071  0.00  0.00    +0.000 A 
ATOM     11  C   UNL     1      45.243   3.772   8.390  0.00  0.00    +0.000 A 
ATOM     12  C   UNL     1      44.543   2.800   9.082  0.00  0.00    +0.000 A 
ATOM     13  N   UNL     1      44.199   2.917  10.379  0.00  0.00    +0.000 NA
ATOM     14  C   UNL     1      44.568   4.061  11.008  0.00  0.00    +0.000 A 
ENDBRANCH   4   9
BRANCH   1  15
ATOM     15  C   UNL     1      48.789   9.183  13.532  0.00  0.00    +0.000 C 
BRANCH  15  17
ATOM     16  C   UNL     1      50.913   8.106  14.368  0.00  0.00    +0.000 C 
ATOM     17  C   UNL     1      49.653   8.895  14.794  0.00  0.00    +0.000 C 
ATOM     18  C   UNL     1      50.139  10.217  15.435  0.00  0.00    +0.000 C 
BRANCH  17  19
ATOM     19  C   UNL     1      48.836   8.062  15.864  0.00  0.00    +0.000 C 
ATOM     20  C   UNL     1      48.833   8.698  17.271  0.00  0.00    +0.000 C 
ATOM     21  C   UNL     1      48.105   7.828  18.288  0.00  0.00    +0.000 C 
ATOM     22  O   UNL     1      48.664   6.519  18.325  0.00  0.00    +0.000 OA
ATOM     23  C   UNL     1      48.517   5.849  17.076  0.00  0.00    +0.000 C 
ATOM     24  C   UNL     1      49.277   6.584  15.979  0.00  0.00    +0.000 C 
ENDBRANCH  17  19
ENDBRANCH  15  17
ENDBRANCH   1  15
TORSDOF 4
ENDMDL
MODEL 9
REMARK VINA RESULT:    -5.444      4.194      7.637
REMARK INTER + INTRA:          -7.460
REMARK INTER:                  -6.949
REMARK INTRA:                  -0.511
REMARK UNBOUND:                -0.743
REMARK  Name = 
REMARK  6 active torsions:
REMARK  status: ('A' for Active; 'I' for Inactive)
REMARK    1  A    between atoms: C_1  and  C_2
REMARK    2  A    between atoms: C_2  and  C_3
REMARK    3  A    between atoms: C_2  and  C_4
REMARK    4  A    between atoms: C_2  and  C_18
REMARK    5  A    between atoms: C_4  and  N_5
REMARK    6  A    between atoms: C_8  and  C_9
REMARK                            x       y       z     vdW  Elec       q    Type
REMARK                         _______ _______ _______ _____ _____    ______ ____
ROOT
ATOM      1  N   UNL     1      48.156   6.541  14.348  0.00  0.00    +0.000 N 
ATOM      2  C   UNL     1      47.153   6.809  13.403  0.00  0.00    +0.000 A 
ATOM      3  C   UNL     1      46.770   5.786  12.536  0.00  0.00    +0.000 A 
ATOM      4  C   UNL     1      45.769   5.998  11.574  0.00  0.00    +0.000 A 
ATOM      5  C   UNL     1      45.197   7.273  11.528  0.00  0.00    +0.000 A 
ATOM      6  C   UNL     1      45.650   8.246  12.398  0.00  0.00    +0.000 A 
ATOM      7  N   UNL     1      46.608   8.035  13.316  0.00  0.00    +0.000 NA
ATOM      8  H   UNL     1      47.924   5.689  14.850  0.00  0.00    +0.000 HD
ENDROOT
BRANCH   4   9
ATOM      9  C   UNL     1      45.326   4.930  10.651  0.00  0.00    +0.000 A 
ATOM     10  C   UNL     1      45.566   4.990   9.270  0.00  0.00    +0.000 A 
ATOM     11  C   UNL     1      45.110   3.984   8.419  0.00  0.00    +0.000 A 
ATOM     12  C   UNL     1      44.425   2.917   8.973  0.00  0.00    +0.000 A 
ATOM     13  N   UNL     1      44.175   2.801  10.291  0.00  0.00    +0.000 NA
ATOM     14  C   UNL     1      44.626   3.803  11.088  0.00  0.00    +0.000 A 
ENDBRANCH   4   9
BRANCH   1  15
ATOM     15  C   UNL     1      48.482   7.637  15.267  0.00  0.00    +0.000 C 
BRANCH  15  17
ATOM     16  C   UNL     1      48.439   7.936  17.773  0.00  0.00    +0.000 C 
ATOM     17  C   UNL     1      49.052   7.112  16.617  0.00  0.00    +0.000 C 
ATOM     18  C   UNL     1      48.644   5.637  16.843  0.00  0.00    +0.000 C 
BRANCH  17  19
ATOM     19  C   UNL     1      50.630   7.232  16.651  0.00  0.00    +0.000 C 
ATOM     20  C   UNL     1      51.231   7.836  15.363  0.00  0.00    +0.000 C 
ATOM     21  C   UNL     1      52.754   7.861  15.402  0.00  0.00    +0.000 C 
ATOM     22  O   UNL     1      53.275   6.557  15.640  0.00  0.00    +0.000 OA
ATOM     23  C   UNL     1      52.868   6.052  16.910  0.00  0.00    +0.000 C 
ATOM     24  C   UNL     1      51.354   5.903  16.969  0.00  0.00    +0.000 C 
ENDBRANCH  17  19
ENDBRANCH  15  17
ENDBRANCH   1  15
TORSDOF 4
ENDMDL
