MODEL 1
REMARK VINA RESULT:    -8.900      0.000      0.000
REMARK INTER + INTRA:         -12.726
REMARK INTER:                 -12.543
REMARK INTRA:                  -0.184
REMARK UNBOUND:                -0.184
REMARK  Name = 
REMARK  8 active torsions:
REMARK  status: ('A' for Active; 'I' for Inactive)
REMARK    1  A    between atoms: C_1  and  C_2
REMARK    2  A    between atoms: C_2  and  N_3
REMARK    3  A    between atoms: C_2  and  C_18
REMARK    4  A    between atoms: N_3  and  C_4
REMARK    5  A    between atoms: C_4  and  C_5
REMARK    6  A    between atoms: N_8  and  C_9
REMARK    7  A    between atoms: C_9  and  C_10
REMARK    8  A    between atoms: C_18  and  C_20
REMARK                            x       y       z     vdW  Elec       q    Type
REMARK                         _______ _______ _______ _____ _____    ______ ____
ROOT
ATOM      1  N   UNL     1      47.181   3.241  14.109  0.00  0.00    +0.000 NA
ATOM      2  H   UNL     1      46.916   2.408  14.627  0.00  0.00    +0.000 HD
ENDROOT
BRANCH   1   4
ATOM      3  C   UNL     1      47.871   5.607  14.532  0.00  0.00    +0.000 C 
ATOM      4  C   UNL     1      47.060   4.405  15.025  0.00  0.00    +0.000 C 
BRANCH   4   5
ATOM      5  C   UNL     1      47.370   4.060  16.501  0.00  0.00    +0.000 C 
ATOM      6  O   UNL     1      46.513   3.532  17.212  0.00  0.00    +0.000 OA
BRANCH   5   7
ATOM      7  C   UNL     1      48.693   4.381  17.066  0.00  0.00    +0.000 A 
ATOM      8  C   UNL     1      49.030   5.611  17.607  0.00  0.00    +0.000 A 
ATOM      9  S   UNL     1      50.548   5.615  18.393  0.00  0.00    +0.000 S 
ATOM     10  C   UNL     1      50.824   3.987  17.984  0.00  0.00    +0.000 A 
ATOM     11  N   UNL     1      51.941   3.334  18.403  0.00  0.00    +0.000 NA
ATOM     12  C   UNL     1      52.010   2.103  18.014  0.00  0.00    +0.000 A 
ATOM     13  N   UNL     1      51.083   1.478  17.217  0.00  0.00    +0.000 N 
ATOM     14  C   UNL     1      50.004   2.138  16.670  0.00  0.00    +0.000 A 
ATOM     15  O   UNL     1      49.363   1.649  15.745  0.00  0.00    +0.000 OA
ATOM     16  C   UNL     1      49.806   3.474  17.201  0.00  0.00    +0.000 A 
ATOM     17  H   UNL     1      51.255   0.550  16.861  0.00  0.00    +0.000 HD
ENDBRANCH   5   7
ENDBRANCH   4   5
ENDBRANCH   1   4
BRANCH   1  18
ATOM     18  C   UNL     1      46.366   3.326  12.892  0.00  0.00    +0.000 C 
BRANCH  18  19
ATOM     19  C   UNL     1      45.375   4.519  12.954  0.00  0.00    +0.000 C 
ATOM     20  C   UNL     1      43.930   4.046  12.732  0.00  0.00    +0.000 C 
ATOM     21  C   UNL     1      43.676   3.608  11.285  0.00  0.00    +0.000 C 
ATOM     22  N   UNL     1      44.045   4.638  10.299  0.00  0.00    +0.000 NA
ATOM     23  C   UNL     1      45.412   5.142  10.495  0.00  0.00    +0.000 C 
ATOM     24  C   UNL     1      45.648   5.626  11.926  0.00  0.00    +0.000 C 
BRANCH  22  25
ATOM     25  C   UNL     1      43.901   4.136   8.915  0.00  0.00    +0.000 C 
BRANCH  25  26
ATOM     26  C   UNL     1      45.058   3.286   8.458  0.00  0.00    +0.000 A 
ATOM     27  C   UNL     1      46.065   3.799   7.638  0.00  0.00    +0.000 A 
ATOM     28  C   UNL     1      47.085   2.964   7.192  0.00  0.00    +0.000 A 
ATOM     29  C   UNL     1      47.066   1.638   7.594  0.00  0.00    +0.000 A 
ATOM     30  N   UNL     1      46.125   1.109   8.404  0.00  0.00    +0.000 NA
ATOM     31  C   UNL     1      45.144   1.943   8.816  0.00  0.00    +0.000 A 
ENDBRANCH  25  26
ENDBRANCH  22  25
ENDBRANCH  18  19
ENDBRANCH   1  18
TORSDOF 7
ENDMDL
MODEL 2
REMARK VINA RESULT:    -8.831      2.217      2.882
REMARK INTER + INTRA:         -12.629
REMARK INTER:                 -11.751
REMARK INTRA:                  -0.878
REMARK UNBOUND:                -0.184
REMARK  Name = 
REMARK  8 active torsions:
REMARK  status: ('A' for Active; 'I' for Inactive)
REMARK    1  A    between atoms: C_1  and  C_2
REMARK    2  A    between atoms: C_2  and  N_3
REMARK    3  A    between atoms: C_2  and  C_18
REMARK    4  A    between atoms: N_3  and  C_4
REMARK    5  A    between atoms: C_4  and  C_5
REMARK    6  A    between atoms: N_8  and  C_9
REMARK    7  A    between atoms: C_9  and  C_10
REMARK    8  A    between atoms: C_18  and  C_20
REMARK                            x       y       z     vdW  Elec       q    Type
REMARK                         _______ _______ _______ _____ _____    ______ ____
ROOT
ATOM      1  N   UNL     1      46.035   6.248  13.723  0.00  0.00    +0.000 NA
ATOM      2  H   UNL     1      45.772   6.515  14.669  0.00  0.00    +0.000 HD
ENDROOT
BRANCH   1   4
ATOM      3  C   UNL     1      47.093   7.361  11.749  0.00  0.00    +0.000 C 
ATOM      4  C   UNL     1      47.105   7.173  13.270  0.00  0.00    +0.000 C 
BRANCH   4   5
ATOM      5  C   UNL     1      48.509   6.797  13.798  0.00  0.00    +0.000 C 
ATOM      6  O   UNL     1      49.443   6.612  13.015  0.00  0.00    +0.000 OA
BRANCH   5   7
ATOM      7  C   UNL     1      48.729   6.639  15.248  0.00  0.00    +0.000 A 
ATOM      8  C   UNL     1      49.390   7.563  16.039  0.00  0.00    +0.000 A 
ATOM      9  S   UNL     1      49.285   7.224  17.711  0.00  0.00    +0.000 S 
ATOM     10  C   UNL     1      48.399   5.801  17.422  0.00  0.00    +0.000 A 
ATOM     11  N   UNL     1      47.934   5.039  18.448  0.00  0.00    +0.000 NA
ATOM     12  C   UNL     1      47.280   3.990  18.071  0.00  0.00    +0.000 A 
ATOM     13  N   UNL     1      47.078   3.617  16.765  0.00  0.00    +0.000 N 
ATOM     14  C   UNL     1      47.638   4.292  15.702  0.00  0.00    +0.000 A 
ATOM     15  O   UNL     1      47.689   3.787  14.585  0.00  0.00    +0.000 OA
ATOM     16  C   UNL     1      48.250   5.555  16.070  0.00  0.00    +0.000 A 
ATOM     17  H   UNL     1      46.653   2.729  16.545  0.00  0.00    +0.000 HD
ENDBRANCH   5   7
ENDBRANCH   4   5
ENDBRANCH   1   4
BRANCH   1  18
ATOM     18  C   UNL     1      44.835   6.230  12.881  0.00  0.00    +0.000 C 
BRANCH  18  19
ATOM     19  C   UNL     1      44.130   4.848  12.925  0.00  0.00    +0.000 C 
ATOM     20  C   UNL     1      45.083   3.729  12.475  0.00  0.00    +0.000 C 
ATOM     21  C   UNL     1      45.384   3.789  10.973  0.00  0.00    +0.000 C 
ATOM     22  N   UNL     1      44.168   3.803  10.142  0.00  0.00    +0.000 NA
ATOM     23  C   UNL     1      43.212   4.840  10.559  0.00  0.00    +0.000 C 
ATOM     24  C   UNL     1      42.874   4.746  12.048  0.00  0.00    +0.000 C 
BRANCH  22  25
ATOM     25  C   UNL     1      44.493   3.983   8.711  0.00  0.00    +0.000 C 
BRANCH  25  26
ATOM     26  C   UNL     1      45.555   3.039   8.210  0.00  0.00    +0.000 A 
ATOM     27  C   UNL     1      46.594   3.475   7.385  0.00  0.00    +0.000 A 
ATOM     28  C   UNL     1      47.520   2.559   6.898  0.00  0.00    +0.000 A 
ATOM     29  C   UNL     1      47.379   1.229   7.264  0.00  0.00    +0.000 A 
ATOM     30  N   UNL     1      46.404   0.771   8.078  0.00  0.00    +0.000 NA
ATOM     31  C   UNL     1      45.516   1.684   8.530  0.00  0.00    +0.000 A 
ENDBRANCH  25  26
ENDBRANCH  22  25
ENDBRANCH  18  19
ENDBRANCH   1  18
TORSDOF 7
ENDMDL
MODEL 3
REMARK VINA RESULT:    -7.333      2.818      3.715
REMARK INTER + INTRA:         -10.517
REMARK INTER:                  -9.508
REMARK INTRA:                  -1.009
REMARK UNBOUND:                -0.184
REMARK  Name = 
REMARK  8 active torsions:
REMARK  status: ('A' for Active; 'I' for Inactive)
REMARK    1  A    between atoms: C_1  and  C_2
REMARK    2  A    between atoms: C_2  and  N_3
REMARK    3  A    between atoms: C_2  and  C_18
REMARK    4  A    between atoms: N_3  and  C_4
REMARK    5  A    between atoms: C_4  and  C_5
REMARK    6  A    between atoms: N_8  and  C_9
REMARK    7  A    between atoms: C_9  and  C_10
REMARK    8  A    between atoms: C_18  and  C_20
REMARK                            x       y       z     vdW  Elec       q    Type
REMARK                         _______ _______ _______ _____ _____    ______ ____
ROOT
ATOM      1  N   UNL     1      48.585   6.284  13.001  0.00  0.00    +0.000 NA
ATOM      2  H   UNL     1      48.980   5.403  13.320  0.00  0.00    +0.000 HD
ENDROOT
BRANCH   1   4
ATOM      3  C   UNL     1      48.909   8.636  13.787  0.00  0.00    +0.000 C 
ATOM      4  C   UNL     1      48.522   7.203  14.166  0.00  0.00    +0.000 C 
BRANCH   4   5
ATOM      5  C   UNL     1      49.313   6.694  15.395  0.00  0.00    +0.000 C 
ATOM      6  O   UNL     1      50.541   6.791  15.432  0.00  0.00    +0.000 OA
BRANCH   5   7
ATOM      7  C   UNL     1      48.594   6.072  16.522  0.00  0.00    +0.000 A 
ATOM      8  C   UNL     1      48.199   4.745  16.554  0.00  0.00    +0.000 A 
ATOM      9  S   UNL     1      47.598   4.252  18.077  0.00  0.00    +0.000 S 
ATOM     10  C   UNL     1      47.797   5.814  18.721  0.00  0.00    +0.000 A 
ATOM     11  N   UNL     1      47.516   6.081  20.025  0.00  0.00    +0.000 NA
ATOM     12  C   UNL     1      47.716   7.311  20.366  0.00  0.00    +0.000 A 
ATOM     13  N   UNL     1      48.138   8.304  19.517  0.00  0.00    +0.000 N 
ATOM     14  C   UNL     1      48.313   8.104  18.164  0.00  0.00    +0.000 A 
ATOM     15  O   UNL     1      48.403   9.050  17.389  0.00  0.00    +0.000 OA
ATOM     16  C   UNL     1      48.246   6.709  17.768  0.00  0.00    +0.000 A 
ATOM     17  H   UNL     1      48.167   9.264  19.824  0.00  0.00    +0.000 HD
ENDBRANCH   5   7
ENDBRANCH   4   5
ENDBRANCH   1   4
BRANCH   1  18
ATOM     18  C   UNL     1      47.297   6.023  12.349  0.00  0.00    +0.000 C 
BRANCH  18  19
ATOM     19  C   UNL     1      46.220   5.584  13.377  0.00  0.00    +0.000 C 
ATOM     20  C   UNL     1      46.124   4.052  13.454  0.00  0.00    +0.000 C 
ATOM     21  C   UNL     1      45.504   3.443  12.191  0.00  0.00    +0.000 C 
ATOM     22  N   UNL     1      44.196   4.031  11.851  0.00  0.00    +0.000 NA
ATOM     23  C   UNL     1      44.235   5.500  11.798  0.00  0.00    +0.000 C 
ATOM     24  C   UNL     1      44.807   6.108  13.079  0.00  0.00    +0.000 C 
BRANCH  22  25
ATOM     25  C   UNL     1      43.687   3.507  10.566  0.00  0.00    +0.000 C 
BRANCH  25  26
ATOM     26  C   UNL     1      44.750   3.369   9.507  0.00  0.00    +0.000 A 
ATOM     27  C   UNL     1      45.310   4.485   8.881  0.00  0.00    +0.000 A 
ATOM     28  C   UNL     1      46.247   4.310   7.868  0.00  0.00    +0.000 A 
ATOM     29  C   UNL     1      46.601   3.016   7.520  0.00  0.00    +0.000 A 
ATOM     30  N   UNL     1      46.100   1.912   8.116  0.00  0.00    +0.000 NA
ATOM     31  C   UNL     1      45.188   2.113   9.093  0.00  0.00    +0.000 A 
ENDBRANCH  25  26
ENDBRANCH  22  25
ENDBRANCH  18  19
ENDBRANCH   1  18
TORSDOF 7
ENDMDL
MODEL 4
REMARK VINA RESULT:    -7.332      2.719      3.700
REMARK INTER + INTRA:         -10.516
REMARK INTER:                  -9.425
REMARK INTRA:                  -1.091
REMARK UNBOUND:                -0.184
REMARK  Name = 
REMARK  8 active torsions:
REMARK  status: ('A' for Active; 'I' for Inactive)
REMARK    1  A    between atoms: C_1  and  C_2
REMARK    2  A    between atoms: C_2  and  N_3
REMARK    3  A    between atoms: C_2  and  C_18
REMARK    4  A    between atoms: N_3  and  C_4
REMARK    5  A    between atoms: C_4  and  C_5
REMARK    6  A    between atoms: N_8  and  C_9
REMARK    7  A    between atoms: C_9  and  C_10
REMARK    8  A    between atoms: C_18  and  C_20
REMARK                            x       y       z     vdW  Elec       q    Type
REMARK                         _______ _______ _______ _____ _____    ______ ____
ROOT
ATOM      1  N   UNL     1      48.073   9.177  14.758  0.00  0.00    +0.000 NA
ATOM      2  H   UNL     1      48.887   9.266  14.154  0.00  0.00    +0.000 HD
ENDROOT
BRANCH   1   4
ATOM      3  C   UNL     1      48.960   9.343  17.091  0.00  0.00    +0.000 C 
ATOM      4  C   UNL     1      48.485   8.417  15.966  0.00  0.00    +0.000 C 
BRANCH   4   5
ATOM      5  C   UNL     1      49.505   7.293  15.669  0.00  0.00    +0.000 C 
ATOM      6  O   UNL     1      50.171   7.313  14.632  0.00  0.00    +0.000 OA
BRANCH   5   7
ATOM      7  C   UNL     1      49.670   6.182  16.623  0.00  0.00    +0.000 A 
ATOM      8  C   UNL     1      50.670   6.119  17.579  0.00  0.00    +0.000 A 
ATOM      9  S   UNL     1      50.469   4.834  18.689  0.00  0.00    +0.000 S 
ATOM     10  C   UNL     1      49.068   4.291  17.889  0.00  0.00    +0.000 A 
ATOM     11  N   UNL     1      48.351   3.236  18.360  0.00  0.00    +0.000 NA
ATOM     12  C   UNL     1      47.315   2.942  17.646  0.00  0.00    +0.000 A 
ATOM     13  N   UNL     1      46.951   3.583  16.488  0.00  0.00    +0.000 N 
ATOM     14  C   UNL     1      47.717   4.573  15.911  0.00  0.00    +0.000 A 
ATOM     15  O   UNL     1      47.532   4.924  14.750  0.00  0.00    +0.000 OA
ATOM     16  C   UNL     1      48.804   5.036  16.755  0.00  0.00    +0.000 A 
ATOM     17  H   UNL     1      46.193   3.231  15.923  0.00  0.00    +0.000 HD
ENDBRANCH   5   7
ENDBRANCH   4   5
ENDBRANCH   1   4
BRANCH   1  18
ATOM     18  C   UNL     1      46.974   8.577  13.995  0.00  0.00    +0.000 C 
BRANCH  18  19
ATOM     19  C   UNL     1      47.141   8.821  12.471  0.00  0.00    +0.000 C 
ATOM     20  C   UNL     1      45.776   9.025  11.793  0.00  0.00    +0.000 C 
ATOM     21  C   UNL     1      44.956   7.732  11.734  0.00  0.00    +0.000 C 
ATOM     22  N   UNL     1      45.686   6.616  11.108  0.00  0.00    +0.000 NA
ATOM     23  C   UNL     1      47.013   6.405  11.707  0.00  0.00    +0.000 C 
ATOM     24  C   UNL     1      47.849   7.685  11.719  0.00  0.00    +0.000 C 
BRANCH  22  25
ATOM     25  C   UNL     1      44.911   5.358  11.178  0.00  0.00    +0.000 C 
BRANCH  25  26
ATOM     26  C   UNL     1      45.129   4.448   9.997  0.00  0.00    +0.000 A 
ATOM     27  C   UNL     1      44.797   3.093  10.045  0.00  0.00    +0.000 A 
ATOM     28  C   UNL     1      45.068   2.277   8.951  0.00  0.00    +0.000 A 
ATOM     29  C   UNL     1      45.656   2.852   7.836  0.00  0.00    +0.000 A 
ATOM     30  N   UNL     1      45.970   4.161   7.741  0.00  0.00    +0.000 NA
ATOM     31  C   UNL     1      45.701   4.928   8.821  0.00  0.00    +0.000 A 
ENDBRANCH  25  26
ENDBRANCH  22  25
ENDBRANCH  18  19
ENDBRANCH   1  18
TORSDOF 7
ENDMDL
MODEL 5
REMARK VINA RESULT:    -7.303      2.265      2.741
REMARK INTER + INTRA:         -10.476
REMARK INTER:                  -9.526
REMARK INTRA:                  -0.950
REMARK UNBOUND:                -0.184
REMARK  Name = 
REMARK  8 active torsions:
REMARK  status: ('A' for Active; 'I' for Inactive)
REMARK    1  A    between atoms: C_1  and  C_2
REMARK    2  A    between atoms: C_2  and  N_3
REMARK    3  A    between atoms: C_2  and  C_18
REMARK    4  A    between atoms: N_3  and  C_4
REMARK    5  A    between atoms: C_4  and  C_5
REMARK    6  A    between atoms: N_8  and  C_9
REMARK    7  A    between atoms: C_9  and  C_10
REMARK    8  A    between atoms: C_18  and  C_20
REMARK                            x       y       z     vdW  Elec       q    Type
REMARK                         _______ _______ _______ _____ _____    ______ ____
ROOT
ATOM      1  N   UNL     1      48.502   6.394  13.312  0.00  0.00    +0.000 NA
ATOM      2  H   UNL     1      48.601   5.805  14.135  0.00  0.00    +0.000 HD
ENDROOT
BRANCH   1   4
ATOM      3  C   UNL     1      48.862   8.805  12.751  0.00  0.00    +0.000 C 
ATOM      4  C   UNL     1      48.328   7.796  13.773  0.00  0.00    +0.000 C 
BRANCH   4   5
ATOM      5  C   UNL     1      48.891   8.051  15.191  0.00  0.00    +0.000 C 
ATOM      6  O   UNL     1      48.351   8.869  15.939  0.00  0.00    +0.000 OA
BRANCH   5   7
ATOM      7  C   UNL     1      50.091   7.325  15.645  0.00  0.00    +0.000 A 
ATOM      8  C   UNL     1      51.389   7.747  15.411  0.00  0.00    +0.000 A 
ATOM      9  S   UNL     1      52.563   6.833  16.254  0.00  0.00    +0.000 S 
ATOM     10  C   UNL     1      51.372   5.811  16.911  0.00  0.00    +0.000 A 
ATOM     11  N   UNL     1      51.697   4.820  17.784  0.00  0.00    +0.000 NA
ATOM     12  C   UNL     1      50.686   4.128  18.196  0.00  0.00    +0.000 A 
ATOM     13  N   UNL     1      49.388   4.315  17.790  0.00  0.00    +0.000 N 
ATOM     14  C   UNL     1      49.035   5.223  16.815  0.00  0.00    +0.000 A 
ATOM     15  O   UNL     1      47.939   5.172  16.267  0.00  0.00    +0.000 OA
ATOM     16  C   UNL     1      50.111   6.121  16.437  0.00  0.00    +0.000 A 
ATOM     17  H   UNL     1      48.665   3.668  18.068  0.00  0.00    +0.000 HD
ENDBRANCH   5   7
ENDBRANCH   4   5
ENDBRANCH   1   4
BRANCH   1  18
ATOM     18  C   UNL     1      47.409   5.876  12.482  0.00  0.00    +0.000 C 
BRANCH  18  19
ATOM     19  C   UNL     1      46.125   5.636  13.320  0.00  0.00    +0.000 C 
ATOM     20  C   UNL     1      45.690   4.163  13.253  0.00  0.00    +0.000 C 
ATOM     21  C   UNL     1      45.143   3.779  11.874  0.00  0.00    +0.000 C 
ATOM     22  N   UNL     1      44.057   4.664  11.418  0.00  0.00    +0.000 NA
ATOM     23  C   UNL     1      44.420   6.088  11.496  0.00  0.00    +0.000 C 
ATOM     24  C   UNL     1      44.917   6.480  12.888  0.00  0.00    +0.000 C 
BRANCH  22  25
ATOM     25  C   UNL     1      43.639   4.339  10.038  0.00  0.00    +0.000 C 
BRANCH  25  26
ATOM     26  C   UNL     1      44.715   3.668   9.224  0.00  0.00    +0.000 A 
ATOM     27  C   UNL     1      45.573   4.399   8.399  0.00  0.00    +0.000 A 
ATOM     28  C   UNL     1      46.515   3.734   7.621  0.00  0.00    +0.000 A 
ATOM     29  C   UNL     1      46.572   2.351   7.703  0.00  0.00    +0.000 A 
ATOM     30  N   UNL     1      45.778   1.611   8.505  0.00  0.00    +0.000 NA
ATOM     31  C   UNL     1      44.869   2.284   9.244  0.00  0.00    +0.000 A 
ENDBRANCH  25  26
ENDBRANCH  22  25
ENDBRANCH  18  19
ENDBRANCH   1  18
TORSDOF 7
ENDMDL
MODEL 6
REMARK VINA RESULT:    -7.275      4.106      4.868
REMARK INTER + INTRA:         -10.436
REMARK INTER:                  -9.632
REMARK INTRA:                  -0.804
REMARK UNBOUND:                -0.184
REMARK  Name = 
REMARK  8 active torsions:
REMARK  status: ('A' for Active; 'I' for Inactive)
REMARK    1  A    between atoms: C_1  and  C_2
REMARK    2  A    between atoms: C_2  and  N_3
REMARK    3  A    between atoms: C_2  and  C_18
REMARK    4  A    between atoms: N_3  and  C_4
REMARK    5  A    between atoms: C_4  and  C_5
REMARK    6  A    between atoms: N_8  and  C_9
REMARK    7  A    between atoms: C_9  and  C_10
REMARK    8  A    between atoms: C_18  and  C_20
REMARK                            x       y       z     vdW  Elec       q    Type
REMARK                         _______ _______ _______ _____ _____    ______ ____
ROOT
ATOM      1  N   UNL     1      46.040   7.344  13.458  0.00  0.00    +0.000 NA
ATOM      2  H   UNL     1      45.301   7.189  14.140  0.00  0.00    +0.000 HD
ENDROOT
BRANCH   1   4
ATOM      3  C   UNL     1      44.931   8.435  11.499  0.00  0.00    +0.000 C 
ATOM      4  C   UNL     1      45.762   8.632  12.771  0.00  0.00    +0.000 C 
BRANCH   4   5
ATOM      5  C   UNL     1      47.031   9.478  12.511  0.00  0.00    +0.000 C 
ATOM      6  O   UNL     1      46.941  10.684  12.277  0.00  0.00    +0.000 OA
BRANCH   5   7
ATOM      7  C   UNL     1      48.356   8.832  12.525  0.00  0.00    +0.000 A 
ATOM      8  C   UNL     1      48.979   8.311  11.404  0.00  0.00    +0.000 A 
ATOM      9  S   UNL     1      50.599   7.841  11.683  0.00  0.00    +0.000 S 
ATOM     10  C   UNL     1      50.496   8.269  13.326  0.00  0.00    +0.000 A 
ATOM     11  N   UNL     1      51.573   8.167  14.151  0.00  0.00    +0.000 NA
ATOM     12  C   UNL     1      51.340   8.528  15.369  0.00  0.00    +0.000 A 
ATOM     13  N   UNL     1      50.124   8.949  15.846  0.00  0.00    +0.000 N 
ATOM     14  C   UNL     1      48.981   8.947  15.075  0.00  0.00    +0.000 A 
ATOM     15  O   UNL     1      47.870   9.045  15.587  0.00  0.00    +0.000 OA
ATOM     16  C   UNL     1      49.226   8.695  13.667  0.00  0.00    +0.000 A 
ATOM     17  H   UNL     1      49.987   9.110  16.832  0.00  0.00    +0.000 HD
ENDBRANCH   5   7
ENDBRANCH   4   5
ENDBRANCH   1   4
BRANCH   1  18
ATOM     18  C   UNL     1      46.126   6.178  12.573  0.00  0.00    +0.000 C 
BRANCH  18  19
ATOM     19  C   UNL     1      45.149   5.056  13.016  0.00  0.00    +0.000 C 
ATOM     20  C   UNL     1      45.643   3.678  12.546  0.00  0.00    +0.000 C 
ATOM     21  C   UNL     1      45.525   3.504  11.028  0.00  0.00    +0.000 C 
ATOM     22  N   UNL     1      44.168   3.771  10.522  0.00  0.00    +0.000 NA
ATOM     23  C   UNL     1      43.642   5.068  10.975  0.00  0.00    +0.000 C 
ATOM     24  C   UNL     1      43.714   5.219  12.495  0.00  0.00    +0.000 C 
BRANCH  22  25
ATOM     25  C   UNL     1      44.121   3.712   9.045  0.00  0.00    +0.000 C 
BRANCH  25  26
ATOM     26  C   UNL     1      45.260   2.936   8.436  0.00  0.00    +0.000 A 
ATOM     27  C   UNL     1      46.203   3.549   7.608  0.00  0.00    +0.000 A 
ATOM     28  C   UNL     1      47.206   2.784   7.020  0.00  0.00    +0.000 A 
ATOM     29  C   UNL     1      47.236   1.425   7.291  0.00  0.00    +0.000 A 
ATOM     30  N   UNL     1      46.357   0.800   8.103  0.00  0.00    +0.000 NA
ATOM     31  C   UNL     1      45.392   1.567   8.655  0.00  0.00    +0.000 A 
ENDBRANCH  25  26
ENDBRANCH  22  25
ENDBRANCH  18  19
ENDBRANCH   1  18
TORSDOF 7
ENDMDL
MODEL 7
REMARK VINA RESULT:    -7.193      1.928      3.249
REMARK INTER + INTRA:         -10.320
REMARK INTER:                  -9.362
REMARK INTRA:                  -0.958
REMARK UNBOUND:                -0.184
REMARK  Name = 
REMARK  8 active torsions:
REMARK  status: ('A' for Active; 'I' for Inactive)
REMARK    1  A    between atoms: C_1  and  C_2
REMARK    2  A    between atoms: C_2  and  N_3
REMARK    3  A    between atoms: C_2  and  C_18
REMARK    4  A    between atoms: N_3  and  C_4
REMARK    5  A    between atoms: C_4  and  C_5
REMARK    6  A    between atoms: N_8  and  C_9
REMARK    7  A    between atoms: C_9  and  C_10
REMARK    8  A    between atoms: C_18  and  C_20
REMARK                            x       y       z     vdW  Elec       q    Type
REMARK                         _______ _______ _______ _____ _____    ______ ____
ROOT
ATOM      1  N   UNL     1      49.421   6.270  15.870  0.00  0.00    +0.000 NA
ATOM      2  H   UNL     1      50.116   6.113  15.144  0.00  0.00    +0.000 HD
ENDROOT
BRANCH   1   4
ATOM      3  C   UNL     1      47.404   4.809  16.095  0.00  0.00    +0.000 C 
ATOM      4  C   UNL     1      48.915   4.944  16.310  0.00  0.00    +0.000 C 
BRANCH   4   5
ATOM      5  C   UNL     1      49.332   4.573  17.753  0.00  0.00    +0.000 C 
ATOM      6  O   UNL     1      48.503   4.582  18.664  0.00  0.00    +0.000 OA
BRANCH   5   7
ATOM      7  C   UNL     1      50.735   4.226  18.043  0.00  0.00    +0.000 A 
ATOM      8  C   UNL     1      51.639   5.082  18.649  0.00  0.00    +0.000 A 
ATOM      9  S   UNL     1      53.115   4.327  19.067  0.00  0.00    +0.000 S 
ATOM     10  C   UNL     1      52.608   2.847  18.398  0.00  0.00    +0.000 A 
ATOM     11  N   UNL     1      53.392   1.737  18.466  0.00  0.00    +0.000 NA
ATOM     12  C   UNL     1      52.873   0.690  17.915  0.00  0.00    +0.000 A 
ATOM     13  N   UNL     1      51.660   0.660  17.273  0.00  0.00    +0.000 N 
ATOM     14  C   UNL     1      50.894   1.788  17.073  0.00  0.00    +0.000 A 
ATOM     15  O   UNL     1      49.975   1.796  16.261  0.00  0.00    +0.000 OA
ATOM     16  C   UNL     1      51.365   2.950  17.804  0.00  0.00    +0.000 A 
ATOM     17  H   UNL     1      51.366  -0.163  16.770  0.00  0.00    +0.000 HD
ENDBRANCH   5   7
ENDBRANCH   4   5
ENDBRANCH   1   4
BRANCH   1  18
ATOM     18  C   UNL     1      48.395   7.186  15.360  0.00  0.00    +0.000 C 
BRANCH  18  19
ATOM     19  C   UNL     1      48.708   7.637  13.909  0.00  0.00    +0.000 C 
ATOM     20  C   UNL     1      47.697   8.692  13.430  0.00  0.00    +0.000 C 
ATOM     21  C   UNL     1      46.304   8.098  13.194  0.00  0.00    +0.000 C 
ATOM     22  N   UNL     1      46.318   6.939  12.284  0.00  0.00    +0.000 NA
ATOM     23  C   UNL     1      47.296   5.918  12.688  0.00  0.00    +0.000 C 
ATOM     24  C   UNL     1      48.697   6.503  12.874  0.00  0.00    +0.000 C 
BRANCH  22  25
ATOM     25  C   UNL     1      44.980   6.321  12.177  0.00  0.00    +0.000 C 
BRANCH  25  26
ATOM     26  C   UNL     1      44.899   5.232  11.138  0.00  0.00    +0.000 A 
ATOM     27  C   UNL     1      45.444   5.395   9.863  0.00  0.00    +0.000 A 
ATOM     28  C   UNL     1      45.297   4.386   8.916  0.00  0.00    +0.000 A 
ATOM     29  C   UNL     1      44.613   3.238   9.284  0.00  0.00    +0.000 A 
ATOM     30  N   UNL     1      44.093   3.033  10.512  0.00  0.00    +0.000 NA
ATOM     31  C   UNL     1      44.246   4.032  11.409  0.00  0.00    +0.000 A 
ENDBRANCH  25  26
ENDBRANCH  22  25
ENDBRANCH  18  19
ENDBRANCH   1  18
TORSDOF 7
ENDMDL
MODEL 8
REMARK VINA RESULT:    -7.142      2.679      4.122
REMARK INTER + INTRA:         -10.248
REMARK INTER:                  -9.138
REMARK INTRA:                  -1.110
REMARK UNBOUND:                -0.184
REMARK  Name = 
REMARK  8 active torsions:
REMARK  status: ('A' for Active; 'I' for Inactive)
REMARK    1  A    between atoms: C_1  and  C_2
REMARK    2  A    between atoms: C_2  and  N_3
REMARK    3  A    between atoms: C_2  and  C_18
REMARK    4  A    between atoms: N_3  and  C_4
REMARK    5  A    between atoms: C_4  and  C_5
REMARK    6  A    between atoms: N_8  and  C_9
REMARK    7  A    between atoms: C_9  and  C_10
REMARK    8  A    between atoms: C_18  and  C_20
REMARK                            x       y       z     vdW  Elec       q    Type
REMARK                         _______ _______ _______ _____ _____    ______ ____
ROOT
ATOM      1  N   UNL     1      49.973   6.871  15.175  0.00  0.00    +0.000 NA
ATOM      2  H   UNL     1      49.459   5.996  15.244  0.00  0.00    +0.000 HD
ENDROOT
BRANCH   1   4
ATOM      3  C   UNL     1      52.129   6.893  16.442  0.00  0.00    +0.000 C 
ATOM      4  C   UNL     1      50.616   7.125  16.490  0.00  0.00    +0.000 C 
BRANCH   4   5
ATOM      5  C   UNL     1      49.947   6.364  17.660  0.00  0.00    +0.000 C 
ATOM      6  O   UNL     1      49.773   6.917  18.747  0.00  0.00    +0.000 OA
BRANCH   5   7
ATOM      7  C   UNL     1      49.533   4.961  17.478  0.00  0.00    +0.000 A 
ATOM      8  C   UNL     1      48.280   4.571  17.036  0.00  0.00    +0.000 A 
ATOM      9  S   UNL     1      48.167   2.899  16.700  0.00  0.00    +0.000 S 
ATOM     10  C   UNL     1      49.775   2.638  17.189  0.00  0.00    +0.000 A 
ATOM     11  N   UNL     1      50.348   1.407  17.104  0.00  0.00    +0.000 NA
ATOM     12  C   UNL     1      51.573   1.366  17.513  0.00  0.00    +0.000 A 
ATOM     13  N   UNL     1      52.266   2.433  18.030  0.00  0.00    +0.000 N 
ATOM     14  C   UNL     1      51.684   3.663  18.249  0.00  0.00    +0.000 A 
ATOM     15  O   UNL     1      52.221   4.501  18.967  0.00  0.00    +0.000 OA
ATOM     16  C   UNL     1      50.361   3.795  17.667  0.00  0.00    +0.000 A 
ATOM     17  H   UNL     1      53.182   2.304  18.431  0.00  0.00    +0.000 HD
ENDBRANCH   5   7
ENDBRANCH   4   5
ENDBRANCH   1   4
BRANCH   1  18
ATOM     18  C   UNL     1      49.062   7.926  14.718  0.00  0.00    +0.000 C 
BRANCH  18  19
ATOM     19  C   UNL     1      48.968   7.962  13.169  0.00  0.00    +0.000 C 
ATOM     20  C   UNL     1      47.880   8.945  12.706  0.00  0.00    +0.000 C 
ATOM     21  C   UNL     1      46.467   8.437  13.015  0.00  0.00    +0.000 C 
ATOM     22  N   UNL     1      46.211   7.088  12.482  0.00  0.00    +0.000 NA
ATOM     23  C   UNL     1      47.246   6.121  12.875  0.00  0.00    +0.000 C 
ATOM     24  C   UNL     1      48.652   6.606  12.520  0.00  0.00    +0.000 C 
BRANCH  22  25
ATOM     25  C   UNL     1      44.885   6.585  12.901  0.00  0.00    +0.000 C 
BRANCH  25  26
ATOM     26  C   UNL     1      44.502   5.279  12.254  0.00  0.00    +0.000 A 
ATOM     27  C   UNL     1      44.496   5.123  10.867  0.00  0.00    +0.000 A 
ATOM     28  C   UNL     1      44.081   3.918  10.309  0.00  0.00    +0.000 A 
ATOM     29  C   UNL     1      43.694   2.900  11.166  0.00  0.00    +0.000 A 
ATOM     30  N   UNL     1      43.708   3.003  12.512  0.00  0.00    +0.000 NA
ATOM     31  C   UNL     1      44.110   4.187  13.024  0.00  0.00    +0.000 A 
ENDBRANCH  25  26
ENDBRANCH  22  25
ENDBRANCH  18  19
ENDBRANCH   1  18
TORSDOF 7
ENDMDL
MODEL 9
REMARK VINA RESULT:    -6.743      3.719      9.152
REMARK INTER + INTRA:          -9.687
REMARK INTER:                  -8.701
REMARK INTRA:                  -0.986
REMARK UNBOUND:                -0.184
REMARK  Name = 
REMARK  8 active torsions:
REMARK  status: ('A' for Active; 'I' for Inactive)
REMARK    1  A    between atoms: C_1  and  C_2
REMARK    2  A    between atoms: C_2  and  N_3
REMARK    3  A    between atoms: C_2  and  C_18
REMARK    4  A    between atoms: N_3  and  C_4
REMARK    5  A    between atoms: C_4  and  C_5
REMARK    6  A    between atoms: N_8  and  C_9
REMARK    7  A    between atoms: C_9  and  C_10
REMARK    8  A    between atoms: C_18  and  C_20
REMARK                            x       y       z     vdW  Elec       q    Type
REMARK                         _______ _______ _______ _____ _____    ______ ____
ROOT
ATOM      1  N   UNL     1      48.179   5.969  15.770  0.00  0.00    +0.000 NA
ATOM      2  H   UNL     1      47.848   5.158  15.254  0.00  0.00    +0.000 HD
ENDROOT
BRANCH   1   4
ATOM      3  C   UNL     1      48.302   8.385  15.132  0.00  0.00    +0.000 C 
ATOM      4  C   UNL     1      48.710   6.949  14.788  0.00  0.00    +0.000 C 
BRANCH   4   5
ATOM      5  C   UNL     1      48.382   6.587  13.319  0.00  0.00    +0.000 C 
ATOM      6  O   UNL     1      49.287   6.437  12.496  0.00  0.00    +0.000 OA
BRANCH   5   7
ATOM      7  C   UNL     1      46.977   6.439  12.898  0.00  0.00    +0.000 A 
ATOM      8  C   UNL     1      46.177   7.488  12.476  0.00  0.00    +0.000 A 
ATOM      9  S   UNL     1      44.677   6.982  11.831  0.00  0.00    +0.000 S 
ATOM     10  C   UNL     1      45.031   5.348  12.149  0.00  0.00    +0.000 A 
ATOM     11  N   UNL     1      44.173   4.357  11.787  0.00  0.00    +0.000 NA
ATOM     12  C   UNL     1      44.579   3.170  12.095  0.00  0.00    +0.000 A 
ATOM     13  N   UNL     1      45.746   2.886  12.760  0.00  0.00    +0.000 N 
ATOM     14  C   UNL     1      46.580   3.866  13.253  0.00  0.00    +0.000 A 
ATOM     15  O   UNL     1      47.447   3.604  14.081  0.00  0.00    +0.000 OA
ATOM     16  C   UNL     1      46.241   5.202  12.800  0.00  0.00    +0.000 A 
ATOM     17  H   UNL     1      45.947   1.945  13.065  0.00  0.00    +0.000 HD
ENDBRANCH   5   7
ENDBRANCH   4   5
ENDBRANCH   1   4
BRANCH   1  18
ATOM     18  C   UNL     1      49.140   5.529  16.786  0.00  0.00    +0.000 C 
BRANCH  18  19
ATOM     19  C   UNL     1      48.489   4.547  17.797  0.00  0.00    +0.000 C 
ATOM     20  C   UNL     1      47.118   5.064  18.262  0.00  0.00    +0.000 C 
ATOM     21  C   UNL     1      47.237   6.291  19.173  0.00  0.00    +0.000 C 
ATOM     22  N   UNL     1      48.128   6.069  20.325  0.00  0.00    +0.000 NA
ATOM     23  C   UNL     1      49.443   5.543  19.927  0.00  0.00    +0.000 C 
ATOM     24  C   UNL     1      49.324   4.289  19.060  0.00  0.00    +0.000 C 
BRANCH  22  25
ATOM     25  C   UNL     1      48.312   7.308  21.111  0.00  0.00    +0.000 C 
BRANCH  25  26
ATOM     26  C   UNL     1      48.129   8.567  20.305  0.00  0.00    +0.000 A 
ATOM     27  C   UNL     1      47.001   9.377  20.457  0.00  0.00    +0.000 A 
ATOM     28  C   UNL     1      46.844  10.501  19.653  0.00  0.00    +0.000 A 
ATOM     29  C   UNL     1      47.833  10.782  18.723  0.00  0.00    +0.000 A 
ATOM     30  N   UNL     1      48.948  10.039  18.561  0.00  0.00    +0.000 NA
ATOM     31  C   UNL     1      49.070   8.951  19.353  0.00  0.00    +0.000 A 
ENDBRANCH  25  26
ENDBRANCH  22  25
ENDBRANCH  18  19
ENDBRANCH   1  18
TORSDOF 7
ENDMDL
