MODEL 1
REMARK VINA RESULT:    -7.911      0.000      0.000
REMARK INTER + INTRA:         -11.022
REMARK INTER:                 -10.455
REMARK INTRA:                  -0.568
REMARK UNBOUND:                -0.568
REMARK  Name = 
REMARK  6 active torsions:
REMARK  status: ('A' for Active; 'I' for Inactive)
REMARK    1  A    between atoms: N_1  and  C_2
REMARK    2  A    between atoms: C_2  and  C_3
REMARK    3  A    between atoms: C_3  and  C_4
REMARK    4  A    between atoms: C_7  and  C_8
REMARK    5  A    between atoms: C_8  and  N_9
REMARK    6  A    between atoms: C_14  and  C_15
REMARK                            x       y       z     vdW  Elec       q    Type
REMARK                         _______ _______ _______ _____ _____    ______ ____
ROOT
ATOM      1  N   UNL     1      43.817   4.354  10.662  0.00  0.00    +0.000 N 
ATOM      2  C   UNL     1      43.313   3.208  11.216  0.00  0.00    +0.000 A 
ATOM      3  N   UNL     1      43.789   2.135  10.626  0.00  0.00    +0.000 NA
ATOM      4  C   UNL     1      44.646   2.604   9.664  0.00  0.00    +0.000 A 
ATOM      5  C   UNL     1      45.394   1.886   8.720  0.00  0.00    +0.000 A 
ATOM      6  C   UNL     1      46.214   2.587   7.818  0.00  0.00    +0.000 A 
ATOM      7  C   UNL     1      46.302   3.988   7.903  0.00  0.00    +0.000 A 
ATOM      8  C   UNL     1      45.561   4.721   8.838  0.00  0.00    +0.000 A 
ATOM      9  C   UNL     1      44.720   3.995   9.689  0.00  0.00    +0.000 A 
ENDROOT
BRANCH   6  10
ATOM     10  C   UNL     1      46.980   1.853   6.747  0.00  0.00    +0.000 C 
ATOM     11  F   UNL     1      46.749   0.511   6.724  0.00  0.00    +0.000 F 
ATOM     12  F   UNL     1      46.675   2.304   5.497  0.00  0.00    +0.000 F 
ATOM     13  F   UNL     1      48.327   1.999   6.875  0.00  0.00    +0.000 F 
ENDBRANCH   6  10
BRANCH   1  14
ATOM     14  C   UNL     1      43.441   5.698  11.053  0.00  0.00    +0.000 C 
BRANCH  14  18
ATOM     15  C   UNL     1      46.687   7.601  13.074  0.00  0.00    +0.000 A 
ATOM     16  C   UNL     1      45.925   8.344  12.171  0.00  0.00    +0.000 A 
ATOM     17  C   UNL     1      44.850   7.746  11.513  0.00  0.00    +0.000 A 
ATOM     18  C   UNL     1      44.572   6.403  11.760  0.00  0.00    +0.000 A 
ATOM     19  N   UNL     1      45.284   5.670  12.650  0.00  0.00    +0.000 NA
ATOM     20  C   UNL     1      46.305   6.283  13.291  0.00  0.00    +0.000 A 
BRANCH  15  21
ATOM     21  C   UNL     1      47.867   8.201  13.794  0.00  0.00    +0.000 C 
BRANCH  21  22
ATOM     22  C   UNL     1      48.968   7.166  14.070  0.00  0.00    +0.000 C 
BRANCH  22  23
ATOM     23  N   UNL     1      49.763   6.903  12.874  0.00  0.00    +0.000 NA
ATOM     24  H   UNL     1      49.247   6.270  12.262  0.00  0.00    +0.000 HD
ATOM     25  H   UNL     1      50.620   6.410  13.128  0.00  0.00    +0.000 HD
ENDBRANCH  22  23
ENDBRANCH  21  22
ENDBRANCH  15  21
ENDBRANCH  14  18
ENDBRANCH   1  14
TORSDOF 6
ENDMDL
MODEL 2
REMARK VINA RESULT:    -7.797      3.815      6.747
REMARK INTER + INTRA:         -10.872
REMARK INTER:                 -10.234
REMARK INTRA:                  -0.637
REMARK UNBOUND:                -0.568
REMARK  Name = 
REMARK  6 active torsions:
REMARK  status: ('A' for Active; 'I' for Inactive)
REMARK    1  A    between atoms: N_1  and  C_2
REMARK    2  A    between atoms: C_2  and  C_3
REMARK    3  A    between atoms: C_3  and  C_4
REMARK    4  A    between atoms: C_7  and  C_8
REMARK    5  A    between atoms: C_8  and  N_9
REMARK    6  A    between atoms: C_14  and  C_15
REMARK                            x       y       z     vdW  Elec       q    Type
REMARK                         _______ _______ _______ _____ _____    ______ ____
ROOT
ATOM      1  N   UNL     1      44.412   4.838  11.615  0.00  0.00    +0.000 N 
ATOM      2  C   UNL     1      44.002   4.224  12.768  0.00  0.00    +0.000 A 
ATOM      3  N   UNL     1      44.803   4.495  13.773  0.00  0.00    +0.000 NA
ATOM      4  C   UNL     1      45.760   5.328  13.255  0.00  0.00    +0.000 A 
ATOM      5  C   UNL     1      46.880   5.890  13.885  0.00  0.00    +0.000 A 
ATOM      6  C   UNL     1      47.736   6.724  13.145  0.00  0.00    +0.000 A 
ATOM      7  C   UNL     1      47.436   7.015  11.803  0.00  0.00    +0.000 A 
ATOM      8  C   UNL     1      46.323   6.462  11.157  0.00  0.00    +0.000 A 
ATOM      9  C   UNL     1      45.518   5.599  11.909  0.00  0.00    +0.000 A 
ENDROOT
BRANCH   6  10
ATOM     10  C   UNL     1      48.986   7.290  13.771  0.00  0.00    +0.000 C 
ATOM     11  F   UNL     1      50.060   7.314  12.935  0.00  0.00    +0.000 F 
ATOM     12  F   UNL     1      48.814   8.575  14.191  0.00  0.00    +0.000 F 
ATOM     13  F   UNL     1      49.382   6.591  14.870  0.00  0.00    +0.000 F 
ENDBRANCH   6  10
BRANCH   1  14
ATOM     14  C   UNL     1      43.772   4.687  10.323  0.00  0.00    +0.000 C 
BRANCH  14  18
ATOM     15  C   UNL     1      46.113   2.249   7.712  0.00  0.00    +0.000 A 
ATOM     16  C   UNL     1      45.379   1.638   8.729  0.00  0.00    +0.000 A 
ATOM     17  C   UNL     1      44.594   2.415   9.581  0.00  0.00    +0.000 A 
ATOM     18  C   UNL     1      44.577   3.797   9.410  0.00  0.00    +0.000 A 
ATOM     19  N   UNL     1      45.264   4.409   8.414  0.00  0.00    +0.000 NA
ATOM     20  C   UNL     1      45.997   3.629   7.587  0.00  0.00    +0.000 A 
BRANCH  15  21
ATOM     21  C   UNL     1      46.987   1.452   6.778  0.00  0.00    +0.000 C 
BRANCH  21  22
ATOM     22  C   UNL     1      48.261   2.212   6.381  0.00  0.00    +0.000 C 
BRANCH  22  23
ATOM     23  N   UNL     1      48.260   2.547   4.960  0.00  0.00    +0.000 NA
ATOM     24  H   UNL     1      47.302   2.524   4.611  0.00  0.00    +0.000 HD
ATOM     25  H   UNL     1      48.767   1.834   4.435  0.00  0.00    +0.000 HD
ENDBRANCH  22  23
ENDBRANCH  21  22
ENDBRANCH  15  21
ENDBRANCH  14  18
ENDBRANCH   1  14
TORSDOF 6
ENDMDL
MODEL 3
REMARK VINA RESULT:    -7.654      4.080      6.927
REMARK INTER + INTRA:         -10.683
REMARK INTER:                 -10.284
REMARK INTRA:                  -0.398
REMARK UNBOUND:                -0.568
REMARK  Name = 
REMARK  6 active torsions:
REMARK  status: ('A' for Active; 'I' for Inactive)
REMARK    1  A    between atoms: N_1  and  C_2
REMARK    2  A    between atoms: C_2  and  C_3
REMARK    3  A    between atoms: C_3  and  C_4
REMARK    4  A    between atoms: C_7  and  C_8
REMARK    5  A    between atoms: C_8  and  N_9
REMARK    6  A    between atoms: C_14  and  C_15
REMARK                            x       y       z     vdW  Elec       q    Type
REMARK                         _______ _______ _______ _____ _____    ______ ____
ROOT
ATOM      1  N   UNL     1      44.553   5.523  11.170  0.00  0.00    +0.000 N 
ATOM      2  C   UNL     1      44.682   6.881  11.288  0.00  0.00    +0.000 A 
ATOM      3  N   UNL     1      45.416   7.210  12.327  0.00  0.00    +0.000 NA
ATOM      4  C   UNL     1      45.789   6.019  12.895  0.00  0.00    +0.000 A 
ATOM      5  C   UNL     1      46.547   5.790  14.051  0.00  0.00    +0.000 A 
ATOM      6  C   UNL     1      46.807   4.467  14.450  0.00  0.00    +0.000 A 
ATOM      7  C   UNL     1      46.338   3.399  13.665  0.00  0.00    +0.000 A 
ATOM      8  C   UNL     1      45.577   3.610  12.508  0.00  0.00    +0.000 A 
ATOM      9  C   UNL     1      45.299   4.938  12.166  0.00  0.00    +0.000 A 
ENDROOT
BRANCH   6  10
ATOM     10  C   UNL     1      47.561   4.183  15.724  0.00  0.00    +0.000 C 
ATOM     11  F   UNL     1      48.623   5.009  15.933  0.00  0.00    +0.000 F 
ATOM     12  F   UNL     1      46.771   4.308  16.828  0.00  0.00    +0.000 F 
ATOM     13  F   UNL     1      48.057   2.917  15.766  0.00  0.00    +0.000 F 
ENDBRANCH   6  10
BRANCH   1  14
ATOM     14  C   UNL     1      43.758   4.851  10.162  0.00  0.00    +0.000 C 
BRANCH  14  18
ATOM     15  C   UNL     1      46.201   2.252   7.812  0.00  0.00    +0.000 A 
ATOM     16  C   UNL     1      45.315   1.695   8.734  0.00  0.00    +0.000 A 
ATOM     17  C   UNL     1      44.496   2.525   9.499  0.00  0.00    +0.000 A 
ATOM     18  C   UNL     1      44.597   3.906   9.338  0.00  0.00    +0.000 A 
ATOM     19  N   UNL     1      45.434   4.467   8.433  0.00  0.00    +0.000 NA
ATOM     20  C   UNL     1      46.198   3.637   7.688  0.00  0.00    +0.000 A 
BRANCH  15  21
ATOM     21  C   UNL     1      47.117   1.395   6.977  0.00  0.00    +0.000 C 
BRANCH  21  22
ATOM     22  C   UNL     1      48.349   2.168   6.483  0.00  0.00    +0.000 C 
BRANCH  22  23
ATOM     23  N   UNL     1      48.272   2.431   5.049  0.00  0.00    +0.000 NA
ATOM     24  H   UNL     1      48.679   1.644   4.542  0.00  0.00    +0.000 HD
ATOM     25  H   UNL     1      48.846   3.241   4.813  0.00  0.00    +0.000 HD
ENDBRANCH  22  23
ENDBRANCH  21  22
ENDBRANCH  15  21
ENDBRANCH  14  18
ENDBRANCH   1  14
TORSDOF 6
ENDMDL
MODEL 4
REMARK VINA RESULT:    -7.099      4.194      7.191
REMARK INTER + INTRA:          -9.950
REMARK INTER:                  -9.333
REMARK INTRA:                  -0.617
REMARK UNBOUND:                -0.568
REMARK  Name = 
REMARK  6 active torsions:
REMARK  status: ('A' for Active; 'I' for Inactive)
REMARK    1  A    between atoms: N_1  and  C_2
REMARK    2  A    between atoms: C_2  and  C_3
REMARK    3  A    between atoms: C_3  and  C_4
REMARK    4  A    between atoms: C_7  and  C_8
REMARK    5  A    between atoms: C_8  and  N_9
REMARK    6  A    between atoms: C_14  and  C_15
REMARK                            x       y       z     vdW  Elec       q    Type
REMARK                         _______ _______ _______ _____ _____    ______ ____
ROOT
ATOM      1  N   UNL     1      45.594   4.928  12.463  0.00  0.00    +0.000 N 
ATOM      2  C   UNL     1      46.165   3.980  13.270  0.00  0.00    +0.000 A 
ATOM      3  N   UNL     1      47.165   4.472  13.964  0.00  0.00    +0.000 NA
ATOM      4  C   UNL     1      47.236   5.794  13.604  0.00  0.00    +0.000 A 
ATOM      5  C   UNL     1      48.148   6.776  14.016  0.00  0.00    +0.000 A 
ATOM      6  C   UNL     1      48.027   8.081  13.507  0.00  0.00    +0.000 A 
ATOM      7  C   UNL     1      46.974   8.390  12.628  0.00  0.00    +0.000 A 
ATOM      8  C   UNL     1      46.056   7.422  12.204  0.00  0.00    +0.000 A 
ATOM      9  C   UNL     1      46.233   6.123  12.694  0.00  0.00    +0.000 A 
ENDROOT
BRANCH   6  10
ATOM     10  C   UNL     1      49.030   9.144  13.876  0.00  0.00    +0.000 C 
ATOM     11  F   UNL     1      48.470  10.341  14.206  0.00  0.00    +0.000 F 
ATOM     12  F   UNL     1      49.791   8.783  14.947  0.00  0.00    +0.000 F 
ATOM     13  F   UNL     1      49.907   9.406  12.869  0.00  0.00    +0.000 F 
ENDBRANCH   6  10
BRANCH   1  14
ATOM     14  C   UNL     1      44.509   4.681  11.534  0.00  0.00    +0.000 C 
BRANCH  14  18
ATOM     15  C   UNL     1      45.897   3.185   7.783  0.00  0.00    +0.000 A 
ATOM     16  C   UNL     1      46.085   4.534   8.083  0.00  0.00    +0.000 A 
ATOM     17  C   UNL     1      45.654   5.039   9.310  0.00  0.00    +0.000 A 
ATOM     18  C   UNL     1      45.022   4.181  10.207  0.00  0.00    +0.000 A 
ATOM     19  N   UNL     1      44.851   2.862   9.946  0.00  0.00    +0.000 NA
ATOM     20  C   UNL     1      45.300   2.396   8.759  0.00  0.00    +0.000 A 
BRANCH  15  21
ATOM     21  C   UNL     1      46.331   2.600   6.463  0.00  0.00    +0.000 C 
BRANCH  21  22
ATOM     22  C   UNL     1      47.497   1.612   6.619  0.00  0.00    +0.000 C 
BRANCH  22  23
ATOM     23  N   UNL     1      48.561   1.888   5.659  0.00  0.00    +0.000 NA
ATOM     24  H   UNL     1      49.319   2.380   6.132  0.00  0.00    +0.000 HD
ATOM     25  H   UNL     1      48.221   2.525   4.938  0.00  0.00    +0.000 HD
ENDBRANCH  22  23
ENDBRANCH  21  22
ENDBRANCH  15  21
ENDBRANCH  14  18
ENDBRANCH   1  14
TORSDOF 6
ENDMDL
MODEL 5
REMARK VINA RESULT:    -6.813      4.123      7.163
REMARK INTER + INTRA:          -9.572
REMARK INTER:                  -9.208
REMARK INTRA:                  -0.363
REMARK UNBOUND:                -0.568
REMARK  Name = 
REMARK  6 active torsions:
REMARK  status: ('A' for Active; 'I' for Inactive)
REMARK    1  A    between atoms: N_1  and  C_2
REMARK    2  A    between atoms: C_2  and  C_3
REMARK    3  A    between atoms: C_3  and  C_4
REMARK    4  A    between atoms: C_7  and  C_8
REMARK    5  A    between atoms: C_8  and  N_9
REMARK    6  A    between atoms: C_14  and  C_15
REMARK                            x       y       z     vdW  Elec       q    Type
REMARK                         _______ _______ _______ _____ _____    ______ ____
ROOT
ATOM      1  N   UNL     1      44.584   5.901  11.726  0.00  0.00    +0.000 N 
ATOM      2  C   UNL     1      44.067   7.124  11.390  0.00  0.00    +0.000 A 
ATOM      3  N   UNL     1      44.777   8.106  11.896  0.00  0.00    +0.000 NA
ATOM      4  C   UNL     1      45.802   7.496  12.573  0.00  0.00    +0.000 A 
ATOM      5  C   UNL     1      46.831   8.075  13.329  0.00  0.00    +0.000 A 
ATOM      6  C   UNL     1      47.783   7.242  13.944  0.00  0.00    +0.000 A 
ATOM      7  C   UNL     1      47.712   5.851  13.758  0.00  0.00    +0.000 A 
ATOM      8  C   UNL     1      46.691   5.255  13.008  0.00  0.00    +0.000 A 
ATOM      9  C   UNL     1      45.734   6.110  12.449  0.00  0.00    +0.000 A 
ENDROOT
BRANCH   6  10
ATOM     10  C   UNL     1      48.862   7.826  14.819  0.00  0.00    +0.000 C 
ATOM     11  F   UNL     1      48.405   8.719  15.740  0.00  0.00    +0.000 F 
ATOM     12  F   UNL     1      49.523   6.868  15.529  0.00  0.00    +0.000 F 
ATOM     13  F   UNL     1      49.817   8.482  14.104  0.00  0.00    +0.000 F 
ENDBRANCH   6  10
BRANCH   1  14
ATOM     14  C   UNL     1      43.994   4.626  11.370  0.00  0.00    +0.000 C 
BRANCH  14  18
ATOM     15  C   UNL     1      45.753   2.905   7.879  0.00  0.00    +0.000 A 
ATOM     16  C   UNL     1      45.866   4.281   8.084  0.00  0.00    +0.000 A 
ATOM     17  C   UNL     1      45.314   4.860   9.227  0.00  0.00    +0.000 A 
ATOM     18  C   UNL     1      44.637   4.047  10.134  0.00  0.00    +0.000 A 
ATOM     19  N   UNL     1      44.535   2.707   9.966  0.00  0.00    +0.000 NA
ATOM     20  C   UNL     1      45.102   2.169   8.862  0.00  0.00    +0.000 A 
BRANCH  15  21
ATOM     21  C   UNL     1      46.320   2.239   6.651  0.00  0.00    +0.000 C 
BRANCH  21  22
ATOM     22  C   UNL     1      47.731   1.683   6.890  0.00  0.00    +0.000 C 
BRANCH  22  23
ATOM     23  N   UNL     1      48.583   1.872   5.719  0.00  0.00    +0.000 NA
ATOM     24  H   UNL     1      47.995   2.028   4.899  0.00  0.00    +0.000 HD
ATOM     25  H   UNL     1      49.106   1.017   5.529  0.00  0.00    +0.000 HD
ENDBRANCH  22  23
ENDBRANCH  21  22
ENDBRANCH  15  21
ENDBRANCH  14  18
ENDBRANCH   1  14
TORSDOF 6
ENDMDL
MODEL 6
REMARK VINA RESULT:    -6.043      4.141      6.182
REMARK INTER + INTRA:          -8.555
REMARK INTER:                  -7.962
REMARK INTRA:                  -0.592
REMARK UNBOUND:                -0.568
REMARK  Name = 
REMARK  6 active torsions:
REMARK  status: ('A' for Active; 'I' for Inactive)
REMARK    1  A    between atoms: N_1  and  C_2
REMARK    2  A    between atoms: C_2  and  C_3
REMARK    3  A    between atoms: C_3  and  C_4
REMARK    4  A    between atoms: C_7  and  C_8
REMARK    5  A    between atoms: C_8  and  N_9
REMARK    6  A    between atoms: C_14  and  C_15
REMARK                            x       y       z     vdW  Elec       q    Type
REMARK                         _______ _______ _______ _____ _____    ______ ____
ROOT
ATOM      1  N   UNL     1      47.580   7.327  13.534  0.00  0.00    +0.000 N 
ATOM      2  C   UNL     1      47.122   8.589  13.264  0.00  0.00    +0.000 A 
ATOM      3  N   UNL     1      45.950   8.563  12.671  0.00  0.00    +0.000 NA
ATOM      4  C   UNL     1      45.630   7.234  12.566  0.00  0.00    +0.000 A 
ATOM      5  C   UNL     1      44.504   6.639  11.979  0.00  0.00    +0.000 A 
ATOM      6  C   UNL     1      44.387   5.238  11.987  0.00  0.00    +0.000 A 
ATOM      7  C   UNL     1      45.375   4.461  12.616  0.00  0.00    +0.000 A 
ATOM      8  C   UNL     1      46.507   5.038  13.206  0.00  0.00    +0.000 A 
ATOM      9  C   UNL     1      46.615   6.432  13.139  0.00  0.00    +0.000 A 
ENDROOT
BRANCH   6  10
ATOM     10  C   UNL     1      43.225   4.561  11.306  0.00  0.00    +0.000 C 
ATOM     11  F   UNL     1      43.359   4.459   9.955  0.00  0.00    +0.000 F 
ATOM     12  F   UNL     1      43.034   3.289  11.757  0.00  0.00    +0.000 F 
ATOM     13  F   UNL     1      42.047   5.209  11.517  0.00  0.00    +0.000 F 
ENDBRANCH   6  10
BRANCH   1  14
ATOM     14  C   UNL     1      48.866   7.022  14.129  0.00  0.00    +0.000 C 
BRANCH  14  18
ATOM     15  C   UNL     1      48.568   6.348  18.336  0.00  0.00    +0.000 A 
ATOM     16  C   UNL     1      48.684   7.657  17.868  0.00  0.00    +0.000 A 
ATOM     17  C   UNL     1      48.766   7.900  16.497  0.00  0.00    +0.000 A 
ATOM     18  C   UNL     1      48.749   6.819  15.619  0.00  0.00    +0.000 A 
ATOM     19  N   UNL     1      48.613   5.541  16.050  0.00  0.00    +0.000 NA
ATOM     20  C   UNL     1      48.512   5.337  17.383  0.00  0.00    +0.000 A 
BRANCH  15  21
ATOM     21  C   UNL     1      48.494   6.037  19.809  0.00  0.00    +0.000 C 
BRANCH  21  22
ATOM     22  C   UNL     1      49.269   4.762  20.175  0.00  0.00    +0.000 C 
BRANCH  22  23
ATOM     23  N   UNL     1      48.367   3.690  20.585  0.00  0.00    +0.000 NA
ATOM     24  H   UNL     1      48.917   2.903  20.929  0.00  0.00    +0.000 HD
ATOM     25  H   UNL     1      47.853   3.340  19.775  0.00  0.00    +0.000 HD
ENDBRANCH  22  23
ENDBRANCH  21  22
ENDBRANCH  15  21
ENDBRANCH  14  18
ENDBRANCH   1  14
TORSDOF 6
ENDMDL
MODEL 7
REMARK VINA RESULT:    -5.852      3.726      6.864
REMARK INTER + INTRA:          -8.301
REMARK INTER:                  -7.712
REMARK INTRA:                  -0.589
REMARK UNBOUND:                -0.568
REMARK  Name = 
REMARK  6 active torsions:
REMARK  status: ('A' for Active; 'I' for Inactive)
REMARK    1  A    between atoms: N_1  and  C_2
REMARK    2  A    between atoms: C_2  and  C_3
REMARK    3  A    between atoms: C_3  and  C_4
REMARK    4  A    between atoms: C_7  and  C_8
REMARK    5  A    between atoms: C_8  and  N_9
REMARK    6  A    between atoms: C_14  and  C_15
REMARK                            x       y       z     vdW  Elec       q    Type
REMARK                         _______ _______ _______ _____ _____    ______ ____
ROOT
ATOM      1  N   UNL     1      45.262   7.343  12.501  0.00  0.00    +0.000 N 
ATOM      2  C   UNL     1      44.834   8.570  12.070  0.00  0.00    +0.000 A 
ATOM      3  N   UNL     1      45.841   9.368  11.801  0.00  0.00    +0.000 NA
ATOM      4  C   UNL     1      46.966   8.625  12.052  0.00  0.00    +0.000 A 
ATOM      5  C   UNL     1      48.313   9.001  11.965  0.00  0.00    +0.000 A 
ATOM      6  C   UNL     1      49.310   8.060  12.277  0.00  0.00    +0.000 A 
ATOM      7  C   UNL     1      48.943   6.750  12.631  0.00  0.00    +0.000 A 
ATOM      8  C   UNL     1      47.602   6.357  12.725  0.00  0.00    +0.000 A 
ATOM      9  C   UNL     1      46.636   7.332  12.453  0.00  0.00    +0.000 A 
ENDROOT
BRANCH   6  10
ATOM     10  C   UNL     1      50.766   8.450  12.260  0.00  0.00    +0.000 C 
ATOM     11  F   UNL     1      51.515   7.749  11.364  0.00  0.00    +0.000 F 
ATOM     12  F   UNL     1      50.943   9.764  11.944  0.00  0.00    +0.000 F 
ATOM     13  F   UNL     1      51.368   8.275  13.468  0.00  0.00    +0.000 F 
ENDBRANCH   6  10
BRANCH   1  14
ATOM     14  C   UNL     1      44.392   6.266  12.931  0.00  0.00    +0.000 C 
BRANCH  14  18
ATOM     15  C   UNL     1      44.596   3.004  10.182  0.00  0.00    +0.000 A 
ATOM     16  C   UNL     1      45.018   2.806  11.497  0.00  0.00    +0.000 A 
ATOM     17  C   UNL     1      44.944   3.854  12.415  0.00  0.00    +0.000 A 
ATOM     18  C   UNL     1      44.464   5.091  11.988  0.00  0.00    +0.000 A 
ATOM     19  N   UNL     1      44.028   5.298  10.722  0.00  0.00    +0.000 NA
ATOM     20  C   UNL     1      44.089   4.257   9.860  0.00  0.00    +0.000 A 
BRANCH  15  21
ATOM     21  C   UNL     1      44.674   1.906   9.152  0.00  0.00    +0.000 C 
BRANCH  21  22
ATOM     22  C   UNL     1      46.004   1.923   8.382  0.00  0.00    +0.000 C 
BRANCH  22  23
ATOM     23  N   UNL     1      46.430   0.573   8.027  0.00  0.00    +0.000 NA
ATOM     24  H   UNL     1      47.437   0.491   8.169  0.00  0.00    +0.000 HD
ATOM     25  H   UNL     1      46.274   0.410   7.031  0.00  0.00    +0.000 HD
ENDBRANCH  22  23
ENDBRANCH  21  22
ENDBRANCH  15  21
ENDBRANCH  14  18
ENDBRANCH   1  14
TORSDOF 6
ENDMDL
MODEL 8
REMARK VINA RESULT:    -5.695      2.188      3.163
REMARK INTER + INTRA:          -8.094
REMARK INTER:                  -7.453
REMARK INTRA:                  -0.641
REMARK UNBOUND:                -0.568
REMARK  Name = 
REMARK  6 active torsions:
REMARK  status: ('A' for Active; 'I' for Inactive)
REMARK    1  A    between atoms: N_1  and  C_2
REMARK    2  A    between atoms: C_2  and  C_3
REMARK    3  A    between atoms: C_3  and  C_4
REMARK    4  A    between atoms: C_7  and  C_8
REMARK    5  A    between atoms: C_8  and  N_9
REMARK    6  A    between atoms: C_14  and  C_15
REMARK                            x       y       z     vdW  Elec       q    Type
REMARK                         _______ _______ _______ _____ _____    ______ ____
ROOT
ATOM      1  N   UNL     1      45.579   6.043  12.741  0.00  0.00    +0.000 N 
ATOM      2  C   UNL     1      45.295   5.121  13.713  0.00  0.00    +0.000 A 
ATOM      3  N   UNL     1      45.049   3.937  13.201  0.00  0.00    +0.000 NA
ATOM      4  C   UNL     1      45.194   4.094  11.846  0.00  0.00    +0.000 A 
ATOM      5  C   UNL     1      45.009   3.155  10.822  0.00  0.00    +0.000 A 
ATOM      6  C   UNL     1      45.215   3.547   9.487  0.00  0.00    +0.000 A 
ATOM      7  C   UNL     1      45.641   4.856   9.204  0.00  0.00    +0.000 A 
ATOM      8  C   UNL     1      45.829   5.808  10.215  0.00  0.00    +0.000 A 
ATOM      9  C   UNL     1      45.570   5.397  11.527  0.00  0.00    +0.000 A 
ENDROOT
BRANCH   6  10
ATOM     10  C   UNL     1      44.960   2.583   8.356  0.00  0.00    +0.000 C 
ATOM     11  F   UNL     1      44.362   1.422   8.743  0.00  0.00    +0.000 F 
ATOM     12  F   UNL     1      44.150   3.116   7.399  0.00  0.00    +0.000 F 
ATOM     13  F   UNL     1      46.103   2.219   7.713  0.00  0.00    +0.000 F 
ENDBRANCH   6  10
BRANCH   1  14
ATOM     14  C   UNL     1      45.835   7.449  12.982  0.00  0.00    +0.000 C 
BRANCH  14  18
ATOM     15  C   UNL     1      50.029   8.248  12.861  0.00  0.00    +0.000 A 
ATOM     16  C   UNL     1      49.223   8.712  11.821  0.00  0.00    +0.000 A 
ATOM     17  C   UNL     1      47.848   8.476  11.850  0.00  0.00    +0.000 A 
ATOM     18  C   UNL     1      47.309   7.759  12.917  0.00  0.00    +0.000 A 
ATOM     19  N   UNL     1      48.070   7.320  13.949  0.00  0.00    +0.000 NA
ATOM     20  C   UNL     1      49.396   7.584  13.906  0.00  0.00    +0.000 A 
BRANCH  15  21
ATOM     21  C   UNL     1      51.520   8.465  12.863  0.00  0.00    +0.000 C 
BRANCH  21  22
ATOM     22  C   UNL     1      52.143   8.242  11.477  0.00  0.00    +0.000 C 
BRANCH  22  23
ATOM     23  N   UNL     1      52.538   9.505  10.861  0.00  0.00    +0.000 NA
ATOM     24  H   UNL     1      53.394   9.840  11.303  0.00  0.00    +0.000 HD
ATOM     25  H   UNL     1      51.830  10.217  11.046  0.00  0.00    +0.000 HD
ENDBRANCH  22  23
ENDBRANCH  21  22
ENDBRANCH  15  21
ENDBRANCH  14  18
ENDBRANCH   1  14
TORSDOF 6
ENDMDL
MODEL 9
REMARK VINA RESULT:    -5.541      3.697      5.678
REMARK INTER + INTRA:          -7.890
REMARK INTER:                  -7.228
REMARK INTRA:                  -0.662
REMARK UNBOUND:                -0.568
REMARK  Name = 
REMARK  6 active torsions:
REMARK  status: ('A' for Active; 'I' for Inactive)
REMARK    1  A    between atoms: N_1  and  C_2
REMARK    2  A    between atoms: C_2  and  C_3
REMARK    3  A    between atoms: C_3  and  C_4
REMARK    4  A    between atoms: C_7  and  C_8
REMARK    5  A    between atoms: C_8  and  N_9
REMARK    6  A    between atoms: C_14  and  C_15
REMARK                            x       y       z     vdW  Elec       q    Type
REMARK                         _______ _______ _______ _____ _____    ______ ____
ROOT
ATOM      1  N   UNL     1      47.819   6.927  13.677  0.00  0.00    +0.000 N 
ATOM      2  C   UNL     1      48.204   6.139  14.729  0.00  0.00    +0.000 A 
ATOM      3  N   UNL     1      47.530   5.012  14.761  0.00  0.00    +0.000 NA
ATOM      4  C   UNL     1      46.688   5.065  13.680  0.00  0.00    +0.000 A 
ATOM      5  C   UNL     1      45.721   4.139  13.265  0.00  0.00    +0.000 A 
ATOM      6  C   UNL     1      44.963   4.408  12.112  0.00  0.00    +0.000 A 
ATOM      7  C   UNL     1      45.212   5.579  11.374  0.00  0.00    +0.000 A 
ATOM      8  C   UNL     1      46.172   6.517  11.775  0.00  0.00    +0.000 A 
ATOM      9  C   UNL     1      46.876   6.239  12.953  0.00  0.00    +0.000 A 
ENDROOT
BRANCH   6  10
ATOM     10  C   UNL     1      43.870   3.467  11.674  0.00  0.00    +0.000 C 
ATOM     11  F   UNL     1      43.626   2.457  12.554  0.00  0.00    +0.000 F 
ATOM     12  F   UNL     1      42.678   4.107  11.504  0.00  0.00    +0.000 F 
ATOM     13  F   UNL     1      44.142   2.868  10.483  0.00  0.00    +0.000 F 
ENDBRANCH   6  10
BRANCH   1  14
ATOM     14  C   UNL     1      48.334   8.255  13.406  0.00  0.00    +0.000 C 
BRANCH  14  18
ATOM     15  C   UNL     1      52.154   8.084  11.503  0.00  0.00    +0.000 A 
ATOM     16  C   UNL     1      51.026   7.680  10.789  0.00  0.00    +0.000 A 
ATOM     17  C   UNL     1      49.767   7.744  11.386  0.00  0.00    +0.000 A 
ATOM     18  C   UNL     1      49.666   8.195  12.701  0.00  0.00    +0.000 A 
ATOM     19  N   UNL     1      50.746   8.615  13.404  0.00  0.00    +0.000 NA
ATOM     20  C   UNL     1      51.951   8.565  12.791  0.00  0.00    +0.000 A 
BRANCH  15  21
ATOM     21  C   UNL     1      53.535   8.017  10.904  0.00  0.00    +0.000 C 
BRANCH  21  22
ATOM     22  C   UNL     1      53.716   6.793   9.993  0.00  0.00    +0.000 C 
BRANCH  22  23
ATOM     23  N   UNL     1      53.939   5.579  10.771  0.00  0.00    +0.000 NA
ATOM     24  H   UNL     1      54.635   5.001  10.299  0.00  0.00    +0.000 HD
ATOM     25  H   UNL     1      53.085   5.021  10.798  0.00  0.00    +0.000 HD
ENDBRANCH  22  23
ENDBRANCH  21  22
ENDBRANCH  15  21
ENDBRANCH  14  18
ENDBRANCH   1  14
TORSDOF 6
ENDMDL
