MODEL 1
REMARK VINA RESULT:    -6.818      0.000      0.000
REMARK INTER + INTRA:         -10.822
REMARK INTER:                  -9.609
REMARK INTRA:                  -1.214
REMARK UNBOUND:                -1.214
REMARK  Name = 
REMARK  7 active torsions:
REMARK  status: ('A' for Active; 'I' for Inactive)
REMARK    1  A    between atoms: C_2  and  C_20
REMARK    2  A    between atoms: N_3  and  C_4
REMARK    3  A    between atoms: C_4  and  C_5
REMARK    4  A    between atoms: C_8  and  O_9
REMARK    5  A    between atoms: O_9  and  C_10
REMARK    6  A    between atoms: C_10  and  C_11
REMARK    7  A    between atoms: C_11  and  N_12
REMARK                            x       y       z     vdW  Elec       q    Type
REMARK                         _______ _______ _______ _____ _____    ______ ____
ROOT
ATOM      1  C   UNL     1      47.743   7.928  11.747  0.00  0.00    +0.000 C 
ENDROOT
BRANCH   1   2
ATOM      2  C   UNL     1      48.450   8.047  13.061  0.00  0.00    +0.000 A 
ATOM      3  C   UNL     1      49.801   7.726  13.225  0.00  0.00    +0.000 A 
ATOM      4  C   UNL     1      50.384   7.826  14.490  0.00  0.00    +0.000 A 
ATOM      5  C   UNL     1      49.596   8.266  15.540  0.00  0.00    +0.000 A 
ATOM      6  N   UNL     1      48.309   8.636  15.395  0.00  0.00    +0.000 NA
ATOM      7  C   UNL     1      47.765   8.521  14.171  0.00  0.00    +0.000 A 
BRANCH   5   8
ATOM      8  O   UNL     1      50.163   8.274  16.799  0.00  0.00    +0.000 OA
BRANCH   8   9
ATOM      9  C   UNL     1      50.643   6.982  17.206  0.00  0.00    +0.000 C 
BRANCH   9  10
ATOM     10  C   UNL     1      49.441   6.083  17.509  0.00  0.00    +0.000 C 
BRANCH  10  11
ATOM     11  N   UNL     1      49.208   5.071  16.467  0.00  0.00    +0.000 NA
ATOM     12  C   UNL     1      47.807   4.766  16.194  0.00  0.00    +0.000 C 
ATOM     13  C   UNL     1      47.106   4.123  17.385  0.00  0.00    +0.000 C 
ATOM     14  C   UNL     1      47.888   2.923  17.906  0.00  0.00    +0.000 C 
ATOM     15  C   UNL     1      49.390   3.171  17.958  0.00  0.00    +0.000 C 
ATOM     16  O   UNL     1      49.885   3.813  16.777  0.00  0.00    +0.000 OA
ENDBRANCH  10  11
ENDBRANCH   9  10
ENDBRANCH   8   9
ENDBRANCH   5   8
ENDBRANCH   1   2
BRANCH   1  19
ATOM     17  O   UNL     1      44.950   7.690  11.989  0.00  0.00    +0.000 OA
ATOM     18  C   UNL     1      45.614   6.684  11.752  0.00  0.00    +0.000 C 
ATOM     19  N   UNL     1      46.983   6.709  11.675  0.00  0.00    +0.000 N 
ATOM     20  H   UNL     1      47.468   5.908  11.285  0.00  0.00    +0.000 HD
BRANCH  18  21
ATOM     21  C   UNL     1      44.986   5.370  11.578  0.00  0.00    +0.000 A 
ATOM     22  C   UNL     1      44.268   4.802  12.621  0.00  0.00    +0.000 A 
ATOM     23  S   UNL     1      43.639   3.260  12.258  0.00  0.00    +0.000 S 
ATOM     24  C   UNL     1      44.259   3.318  10.674  0.00  0.00    +0.000 A 
ATOM     25  N   UNL     1      44.047   2.298   9.802  0.00  0.00    +0.000 NA
ATOM     26  C   UNL     1      44.532   2.492   8.622  0.00  0.00    +0.000 A 
ATOM     27  N   UNL     1      45.224   3.611   8.236  0.00  0.00    +0.000 N 
ATOM     28  C   UNL     1      45.531   4.629   9.105  0.00  0.00    +0.000 A 
ATOM     29  O   UNL     1      46.271   5.549   8.766  0.00  0.00    +0.000 OA
ATOM     30  C   UNL     1      44.963   4.485  10.434  0.00  0.00    +0.000 A 
ATOM     31  H   UNL     1      45.608   3.688   7.306  0.00  0.00    +0.000 HD
ENDBRANCH  18  21
ENDBRANCH   1  19
TORSDOF 7
ENDMDL
MODEL 2
REMARK VINA RESULT:    -6.745      3.401      8.760
REMARK INTER + INTRA:         -10.719
REMARK INTER:                 -10.170
REMARK INTRA:                  -0.549
REMARK UNBOUND:                -1.214
REMARK  Name = 
REMARK  7 active torsions:
REMARK  status: ('A' for Active; 'I' for Inactive)
REMARK    1  A    between atoms: C_2  and  C_20
REMARK    2  A    between atoms: N_3  and  C_4
REMARK    3  A    between atoms: C_4  and  C_5
REMARK    4  A    between atoms: C_8  and  O_9
REMARK    5  A    between atoms: O_9  and  C_10
REMARK    6  A    between atoms: C_10  and  C_11
REMARK    7  A    between atoms: C_11  and  N_12
REMARK                            x       y       z     vdW  Elec       q    Type
REMARK                         _______ _______ _______ _____ _____    ______ ____
ROOT
ATOM      1  C   UNL     1      48.976   6.680  16.270  0.00  0.00    +0.000 C 
ENDROOT
BRANCH   1   2
ATOM      2  C   UNL     1      48.111   5.867  15.358  0.00  0.00    +0.000 A 
ATOM      3  C   UNL     1      47.869   6.224  14.027  0.00  0.00    +0.000 A 
ATOM      4  C   UNL     1      47.021   5.437  13.246  0.00  0.00    +0.000 A 
ATOM      5  C   UNL     1      46.463   4.307  13.821  0.00  0.00    +0.000 A 
ATOM      6  N   UNL     1      46.727   3.912  15.082  0.00  0.00    +0.000 NA
ATOM      7  C   UNL     1      47.538   4.691  15.819  0.00  0.00    +0.000 A 
BRANCH   5   8
ATOM      8  O   UNL     1      45.559   3.591  13.064  0.00  0.00    +0.000 OA
BRANCH   8   9
ATOM      9  C   UNL     1      45.014   4.351  11.973  0.00  0.00    +0.000 C 
BRANCH   9  10
ATOM     10  C   UNL     1      45.659   3.874  10.670  0.00  0.00    +0.000 C 
BRANCH  10  11
ATOM     11  N   UNL     1      44.678   3.648   9.597  0.00  0.00    +0.000 NA
ATOM     12  C   UNL     1      44.537   2.263   9.160  0.00  0.00    +0.000 C 
ATOM     13  C   UNL     1      45.807   1.722   8.512  0.00  0.00    +0.000 C 
ATOM     14  C   UNL     1      46.302   2.649   7.407  0.00  0.00    +0.000 C 
ATOM     15  C   UNL     1      46.216   4.121   7.786  0.00  0.00    +0.000 C 
ATOM     16  O   UNL     1      44.974   4.458   8.416  0.00  0.00    +0.000 OA
ENDBRANCH  10  11
ENDBRANCH   9  10
ENDBRANCH   8   9
ENDBRANCH   5   8
ENDBRANCH   1   2
BRANCH   1  19
ATOM     17  O   UNL     1      49.188   5.610  18.863  0.00  0.00    +0.000 OA
ATOM     18  C   UNL     1      50.073   5.369  18.047  0.00  0.00    +0.000 C 
ATOM     19  N   UNL     1      50.069   5.899  16.782  0.00  0.00    +0.000 N 
ATOM     20  H   UNL     1      50.704   5.519  16.088  0.00  0.00    +0.000 HD
BRANCH  18  21
ATOM     21  C   UNL     1      51.226   4.527  18.385  0.00  0.00    +0.000 A 
ATOM     22  C   UNL     1      52.234   5.029  19.197  0.00  0.00    +0.000 A 
ATOM     23  S   UNL     1      53.511   3.930  19.457  0.00  0.00    +0.000 S 
ATOM     24  C   UNL     1      52.738   2.726  18.536  0.00  0.00    +0.000 A 
ATOM     25  N   UNL     1      53.298   1.497  18.379  0.00  0.00    +0.000 NA
ATOM     26  C   UNL     1      52.584   0.666  17.697  0.00  0.00    +0.000 A 
ATOM     27  N   UNL     1      51.362   0.955  17.145  0.00  0.00    +0.000 N 
ATOM     28  C   UNL     1      50.796   2.205  17.210  0.00  0.00    +0.000 A 
ATOM     29  O   UNL     1      49.771   2.468  16.586  0.00  0.00    +0.000 OA
ATOM     30  C   UNL     1      51.535   3.165  18.012  0.00  0.00    +0.000 A 
ATOM     31  H   UNL     1      50.869   0.270  16.592  0.00  0.00    +0.000 HD
ENDBRANCH  18  21
ENDBRANCH   1  19
TORSDOF 7
ENDMDL
MODEL 3
REMARK VINA RESULT:    -6.623      4.437      9.460
REMARK INTER + INTRA:         -10.547
REMARK INTER:                  -9.435
REMARK INTRA:                  -1.112
REMARK UNBOUND:                -1.214
REMARK  Name = 
REMARK  7 active torsions:
REMARK  status: ('A' for Active; 'I' for Inactive)
REMARK    1  A    between atoms: C_2  and  C_20
REMARK    2  A    between atoms: N_3  and  C_4
REMARK    3  A    between atoms: C_4  and  C_5
REMARK    4  A    between atoms: C_8  and  O_9
REMARK    5  A    between atoms: O_9  and  C_10
REMARK    6  A    between atoms: C_10  and  C_11
REMARK    7  A    between atoms: C_11  and  N_12
REMARK                            x       y       z     vdW  Elec       q    Type
REMARK                         _______ _______ _______ _____ _____    ______ ____
ROOT
ATOM      1  C   UNL     1      49.961   4.880  19.324  0.00  0.00    +0.000 C 
ENDROOT
BRANCH   1   2
ATOM      2  C   UNL     1      49.053   4.567  18.176  0.00  0.00    +0.000 A 
ATOM      3  C   UNL     1      48.078   3.566  18.234  0.00  0.00    +0.000 A 
ATOM      4  C   UNL     1      47.292   3.304  17.110  0.00  0.00    +0.000 A 
ATOM      5  C   UNL     1      47.497   4.071  15.975  0.00  0.00    +0.000 A 
ATOM      6  N   UNL     1      48.389   5.078  15.915  0.00  0.00    +0.000 NA
ATOM      7  C   UNL     1      49.143   5.306  17.005  0.00  0.00    +0.000 A 
BRANCH   5   8
ATOM      8  O   UNL     1      46.774   3.741  14.847  0.00  0.00    +0.000 OA
BRANCH   8   9
ATOM      9  C   UNL     1      46.787   4.774  13.849  0.00  0.00    +0.000 C 
BRANCH   9  10
ATOM     10  C   UNL     1      45.342   5.149  13.509  0.00  0.00    +0.000 C 
BRANCH  10  11
ATOM     11  N   UNL     1      44.535   3.991  13.093  0.00  0.00    +0.000 NA
ATOM     12  C   UNL     1      44.945   3.359  11.844  0.00  0.00    +0.000 C 
ATOM     13  C   UNL     1      44.774   4.279  10.640  0.00  0.00    +0.000 C 
ATOM     14  C   UNL     1      43.365   4.859  10.582  0.00  0.00    +0.000 C 
ATOM     15  C   UNL     1      42.847   5.296  11.946  0.00  0.00    +0.000 C 
ATOM     16  O   UNL     1      43.119   4.336  12.974  0.00  0.00    +0.000 OA
ENDBRANCH  10  11
ENDBRANCH   9  10
ENDBRANCH   8   9
ENDBRANCH   5   8
ENDBRANCH   1   2
BRANCH   1  19
ATOM     17  O   UNL     1      52.482   5.422  18.200  0.00  0.00    +0.000 OA
ATOM     18  C   UNL     1      52.317   4.368  18.808  0.00  0.00    +0.000 C 
ATOM     19  N   UNL     1      51.103   4.007  19.336  0.00  0.00    +0.000 N 
ATOM     20  H   UNL     1      51.063   3.235  19.992  0.00  0.00    +0.000 HD
BRANCH  18  21
ATOM     21  C   UNL     1      53.402   3.395  18.975  0.00  0.00    +0.000 A 
ATOM     22  C   UNL     1      54.555   3.757  19.658  0.00  0.00    +0.000 A 
ATOM     23  S   UNL     1      55.726   2.518  19.726  0.00  0.00    +0.000 S 
ATOM     24  C   UNL     1      54.711   1.437  18.891  0.00  0.00    +0.000 A 
ATOM     25  N   UNL     1      55.106   0.162  18.637  0.00  0.00    +0.000 NA
ATOM     26  C   UNL     1      54.222  -0.564  18.037  0.00  0.00    +0.000 A 
ATOM     27  N   UNL     1      52.980  -0.126  17.657  0.00  0.00    +0.000 N 
ATOM     28  C   UNL     1      52.570   1.174  17.820  0.00  0.00    +0.000 A 
ATOM     29  O   UNL     1      51.509   1.567  17.342  0.00  0.00    +0.000 OA
ATOM     30  C   UNL     1      53.507   2.021  18.537  0.00  0.00    +0.000 A 
ATOM     31  H   UNL     1      52.347  -0.735  17.160  0.00  0.00    +0.000 HD
ENDBRANCH  18  21
ENDBRANCH   1  19
TORSDOF 7
ENDMDL
MODEL 4
REMARK VINA RESULT:    -6.531      1.666      2.497
REMARK INTER + INTRA:         -10.417
REMARK INTER:                  -9.159
REMARK INTRA:                  -1.258
REMARK UNBOUND:                -1.214
REMARK  Name = 
REMARK  7 active torsions:
REMARK  status: ('A' for Active; 'I' for Inactive)
REMARK    1  A    between atoms: C_2  and  C_20
REMARK    2  A    between atoms: N_3  and  C_4
REMARK    3  A    between atoms: C_4  and  C_5
REMARK    4  A    between atoms: C_8  and  O_9
REMARK    5  A    between atoms: O_9  and  C_10
REMARK    6  A    between atoms: C_10  and  C_11
REMARK    7  A    between atoms: C_11  and  N_12
REMARK                            x       y       z     vdW  Elec       q    Type
REMARK                         _______ _______ _______ _____ _____    ______ ____
ROOT
ATOM      1  C   UNL     1      48.199   8.254  11.983  0.00  0.00    +0.000 C 
ENDROOT
BRANCH   1   2
ATOM      2  C   UNL     1      48.573   8.100  13.425  0.00  0.00    +0.000 A 
ATOM      3  C   UNL     1      47.892   8.752  14.457  0.00  0.00    +0.000 A 
ATOM      4  C   UNL     1      48.322   8.590  15.775  0.00  0.00    +0.000 A 
ATOM      5  C   UNL     1      49.407   7.762  16.013  0.00  0.00    +0.000 A 
ATOM      6  N   UNL     1      50.042   7.079  15.041  0.00  0.00    +0.000 NA
ATOM      7  C   UNL     1      49.618   7.258  13.778  0.00  0.00    +0.000 A 
BRANCH   5   8
ATOM      8  O   UNL     1      49.873   7.684  17.309  0.00  0.00    +0.000 OA
BRANCH   8   9
ATOM      9  C   UNL     1      48.985   6.968  18.183  0.00  0.00    +0.000 C 
BRANCH   9  10
ATOM     10  C   UNL     1      49.345   5.480  18.140  0.00  0.00    +0.000 C 
BRANCH  10  11
ATOM     11  N   UNL     1      48.196   4.606  18.421  0.00  0.00    +0.000 NA
ATOM     12  C   UNL     1      48.499   3.181  18.499  0.00  0.00    +0.000 C 
ATOM     13  C   UNL     1      48.979   2.612  17.168  0.00  0.00    +0.000 C 
ATOM     14  C   UNL     1      48.014   2.956  16.039  0.00  0.00    +0.000 C 
ATOM     15  C   UNL     1      47.509   4.391  16.107  0.00  0.00    +0.000 C 
ATOM     16  O   UNL     1      47.132   4.781  17.433  0.00  0.00    +0.000 OA
ENDBRANCH  10  11
ENDBRANCH   9  10
ENDBRANCH   8   9
ENDBRANCH   5   8
ENDBRANCH   1   2
BRANCH   1  19
ATOM     17  O   UNL     1      45.410   7.973  11.739  0.00  0.00    +0.000 OA
ATOM     18  C   UNL     1      46.135   7.054  11.365  0.00  0.00    +0.000 C 
ATOM     19  N   UNL     1      47.499   7.094  11.502  0.00  0.00    +0.000 N 
ATOM     20  H   UNL     1      48.063   6.413  11.005  0.00  0.00    +0.000 HD
BRANCH  18  21
ATOM     21  C   UNL     1      45.585   5.826  10.781  0.00  0.00    +0.000 A 
ATOM     22  C   UNL     1      45.836   5.520   9.451  0.00  0.00    +0.000 A 
ATOM     23  S   UNL     1      45.092   4.077   8.929  0.00  0.00    +0.000 S 
ATOM     24  C   UNL     1      44.451   3.782  10.478  0.00  0.00    +0.000 A 
ATOM     25  N   UNL     1      43.715   2.668  10.731  0.00  0.00    +0.000 NA
ATOM     26  C   UNL     1      43.331   2.546  11.957  0.00  0.00    +0.000 A 
ATOM     27  N   UNL     1      43.604   3.446  12.955  0.00  0.00    +0.000 N 
ATOM     28  C   UNL     1      44.273   4.624  12.728  0.00  0.00    +0.000 A 
ATOM     29  O   UNL     1      44.378   5.471  13.611  0.00  0.00    +0.000 OA
ATOM     30  C   UNL     1      44.775   4.786  11.375  0.00  0.00    +0.000 A 
ATOM     31  H   UNL     1      43.244   3.309  13.887  0.00  0.00    +0.000 HD
ENDBRANCH  18  21
ENDBRANCH   1  19
TORSDOF 7
ENDMDL
MODEL 5
REMARK VINA RESULT:    -6.517      2.906      8.693
REMARK INTER + INTRA:         -10.398
REMARK INTER:                  -9.381
REMARK INTRA:                  -1.017
REMARK UNBOUND:                -1.214
REMARK  Name = 
REMARK  7 active torsions:
REMARK  status: ('A' for Active; 'I' for Inactive)
REMARK    1  A    between atoms: C_2  and  C_20
REMARK    2  A    between atoms: N_3  and  C_4
REMARK    3  A    between atoms: C_4  and  C_5
REMARK    4  A    between atoms: C_8  and  O_9
REMARK    5  A    between atoms: O_9  and  C_10
REMARK    6  A    between atoms: C_10  and  C_11
REMARK    7  A    between atoms: C_11  and  N_12
REMARK                            x       y       z     vdW  Elec       q    Type
REMARK                         _______ _______ _______ _____ _____    ______ ____
ROOT
ATOM      1  C   UNL     1      47.740   4.522  15.644  0.00  0.00    +0.000 C 
ENDROOT
BRANCH   1   2
ATOM      2  C   UNL     1      47.099   5.004  14.380  0.00  0.00    +0.000 A 
ATOM      3  C   UNL     1      45.837   4.572  13.959  0.00  0.00    +0.000 A 
ATOM      4  C   UNL     1      45.319   5.036  12.749  0.00  0.00    +0.000 A 
ATOM      5  C   UNL     1      46.075   5.935  12.015  0.00  0.00    +0.000 A 
ATOM      6  N   UNL     1      47.265   6.409  12.428  0.00  0.00    +0.000 NA
ATOM      7  C   UNL     1      47.751   5.941  13.591  0.00  0.00    +0.000 A 
BRANCH   5   8
ATOM      8  O   UNL     1      45.587   6.314  10.781  0.00  0.00    +0.000 OA
BRANCH   8   9
ATOM      9  C   UNL     1      45.013   5.222  10.044  0.00  0.00    +0.000 C 
BRANCH   9  10
ATOM     10  C   UNL     1      45.938   4.877   8.873  0.00  0.00    +0.000 C 
BRANCH  10  11
ATOM     11  N   UNL     1      45.257   4.121   7.811  0.00  0.00    +0.000 NA
ATOM     12  C   UNL     1      44.650   2.862   8.231  0.00  0.00    +0.000 C 
ATOM     13  C   UNL     1      45.682   1.842   8.697  0.00  0.00    +0.000 C 
ATOM     14  C   UNL     1      46.785   1.657   7.660  0.00  0.00    +0.000 C 
ATOM     15  C   UNL     1      47.247   2.972   7.045  0.00  0.00    +0.000 C 
ATOM     16  O   UNL     1      46.156   3.831   6.695  0.00  0.00    +0.000 OA
ENDBRANCH  10  11
ENDBRANCH   9  10
ENDBRANCH   8   9
ENDBRANCH   5   8
ENDBRANCH   1   2
BRANCH   1  19
ATOM     17  O   UNL     1      50.166   5.438  16.736  0.00  0.00    +0.000 OA
ATOM     18  C   UNL     1      49.124   6.015  17.035  0.00  0.00    +0.000 C 
ATOM     19  N   UNL     1      47.897   5.595  16.588  0.00  0.00    +0.000 N 
ATOM     20  H   UNL     1      47.098   6.211  16.695  0.00  0.00    +0.000 HD
BRANCH  18  21
ATOM     21  C   UNL     1      49.116   7.177  17.932  0.00  0.00    +0.000 A 
ATOM     22  C   UNL     1      49.515   7.032  19.253  0.00  0.00    +0.000 A 
ATOM     23  S   UNL     1      49.409   8.473  20.160  0.00  0.00    +0.000 S 
ATOM     24  C   UNL     1      48.875   9.353  18.804  0.00  0.00    +0.000 A 
ATOM     25  N   UNL     1      48.621  10.685  18.891  0.00  0.00    +0.000 NA
ATOM     26  C   UNL     1      48.269  11.237  17.778  0.00  0.00    +0.000 A 
ATOM     27  N   UNL     1      48.134  10.574  16.586  0.00  0.00    +0.000 N 
ATOM     28  C   UNL     1      48.301   9.216  16.469  0.00  0.00    +0.000 A 
ATOM     29  O   UNL     1      48.036   8.633  15.421  0.00  0.00    +0.000 OA
ATOM     30  C   UNL     1      48.751   8.553  17.681  0.00  0.00    +0.000 A 
ATOM     31  H   UNL     1      47.821  11.057  15.757  0.00  0.00    +0.000 HD
ENDBRANCH  18  21
ENDBRANCH   1  19
TORSDOF 7
ENDMDL
MODEL 6
REMARK VINA RESULT:    -6.403      3.227      4.750
REMARK INTER + INTRA:         -10.236
REMARK INTER:                  -8.960
REMARK INTRA:                  -1.277
REMARK UNBOUND:                -1.214
REMARK  Name = 
REMARK  7 active torsions:
REMARK  status: ('A' for Active; 'I' for Inactive)
REMARK    1  A    between atoms: C_2  and  C_20
REMARK    2  A    between atoms: N_3  and  C_4
REMARK    3  A    between atoms: C_4  and  C_5
REMARK    4  A    between atoms: C_8  and  O_9
REMARK    5  A    between atoms: O_9  and  C_10
REMARK    6  A    between atoms: C_10  and  C_11
REMARK    7  A    between atoms: C_11  and  N_12
REMARK                            x       y       z     vdW  Elec       q    Type
REMARK                         _______ _______ _______ _____ _____    ______ ____
ROOT
ATOM      1  C   UNL     1      47.301   3.629  16.603  0.00  0.00    +0.000 C 
ENDROOT
BRANCH   1   2
ATOM      2  C   UNL     1      48.066   4.350  17.669  0.00  0.00    +0.000 A 
ATOM      3  C   UNL     1      48.516   5.665  17.519  0.00  0.00    +0.000 A 
ATOM      4  C   UNL     1      49.257   6.260  18.542  0.00  0.00    +0.000 A 
ATOM      5  C   UNL     1      49.501   5.522  19.688  0.00  0.00    +0.000 A 
ATOM      6  N   UNL     1      49.029   4.275  19.878  0.00  0.00    +0.000 NA
ATOM      7  C   UNL     1      48.327   3.717  18.876  0.00  0.00    +0.000 A 
BRANCH   5   8
ATOM      8  O   UNL     1      50.309   6.093  20.650  0.00  0.00    +0.000 OA
BRANCH   8   9
ATOM      9  C   UNL     1      51.616   6.431  20.157  0.00  0.00    +0.000 C 
BRANCH   9  10
ATOM     10  C   UNL     1      52.477   5.166  20.135  0.00  0.00    +0.000 C 
BRANCH  10  11
ATOM     11  N   UNL     1      53.275   5.040  18.906  0.00  0.00    +0.000 NA
ATOM     12  C   UNL     1      52.517   4.743  17.696  0.00  0.00    +0.000 C 
ATOM     13  C   UNL     1      51.846   3.375  17.747  0.00  0.00    +0.000 C 
ATOM     14  C   UNL     1      52.845   2.282  18.110  0.00  0.00    +0.000 C 
ATOM     15  C   UNL     1      53.800   2.696  19.221  0.00  0.00    +0.000 C 
ATOM     16  O   UNL     1      54.315   4.021  19.041  0.00  0.00    +0.000 OA
ENDBRANCH  10  11
ENDBRANCH   9  10
ENDBRANCH   8   9
ENDBRANCH   5   8
ENDBRANCH   1   2
BRANCH   1  19
ATOM     17  O   UNL     1      47.263   3.220  13.820  0.00  0.00    +0.000 OA
ATOM     18  C   UNL     1      46.770   4.249  14.276  0.00  0.00    +0.000 C 
ATOM     19  N   UNL     1      46.800   4.545  15.615  0.00  0.00    +0.000 N 
ATOM     20  H   UNL     1      46.214   5.296  15.965  0.00  0.00    +0.000 HD
BRANCH  18  21
ATOM     21  C   UNL     1      46.150   5.257  13.410  0.00  0.00    +0.000 A 
ATOM     22  C   UNL     1      46.855   6.404  13.071  0.00  0.00    +0.000 A 
ATOM     23  S   UNL     1      45.971   7.483  12.089  0.00  0.00    +0.000 S 
ATOM     24  C   UNL     1      44.634   6.431  12.038  0.00  0.00    +0.000 A 
ATOM     25  N   UNL     1      43.522   6.747  11.325  0.00  0.00    +0.000 NA
ATOM     26  C   UNL     1      42.603   5.839  11.335  0.00  0.00    +0.000 A 
ATOM     27  N   UNL     1      42.691   4.647  12.005  0.00  0.00    +0.000 N 
ATOM     28  C   UNL     1      43.760   4.320  12.802  0.00  0.00    +0.000 A 
ATOM     29  O   UNL     1      43.744   3.309  13.499  0.00  0.00    +0.000 OA
ATOM     30  C   UNL     1      44.846   5.284  12.785  0.00  0.00    +0.000 A 
ATOM     31  H   UNL     1      41.922   3.993  12.000  0.00  0.00    +0.000 HD
ENDBRANCH  18  21
ENDBRANCH   1  19
TORSDOF 7
ENDMDL
MODEL 7
REMARK VINA RESULT:    -6.381      3.037      9.096
REMARK INTER + INTRA:         -10.206
REMARK INTER:                  -9.225
REMARK INTRA:                  -0.981
REMARK UNBOUND:                -1.214
REMARK  Name = 
REMARK  7 active torsions:
REMARK  status: ('A' for Active; 'I' for Inactive)
REMARK    1  A    between atoms: C_2  and  C_20
REMARK    2  A    between atoms: N_3  and  C_4
REMARK    3  A    between atoms: C_4  and  C_5
REMARK    4  A    between atoms: C_8  and  O_9
REMARK    5  A    between atoms: O_9  and  C_10
REMARK    6  A    between atoms: C_10  and  C_11
REMARK    7  A    between atoms: C_11  and  N_12
REMARK                            x       y       z     vdW  Elec       q    Type
REMARK                         _______ _______ _______ _____ _____    ______ ____
ROOT
ATOM      1  C   UNL     1      47.595   3.831  15.731  0.00  0.00    +0.000 C 
ENDROOT
BRANCH   1   2
ATOM      2  C   UNL     1      47.091   4.475  14.477  0.00  0.00    +0.000 A 
ATOM      3  C   UNL     1      47.455   5.769  14.093  0.00  0.00    +0.000 A 
ATOM      4  C   UNL     1      46.916   6.319  12.929  0.00  0.00    +0.000 A 
ATOM      5  C   UNL     1      46.048   5.543  12.179  0.00  0.00    +0.000 A 
ATOM      6  N   UNL     1      45.728   4.274  12.498  0.00  0.00    +0.000 NA
ATOM      7  C   UNL     1      46.250   3.768  13.629  0.00  0.00    +0.000 A 
BRANCH   5   8
ATOM      8  O   UNL     1      45.456   6.133  11.081  0.00  0.00    +0.000 OA
BRANCH   8   9
ATOM      9  C   UNL     1      44.829   5.184  10.203  0.00  0.00    +0.000 C 
BRANCH   9  10
ATOM     10  C   UNL     1      45.796   4.854   9.063  0.00  0.00    +0.000 C 
BRANCH  10  11
ATOM     11  N   UNL     1      45.147   4.139   7.953  0.00  0.00    +0.000 NA
ATOM     12  C   UNL     1      44.579   2.839   8.293  0.00  0.00    +0.000 C 
ATOM     13  C   UNL     1      45.642   1.828   8.708  0.00  0.00    +0.000 C 
ATOM     14  C   UNL     1      46.757   1.740   7.671  0.00  0.00    +0.000 C 
ATOM     15  C   UNL     1      47.179   3.102   7.138  0.00  0.00    +0.000 C 
ATOM     16  O   UNL     1      46.063   3.945   6.829  0.00  0.00    +0.000 OA
ENDBRANCH  10  11
ENDBRANCH   9  10
ENDBRANCH   8   9
ENDBRANCH   5   8
ENDBRANCH   1   2
BRANCH   1  19
ATOM     17  O   UNL     1      46.710   4.795  18.222  0.00  0.00    +0.000 OA
ATOM     18  C   UNL     1      47.801   5.164  17.795  0.00  0.00    +0.000 C 
ATOM     19  N   UNL     1      48.276   4.782  16.566  0.00  0.00    +0.000 N 
ATOM     20  H   UNL     1      49.252   4.946  16.344  0.00  0.00    +0.000 HD
BRANCH  18  21
ATOM     21  C   UNL     1      48.658   6.079  18.557  0.00  0.00    +0.000 A 
ATOM     22  C   UNL     1      48.155   7.299  18.987  0.00  0.00    +0.000 A 
ATOM     23  S   UNL     1      49.296   8.251  19.824  0.00  0.00    +0.000 S 
ATOM     24  C   UNL     1      50.487   7.043  19.688  0.00  0.00    +0.000 A 
ATOM     25  N   UNL     1      51.721   7.213  20.231  0.00  0.00    +0.000 NA
ATOM     26  C   UNL     1      52.511   6.201  20.094  0.00  0.00    +0.000 A 
ATOM     27  N   UNL     1      52.183   5.036  19.451  0.00  0.00    +0.000 N 
ATOM     28  C   UNL     1      50.978   4.852  18.818  0.00  0.00    +0.000 A 
ATOM     29  O   UNL     1      50.770   3.854  18.132  0.00  0.00    +0.000 OA
ATOM     30  C   UNL     1      50.032   5.940  18.987  0.00  0.00    +0.000 A 
ATOM     31  H   UNL     1      52.859   4.294  19.348  0.00  0.00    +0.000 HD
ENDBRANCH  18  21
ENDBRANCH   1  19
TORSDOF 7
ENDMDL
MODEL 8
REMARK VINA RESULT:    -6.242      3.569      8.803
REMARK INTER + INTRA:         -10.010
REMARK INTER:                  -9.221
REMARK INTRA:                  -0.789
REMARK UNBOUND:                -1.214
REMARK  Name = 
REMARK  7 active torsions:
REMARK  status: ('A' for Active; 'I' for Inactive)
REMARK    1  A    between atoms: C_2  and  C_20
REMARK    2  A    between atoms: N_3  and  C_4
REMARK    3  A    between atoms: C_4  and  C_5
REMARK    4  A    between atoms: C_8  and  O_9
REMARK    5  A    between atoms: O_9  and  C_10
REMARK    6  A    between atoms: C_10  and  C_11
REMARK    7  A    between atoms: C_11  and  N_12
REMARK                            x       y       z     vdW  Elec       q    Type
REMARK                         _______ _______ _______ _____ _____    ______ ____
ROOT
ATOM      1  C   UNL     1      48.304   3.745  18.108  0.00  0.00    +0.000 C 
ENDROOT
BRANCH   1   2
ATOM      2  C   UNL     1      48.004   4.347  16.771  0.00  0.00    +0.000 A 
ATOM      3  C   UNL     1      47.102   3.774  15.869  0.00  0.00    +0.000 A 
ATOM      4  C   UNL     1      46.900   4.370  14.624  0.00  0.00    +0.000 A 
ATOM      5  C   UNL     1      47.594   5.534  14.335  0.00  0.00    +0.000 A 
ATOM      6  N   UNL     1      48.424   6.135  15.209  0.00  0.00    +0.000 NA
ATOM      7  C   UNL     1      48.611   5.537  16.399  0.00  0.00    +0.000 A 
BRANCH   5   8
ATOM      8  O   UNL     1      47.451   6.061  13.068  0.00  0.00    +0.000 OA
BRANCH   8   9
ATOM      9  C   UNL     1      46.119   6.533  12.803  0.00  0.00    +0.000 C 
BRANCH   9  10
ATOM     10  C   UNL     1      45.556   5.769  11.602  0.00  0.00    +0.000 C 
BRANCH  10  11
ATOM     11  N   UNL     1      44.086   5.797  11.546  0.00  0.00    +0.000 NA
ATOM     12  C   UNL     1      43.405   5.319  12.744  0.00  0.00    +0.000 C 
ATOM     13  C   UNL     1      43.657   3.839  13.008  0.00  0.00    +0.000 C 
ATOM     14  C   UNL     1      43.355   2.997  11.773  0.00  0.00    +0.000 C 
ATOM     15  C   UNL     1      43.862   3.631  10.484  0.00  0.00    +0.000 C 
ATOM     16  O   UNL     1      43.576   5.033  10.408  0.00  0.00    +0.000 OA
ENDBRANCH  10  11
ENDBRANCH   9  10
ENDBRANCH   8   9
ENDBRANCH   5   8
ENDBRANCH   1   2
BRANCH   1  19
ATOM     17  O   UNL     1      49.679   1.832  16.571  0.00  0.00    +0.000 OA
ATOM     18  C   UNL     1      50.304   2.491  17.398  0.00  0.00    +0.000 C 
ATOM     19  N   UNL     1      49.696   3.402  18.223  0.00  0.00    +0.000 N 
ATOM     20  H   UNL     1      50.271   4.056  18.742  0.00  0.00    +0.000 HD
BRANCH  18  21
ATOM     21  C   UNL     1      51.748   2.315  17.591  0.00  0.00    +0.000 A 
ATOM     22  C   UNL     1      52.285   1.038  17.668  0.00  0.00    +0.000 A 
ATOM     23  S   UNL     1      53.970   1.020  17.930  0.00  0.00    +0.000 S 
ATOM     24  C   UNL     1      54.050   2.720  17.897  0.00  0.00    +0.000 A 
ATOM     25  N   UNL     1      55.236   3.367  18.035  0.00  0.00    +0.000 NA
ATOM     26  C   UNL     1      55.159   4.653  17.944  0.00  0.00    +0.000 A 
ATOM     27  N   UNL     1      53.999   5.353  17.739  0.00  0.00    +0.000 N 
ATOM     28  C   UNL     1      52.768   4.747  17.674  0.00  0.00    +0.000 A 
ATOM     29  O   UNL     1      51.737   5.412  17.631  0.00  0.00    +0.000 OA
ATOM     30  C   UNL     1      52.804   3.295  17.718  0.00  0.00    +0.000 A 
ATOM     31  H   UNL     1      54.001   6.362  17.711  0.00  0.00    +0.000 HD
ENDBRANCH  18  21
ENDBRANCH   1  19
TORSDOF 7
ENDMDL
MODEL 9
REMARK VINA RESULT:    -6.018      3.137      7.980
REMARK INTER + INTRA:          -9.694
REMARK INTER:                  -8.865
REMARK INTRA:                  -0.829
REMARK UNBOUND:                -1.214
REMARK  Name = 
REMARK  7 active torsions:
REMARK  status: ('A' for Active; 'I' for Inactive)
REMARK    1  A    between atoms: C_2  and  C_20
REMARK    2  A    between atoms: N_3  and  C_4
REMARK    3  A    between atoms: C_4  and  C_5
REMARK    4  A    between atoms: C_8  and  O_9
REMARK    5  A    between atoms: O_9  and  C_10
REMARK    6  A    between atoms: C_10  and  C_11
REMARK    7  A    between atoms: C_11  and  N_12
REMARK                            x       y       z     vdW  Elec       q    Type
REMARK                         _______ _______ _______ _____ _____    ______ ____
ROOT
ATOM      1  C   UNL     1      49.096   7.882  16.892  0.00  0.00    +0.000 C 
ENDROOT
BRANCH   1   2
ATOM      2  C   UNL     1      48.650   7.729  15.471  0.00  0.00    +0.000 A 
ATOM      3  C   UNL     1      48.208   8.806  14.697  0.00  0.00    +0.000 A 
ATOM      4  C   UNL     1      47.772   8.581  13.390  0.00  0.00    +0.000 A 
ATOM      5  C   UNL     1      47.814   7.286  12.900  0.00  0.00    +0.000 A 
ATOM      6  N   UNL     1      48.289   6.243  13.607  0.00  0.00    +0.000 NA
ATOM      7  C   UNL     1      48.695   6.481  14.867  0.00  0.00    +0.000 A 
BRANCH   5   8
ATOM      8  O   UNL     1      47.296   7.068  11.639  0.00  0.00    +0.000 OA
BRANCH   8   9
ATOM      9  C   UNL     1      45.860   7.006  11.626  0.00  0.00    +0.000 C 
BRANCH   9  10
ATOM     10  C   UNL     1      45.433   5.569  11.311  0.00  0.00    +0.000 C 
BRANCH  10  11
ATOM     11  N   UNL     1      44.001   5.456  10.993  0.00  0.00    +0.000 NA
ATOM     12  C   UNL     1      43.123   5.223  12.134  0.00  0.00    +0.000 C 
ATOM     13  C   UNL     1      43.379   3.876  12.802  0.00  0.00    +0.000 C 
ATOM     14  C   UNL     1      43.353   2.740  11.785  0.00  0.00    +0.000 C 
ATOM     15  C   UNL     1      44.071   3.088  10.489  0.00  0.00    +0.000 C 
ATOM     16  O   UNL     1      43.749   4.400  10.013  0.00  0.00    +0.000 OA
ENDBRANCH  10  11
ENDBRANCH   9  10
ENDBRANCH   8   9
ENDBRANCH   5   8
ENDBRANCH   1   2
BRANCH   1  19
ATOM     17  O   UNL     1      48.891   5.791  18.763  0.00  0.00    +0.000 OA
ATOM     18  C   UNL     1      49.925   5.905  18.110  0.00  0.00    +0.000 C 
ATOM     19  N   UNL     1      50.122   6.929  17.220  0.00  0.00    +0.000 N 
ATOM     20  H   UNL     1      50.896   6.871  16.567  0.00  0.00    +0.000 HD
BRANCH  18  21
ATOM     21  C   UNL     1      51.045   4.971  18.270  0.00  0.00    +0.000 A 
ATOM     22  C   UNL     1      52.207   5.387  18.905  0.00  0.00    +0.000 A 
ATOM     23  S   UNL     1      53.416   4.186  18.970  0.00  0.00    +0.000 S 
ATOM     24  C   UNL     1      52.410   3.051  18.200  0.00  0.00    +0.000 A 
ATOM     25  N   UNL     1      52.836   1.781  17.970  0.00  0.00    +0.000 NA
ATOM     26  C   UNL     1      51.956   1.012  17.421  0.00  0.00    +0.000 A 
ATOM     27  N   UNL     1      50.690   1.401  17.068  0.00  0.00    +0.000 N 
ATOM     28  C   UNL     1      50.245   2.692  17.207  0.00  0.00    +0.000 A 
ATOM     29  O   UNL     1      49.158   3.039  16.752  0.00  0.00    +0.000 OA
ATOM     30  C   UNL     1      51.178   3.588  17.869  0.00  0.00    +0.000 A 
ATOM     31  H   UNL     1      50.060   0.759  16.610  0.00  0.00    +0.000 HD
ENDBRANCH  18  21
ENDBRANCH   1  19
TORSDOF 7
ENDMDL
