MODEL 1
REMARK VINA RESULT:    -9.066      0.000      0.000
REMARK INTER + INTRA:         -11.647
REMARK INTER:                 -11.185
REMARK INTRA:                  -0.461
REMARK UNBOUND:                -0.461
REMARK  Name = 
REMARK  4 active torsions:
REMARK  status: ('A' for Active; 'I' for Inactive)
REMARK    1  A    between atoms: C_2  and  C_4
REMARK    2  A    between atoms: N_8  and  C_9
REMARK    3  A    between atoms: C_9  and  C_10
REMARK    4  A    between atoms: C_14  and  C_15
REMARK                            x       y       z     vdW  Elec       q    Type
REMARK                         _______ _______ _______ _____ _____    ______ ____
ROOT
ATOM      1  C   UNL     1      46.393   2.263   7.709  0.00  0.00    +0.000 A 
ATOM      2  C   UNL     1      45.546   1.857   8.709  0.00  0.00    +0.000 A 
ATOM      3  N   UNL     1      44.664   2.678   9.320  0.00  0.00    +0.000 NA
ATOM      4  C   UNL     1      44.641   3.961   8.926  0.00  0.00    +0.000 A 
ATOM      5  N   UNL     1      43.747   4.848   9.506  0.00  0.00    +0.000 N 
ATOM      6  N   UNL     1      45.452   4.460   7.981  0.00  0.00    +0.000 NA
ATOM      7  C   UNL     1      46.316   3.599   7.391  0.00  0.00    +0.000 A 
ATOM      8  H   UNL     1      44.103   5.782   9.333  0.00  0.00    +0.000 HD
ENDROOT
BRANCH   1  10
ATOM      9  N   UNL     1      48.500   1.926   6.557  0.00  0.00    +0.000 N 
ATOM     10  C   UNL     1      47.348   1.369   7.043  0.00  0.00    +0.000 C 
ATOM     11  O   UNL     1      47.133   0.168   6.950  0.00  0.00    +0.000 OA
ATOM     12  H   UNL     1      49.185   1.282   6.174  0.00  0.00    +0.000 HD
ATOM     13  H   UNL     1      48.837   2.840   6.824  0.00  0.00    +0.000 HD
ENDBRANCH   1  10
BRANCH   5  14
ATOM     14  C   UNL     1      43.437   4.538  10.888  0.00  0.00    +0.000 C 
BRANCH  14  15
ATOM     15  C   UNL     1      44.614   4.859  11.771  0.00  0.00    +0.000 A 
ATOM     16  C   UNL     1      44.946   4.049  12.846  0.00  0.00    +0.000 A 
ATOM     17  N   UNL     1      45.963   4.305  13.694  0.00  0.00    +0.000 NA
ATOM     18  C   UNL     1      46.687   5.428  13.458  0.00  0.00    +0.000 A 
ATOM     19  C   UNL     1      46.454   6.336  12.421  0.00  0.00    +0.000 A 
ATOM     20  C   UNL     1      45.380   6.018  11.574  0.00  0.00    +0.000 A 
BRANCH  19  21
ATOM     21  C   UNL     1      47.274   7.549  12.234  0.00  0.00    +0.000 A 
ATOM     22  C   UNL     1      48.635   7.489  11.899  0.00  0.00    +0.000 A 
ATOM     23  C   UNL     1      49.380   8.655  11.717  0.00  0.00    +0.000 A 
ATOM     24  C   UNL     1      48.745   9.873  11.884  0.00  0.00    +0.000 A 
ATOM     25  N   UNL     1      47.444   9.992  12.211  0.00  0.00    +0.000 NA
ATOM     26  C   UNL     1      46.748   8.839  12.372  0.00  0.00    +0.000 A 
ENDBRANCH  19  21
ENDBRANCH  14  15
ENDBRANCH   5  14
TORSDOF 4
ENDMDL
MODEL 2
REMARK VINA RESULT:    -8.675      1.767      3.504
REMARK INTER + INTRA:         -11.165
REMARK INTER:                 -10.573
REMARK INTRA:                  -0.592
REMARK UNBOUND:                -0.461
REMARK  Name = 
REMARK  4 active torsions:
REMARK  status: ('A' for Active; 'I' for Inactive)
REMARK    1  A    between atoms: C_2  and  C_4
REMARK    2  A    between atoms: N_8  and  C_9
REMARK    3  A    between atoms: C_9  and  C_10
REMARK    4  A    between atoms: C_14  and  C_15
REMARK                            x       y       z     vdW  Elec       q    Type
REMARK                         _______ _______ _______ _____ _____    ______ ____
ROOT
ATOM      1  C   UNL     1      46.413   2.273   7.694  0.00  0.00    +0.000 A 
ATOM      2  C   UNL     1      45.624   1.910   8.756  0.00  0.00    +0.000 A 
ATOM      3  N   UNL     1      44.794   2.765   9.393  0.00  0.00    +0.000 NA
ATOM      4  C   UNL     1      44.765   4.035   8.962  0.00  0.00    +0.000 A 
ATOM      5  N   UNL     1      43.922   4.954   9.567  0.00  0.00    +0.000 N 
ATOM      6  N   UNL     1      45.523   4.492   7.953  0.00  0.00    +0.000 NA
ATOM      7  C   UNL     1      46.337   3.599   7.339  0.00  0.00    +0.000 A 
ATOM      8  H   UNL     1      44.280   5.876   9.344  0.00  0.00    +0.000 HD
ENDROOT
BRANCH   1  10
ATOM      9  N   UNL     1      48.417   1.872   6.386  0.00  0.00    +0.000 N 
ATOM     10  C   UNL     1      47.313   1.343   6.998  0.00  0.00    +0.000 C 
ATOM     11  O   UNL     1      47.096   0.139   6.991  0.00  0.00    +0.000 OA
ATOM     12  H   UNL     1      49.069   1.208   5.982  0.00  0.00    +0.000 HD
ATOM     13  H   UNL     1      48.770   2.800   6.572  0.00  0.00    +0.000 HD
ENDBRANCH   1  10
BRANCH   5  14
ATOM     14  C   UNL     1      43.693   4.692  10.974  0.00  0.00    +0.000 C 
BRANCH  14  15
ATOM     15  C   UNL     1      44.753   5.361  11.809  0.00  0.00    +0.000 A 
ATOM     16  C   UNL     1      45.166   6.657  11.538  0.00  0.00    +0.000 A 
ATOM     17  N   UNL     1      46.136   7.295  12.226  0.00  0.00    +0.000 NA
ATOM     18  C   UNL     1      46.725   6.604  13.234  0.00  0.00    +0.000 A 
ATOM     19  C   UNL     1      46.415   5.292  13.604  0.00  0.00    +0.000 A 
ATOM     20  C   UNL     1      45.400   4.680  12.851  0.00  0.00    +0.000 A 
BRANCH  19  21
ATOM     21  C   UNL     1      47.110   4.596  14.704  0.00  0.00    +0.000 A 
ATOM     22  C   UNL     1      47.508   5.256  15.877  0.00  0.00    +0.000 A 
ATOM     23  C   UNL     1      48.152   4.566  16.904  0.00  0.00    +0.000 A 
ATOM     24  C   UNL     1      48.399   3.216  16.734  0.00  0.00    +0.000 A 
ATOM     25  N   UNL     1      48.045   2.531  15.629  0.00  0.00    +0.000 NA
ATOM     26  C   UNL     1      47.414   3.231  14.654  0.00  0.00    +0.000 A 
ENDBRANCH  19  21
ENDBRANCH  14  15
ENDBRANCH   5  14
TORSDOF 4
ENDMDL
MODEL 3
REMARK VINA RESULT:    -8.103      2.876      6.690
REMARK INTER + INTRA:         -10.459
REMARK INTER:                  -9.772
REMARK INTRA:                  -0.687
REMARK UNBOUND:                -0.461
REMARK  Name = 
REMARK  4 active torsions:
REMARK  status: ('A' for Active; 'I' for Inactive)
REMARK    1  A    between atoms: C_2  and  C_4
REMARK    2  A    between atoms: N_8  and  C_9
REMARK    3  A    between atoms: C_9  and  C_10
REMARK    4  A    between atoms: C_14  and  C_15
REMARK                            x       y       z     vdW  Elec       q    Type
REMARK                         _______ _______ _______ _____ _____    ______ ____
ROOT
ATOM      1  C   UNL     1      48.485   7.207  12.791  0.00  0.00    +0.000 A 
ATOM      2  C   UNL     1      47.683   7.642  11.766  0.00  0.00    +0.000 A 
ATOM      3  N   UNL     1      46.362   7.368  11.685  0.00  0.00    +0.000 NA
ATOM      4  C   UNL     1      45.827   6.616  12.659  0.00  0.00    +0.000 A 
ATOM      5  N   UNL     1      44.474   6.315  12.637  0.00  0.00    +0.000 N 
ATOM      6  N   UNL     1      46.535   6.118  13.683  0.00  0.00    +0.000 NA
ATOM      7  C   UNL     1      47.855   6.422  13.728  0.00  0.00    +0.000 A 
ATOM      8  H   UNL     1      44.342   5.501  13.227  0.00  0.00    +0.000 HD
ENDROOT
BRANCH   1  10
ATOM      9  N   UNL     1      50.654   7.432  11.729  0.00  0.00    +0.000 N 
ATOM     10  C   UNL     1      49.920   7.507  12.881  0.00  0.00    +0.000 C 
ATOM     11  O   UNL     1      50.431   7.838  13.942  0.00  0.00    +0.000 OA
ATOM     12  H   UNL     1      51.624   7.722  11.794  0.00  0.00    +0.000 HD
ATOM     13  H   UNL     1      50.247   7.413  10.805  0.00  0.00    +0.000 HD
ENDBRANCH   1  10
BRANCH   5  14
ATOM     14  C   UNL     1      43.922   6.218  11.300  0.00  0.00    +0.000 C 
BRANCH  14  15
ATOM     15  C   UNL     1      44.000   4.798  10.805  0.00  0.00    +0.000 A 
ATOM     16  C   UNL     1      43.289   3.782  11.427  0.00  0.00    +0.000 A 
ATOM     17  N   UNL     1      43.348   2.487  11.054  0.00  0.00    +0.000 NA
ATOM     18  C   UNL     1      44.159   2.190  10.007  0.00  0.00    +0.000 A 
ATOM     19  C   UNL     1      44.937   3.111   9.300  0.00  0.00    +0.000 A 
ATOM     20  C   UNL     1      44.836   4.441   9.736  0.00  0.00    +0.000 A 
BRANCH  19  21
ATOM     21  C   UNL     1      45.809   2.712   8.178  0.00  0.00    +0.000 A 
ATOM     22  C   UNL     1      46.117   3.583   7.122  0.00  0.00    +0.000 A 
ATOM     23  C   UNL     1      46.955   3.179   6.082  0.00  0.00    +0.000 A 
ATOM     24  C   UNL     1      47.467   1.894   6.112  0.00  0.00    +0.000 A 
ATOM     25  N   UNL     1      47.202   1.014   7.096  0.00  0.00    +0.000 NA
ATOM     26  C   UNL     1      46.391   1.442   8.095  0.00  0.00    +0.000 A 
ENDBRANCH  19  21
ENDBRANCH  14  15
ENDBRANCH   5  14
TORSDOF 4
ENDMDL
MODEL 4
REMARK VINA RESULT:    -8.055      3.089      7.116
REMARK INTER + INTRA:         -10.400
REMARK INTER:                 -10.143
REMARK INTRA:                  -0.257
REMARK UNBOUND:                -0.461
REMARK  Name = 
REMARK  4 active torsions:
REMARK  status: ('A' for Active; 'I' for Inactive)
REMARK    1  A    between atoms: C_2  and  C_4
REMARK    2  A    between atoms: N_8  and  C_9
REMARK    3  A    between atoms: C_9  and  C_10
REMARK    4  A    between atoms: C_14  and  C_15
REMARK                            x       y       z     vdW  Elec       q    Type
REMARK                         _______ _______ _______ _____ _____    ______ ____
ROOT
ATOM      1  C   UNL     1      47.513   5.119  15.170  0.00  0.00    +0.000 A 
ATOM      2  C   UNL     1      46.498   4.478  14.505  0.00  0.00    +0.000 A 
ATOM      3  N   UNL     1      46.054   4.851  13.285  0.00  0.00    +0.000 NA
ATOM      4  C   UNL     1      46.637   5.917  12.715  0.00  0.00    +0.000 A 
ATOM      5  N   UNL     1      46.234   6.339  11.457  0.00  0.00    +0.000 N 
ATOM      6  N   UNL     1      47.613   6.628  13.300  0.00  0.00    +0.000 NA
ATOM      7  C   UNL     1      48.031   6.215  14.522  0.00  0.00    +0.000 A 
ATOM      8  H   UNL     1      46.530   7.303  11.359  0.00  0.00    +0.000 HD
ENDROOT
BRANCH   1  10
ATOM      9  N   UNL     1      47.115   4.775  17.538  0.00  0.00    +0.000 N 
ATOM     10  C   UNL     1      47.998   4.711  16.495  0.00  0.00    +0.000 C 
ATOM     11  O   UNL     1      49.142   4.305  16.652  0.00  0.00    +0.000 OA
ATOM     12  H   UNL     1      47.442   4.412  18.428  0.00  0.00    +0.000 HD
ATOM     13  H   UNL     1      46.115   4.857  17.421  0.00  0.00    +0.000 HD
ENDBRANCH   1  10
BRANCH   5  14
ATOM     14  C   UNL     1      44.834   6.079  11.180  0.00  0.00    +0.000 C 
BRANCH  14  15
ATOM     15  C   UNL     1      44.676   4.746  10.499  0.00  0.00    +0.000 A 
ATOM     16  C   UNL     1      43.762   3.809  10.958  0.00  0.00    +0.000 A 
ATOM     17  N   UNL     1      43.602   2.586  10.414  0.00  0.00    +0.000 NA
ATOM     18  C   UNL     1      44.396   2.279   9.357  0.00  0.00    +0.000 A 
ATOM     19  C   UNL     1      45.364   3.121   8.802  0.00  0.00    +0.000 A 
ATOM     20  C   UNL     1      45.486   4.379   9.413  0.00  0.00    +0.000 A 
BRANCH  19  21
ATOM     21  C   UNL     1      46.204   2.714   7.659  0.00  0.00    +0.000 A 
ATOM     22  C   UNL     1      46.320   3.494   6.499  0.00  0.00    +0.000 A 
ATOM     23  C   UNL     1      47.133   3.086   5.440  0.00  0.00    +0.000 A 
ATOM     24  C   UNL     1      47.813   1.888   5.558  0.00  0.00    +0.000 A 
ATOM     25  N   UNL     1      47.735   1.095   6.644  0.00  0.00    +0.000 NA
ATOM     26  C   UNL     1      46.943   1.526   7.658  0.00  0.00    +0.000 A 
ENDBRANCH  19  21
ENDBRANCH  14  15
ENDBRANCH   5  14
TORSDOF 4
ENDMDL
MODEL 5
REMARK VINA RESULT:    -7.664      4.034      7.836
REMARK INTER + INTRA:          -9.918
REMARK INTER:                  -9.510
REMARK INTRA:                  -0.408
REMARK UNBOUND:                -0.461
REMARK  Name = 
REMARK  4 active torsions:
REMARK  status: ('A' for Active; 'I' for Inactive)
REMARK    1  A    between atoms: C_2  and  C_4
REMARK    2  A    between atoms: N_8  and  C_9
REMARK    3  A    between atoms: C_9  and  C_10
REMARK    4  A    between atoms: C_14  and  C_15
REMARK                            x       y       z     vdW  Elec       q    Type
REMARK                         _______ _______ _______ _____ _____    ______ ____
ROOT
ATOM      1  C   UNL     1      48.434   4.383  17.417  0.00  0.00    +0.000 A 
ATOM      2  C   UNL     1      47.434   3.557  16.971  0.00  0.00    +0.000 A 
ATOM      3  N   UNL     1      46.820   3.708  15.776  0.00  0.00    +0.000 NA
ATOM      4  C   UNL     1      47.212   4.734  15.006  0.00  0.00    +0.000 A 
ATOM      5  N   UNL     1      46.629   4.930  13.763  0.00  0.00    +0.000 N 
ATOM      6  N   UNL     1      48.158   5.613  15.369  0.00  0.00    +0.000 NA
ATOM      7  C   UNL     1      48.751   5.421  16.573  0.00  0.00    +0.000 A 
ATOM      8  H   UNL     1      46.801   5.895  13.504  0.00  0.00    +0.000 HD
ENDROOT
BRANCH   1  10
ATOM      9  N   UNL     1      48.416   3.569  19.702  0.00  0.00    +0.000 N 
ATOM     10  C   UNL     1      49.104   4.218  18.714  0.00  0.00    +0.000 C 
ATOM     11  O   UNL     1      50.245   4.623  18.893  0.00  0.00    +0.000 OA
ATOM     12  H   UNL     1      48.923   3.391  20.562  0.00  0.00    +0.000 HD
ATOM     13  H   UNL     1      47.594   3.005  19.535  0.00  0.00    +0.000 HD
ENDBRANCH   1  10
BRANCH   5  14
ATOM     14  C   UNL     1      45.247   4.497  13.696  0.00  0.00    +0.000 C 
BRANCH  14  15
ATOM     15  C   UNL     1      44.749   4.559  12.277  0.00  0.00    +0.000 A 
ATOM     16  C   UNL     1      43.586   5.242  11.954  0.00  0.00    +0.000 A 
ATOM     17  N   UNL     1      43.070   5.302  10.709  0.00  0.00    +0.000 NA
ATOM     18  C   UNL     1      43.749   4.645   9.735  0.00  0.00    +0.000 A 
ATOM     19  C   UNL     1      44.923   3.911   9.923  0.00  0.00    +0.000 A 
ATOM     20  C   UNL     1      45.410   3.883  11.240  0.00  0.00    +0.000 A 
BRANCH  19  21
ATOM     21  C   UNL     1      45.602   3.207   8.817  0.00  0.00    +0.000 A 
ATOM     22  C   UNL     1      46.120   3.885   7.703  0.00  0.00    +0.000 A 
ATOM     23  C   UNL     1      46.766   3.191   6.680  0.00  0.00    +0.000 A 
ATOM     24  C   UNL     1      46.875   1.816   6.785  0.00  0.00    +0.000 A 
ATOM     25  N   UNL     1      46.392   1.112   7.826  0.00  0.00    +0.000 NA
ATOM     26  C   UNL     1      45.777   1.819   8.807  0.00  0.00    +0.000 A 
ENDBRANCH  19  21
ENDBRANCH  14  15
ENDBRANCH   5  14
TORSDOF 4
ENDMDL
MODEL 6
REMARK VINA RESULT:    -6.973      4.767      8.036
REMARK INTER + INTRA:          -9.065
REMARK INTER:                  -8.517
REMARK INTRA:                  -0.548
REMARK UNBOUND:                -0.461
REMARK  Name = 
REMARK  4 active torsions:
REMARK  status: ('A' for Active; 'I' for Inactive)
REMARK    1  A    between atoms: C_2  and  C_4
REMARK    2  A    between atoms: N_8  and  C_9
REMARK    3  A    between atoms: C_9  and  C_10
REMARK    4  A    between atoms: C_14  and  C_15
REMARK                            x       y       z     vdW  Elec       q    Type
REMARK                         _______ _______ _______ _____ _____    ______ ____
ROOT
ATOM      1  C   UNL     1      51.076   2.516  17.424  0.00  0.00    +0.000 A 
ATOM      2  C   UNL     1      51.336   3.863  17.403  0.00  0.00    +0.000 A 
ATOM      3  N   UNL     1      50.410   4.796  17.093  0.00  0.00    +0.000 NA
ATOM      4  C   UNL     1      49.180   4.364  16.775  0.00  0.00    +0.000 A 
ATOM      5  N   UNL     1      48.184   5.276  16.463  0.00  0.00    +0.000 N 
ATOM      6  N   UNL     1      48.839   3.067  16.736  0.00  0.00    +0.000 NA
ATOM      7  C   UNL     1      49.798   2.165  17.059  0.00  0.00    +0.000 A 
ATOM      8  H   UNL     1      47.473   4.771  15.945  0.00  0.00    +0.000 HD
ENDROOT
BRANCH   1  10
ATOM      9  N   UNL     1      51.631   0.259  18.119  0.00  0.00    +0.000 N 
ATOM     10  C   UNL     1      52.082   1.501  17.764  0.00  0.00    +0.000 C 
ATOM     11  O   UNL     1      53.279   1.752  17.706  0.00  0.00    +0.000 OA
ATOM     12  H   UNL     1      52.340  -0.451  18.271  0.00  0.00    +0.000 HD
ATOM     13  H   UNL     1      50.691  -0.067  17.943  0.00  0.00    +0.000 HD
ENDBRANCH   1  10
BRANCH   5  14
ATOM     14  C   UNL     1      48.680   6.485  15.835  0.00  0.00    +0.000 C 
BRANCH  14  15
ATOM     15  C   UNL     1      48.205   6.566  14.409  0.00  0.00    +0.000 A 
ATOM     16  C   UNL     1      48.762   7.469  13.517  0.00  0.00    +0.000 A 
ATOM     17  N   UNL     1      48.353   7.614  12.240  0.00  0.00    +0.000 NA
ATOM     18  C   UNL     1      47.334   6.817  11.831  0.00  0.00    +0.000 A 
ATOM     19  C   UNL     1      46.676   5.875  12.627  0.00  0.00    +0.000 A 
ATOM     20  C   UNL     1      47.144   5.772  13.947  0.00  0.00    +0.000 A 
BRANCH  19  21
ATOM     21  C   UNL     1      45.562   5.051  12.119  0.00  0.00    +0.000 A 
ATOM     22  C   UNL     1      44.979   5.271  10.862  0.00  0.00    +0.000 A 
ATOM     23  C   UNL     1      43.935   4.465  10.406  0.00  0.00    +0.000 A 
ATOM     24  C   UNL     1      43.481   3.450  11.228  0.00  0.00    +0.000 A 
ATOM     25  N   UNL     1      43.997   3.196  12.446  0.00  0.00    +0.000 NA
ATOM     26  C   UNL     1      45.016   3.992  12.854  0.00  0.00    +0.000 A 
ENDBRANCH  19  21
ENDBRANCH  14  15
ENDBRANCH   5  14
TORSDOF 4
ENDMDL
MODEL 7
REMARK VINA RESULT:    -6.853      3.758      7.620
REMARK INTER + INTRA:          -8.917
REMARK INTER:                  -8.483
REMARK INTRA:                  -0.434
REMARK UNBOUND:                -0.461
REMARK  Name = 
REMARK  4 active torsions:
REMARK  status: ('A' for Active; 'I' for Inactive)
REMARK    1  A    between atoms: C_2  and  C_4
REMARK    2  A    between atoms: N_8  and  C_9
REMARK    3  A    between atoms: C_9  and  C_10
REMARK    4  A    between atoms: C_14  and  C_15
REMARK                            x       y       z     vdW  Elec       q    Type
REMARK                         _______ _______ _______ _____ _____    ______ ____
ROOT
ATOM      1  C   UNL     1      49.210   6.118  16.368  0.00  0.00    +0.000 A 
ATOM      2  C   UNL     1      48.270   5.122  16.454  0.00  0.00    +0.000 A 
ATOM      3  N   UNL     1      47.453   4.778  15.434  0.00  0.00    +0.000 NA
ATOM      4  C   UNL     1      47.571   5.468  14.289  0.00  0.00    +0.000 A 
ATOM      5  N   UNL     1      46.771   5.150  13.203  0.00  0.00    +0.000 N 
ATOM      6  N   UNL     1      48.438   6.479  14.120  0.00  0.00    +0.000 NA
ATOM      7  C   UNL     1      49.241   6.786  15.168  0.00  0.00    +0.000 A 
ATOM      8  H   UNL     1      46.766   5.960  12.592  0.00  0.00    +0.000 HD
ENDROOT
BRANCH   1  10
ATOM      9  N   UNL     1      49.764   7.592  18.214  0.00  0.00    +0.000 N 
ATOM     10  C   UNL     1      50.100   6.490  17.476  0.00  0.00    +0.000 C 
ATOM     11  O   UNL     1      51.091   5.822  17.743  0.00  0.00    +0.000 OA
ATOM     12  H   UNL     1      50.343   7.785  19.024  0.00  0.00    +0.000 HD
ATOM     13  H   UNL     1      48.848   8.018  18.198  0.00  0.00    +0.000 HD
ENDBRANCH   1  10
BRANCH   5  14
ATOM     14  C   UNL     1      45.468   4.635  13.574  0.00  0.00    +0.000 C 
BRANCH  14  15
ATOM     15  C   UNL     1      44.854   3.888  12.419  0.00  0.00    +0.000 A 
ATOM     16  C   UNL     1      43.648   3.217  12.559  0.00  0.00    +0.000 A 
ATOM     17  N   UNL     1      43.068   2.501  11.574  0.00  0.00    +0.000 NA
ATOM     18  C   UNL     1      43.726   2.451  10.388  0.00  0.00    +0.000 A 
ATOM     19  C   UNL     1      44.950   3.068  10.115  0.00  0.00    +0.000 A 
ATOM     20  C   UNL     1      45.505   3.796  11.180  0.00  0.00    +0.000 A 
BRANCH  19  21
ATOM     21  C   UNL     1      45.616   2.958   8.803  0.00  0.00    +0.000 A 
ATOM     22  C   UNL     1      46.114   1.740   8.315  0.00  0.00    +0.000 A 
ATOM     23  C   UNL     1      46.729   1.668   7.064  0.00  0.00    +0.000 A 
ATOM     24  C   UNL     1      46.845   2.829   6.321  0.00  0.00    +0.000 A 
ATOM     25  N   UNL     1      46.392   4.026   6.740  0.00  0.00    +0.000 NA
ATOM     26  C   UNL     1      45.792   4.059   7.957  0.00  0.00    +0.000 A 
ENDBRANCH  19  21
ENDBRANCH  14  15
ENDBRANCH   5  14
TORSDOF 4
ENDMDL
MODEL 8
REMARK VINA RESULT:    -6.624      5.256      7.125
REMARK INTER + INTRA:          -8.634
REMARK INTER:                  -8.209
REMARK INTRA:                  -0.425
REMARK UNBOUND:                -0.461
REMARK  Name = 
REMARK  4 active torsions:
REMARK  status: ('A' for Active; 'I' for Inactive)
REMARK    1  A    between atoms: C_2  and  C_4
REMARK    2  A    between atoms: N_8  and  C_9
REMARK    3  A    between atoms: C_9  and  C_10
REMARK    4  A    between atoms: C_14  and  C_15
REMARK                            x       y       z     vdW  Elec       q    Type
REMARK                         _______ _______ _______ _____ _____    ______ ____
ROOT
ATOM      1  C   UNL     1      45.507   4.910  11.144  0.00  0.00    +0.000 A 
ATOM      2  C   UNL     1      45.245   3.917  12.054  0.00  0.00    +0.000 A 
ATOM      3  N   UNL     1      45.650   3.961  13.342  0.00  0.00    +0.000 NA
ATOM      4  C   UNL     1      46.358   5.032  13.731  0.00  0.00    +0.000 A 
ATOM      5  N   UNL     1      46.787   5.140  15.045  0.00  0.00    +0.000 N 
ATOM      6  N   UNL     1      46.691   6.038  12.907  0.00  0.00    +0.000 NA
ATOM      7  C   UNL     1      46.260   5.955  11.625  0.00  0.00    +0.000 A 
ATOM      8  H   UNL     1      47.553   5.805  15.052  0.00  0.00    +0.000 HD
ENDROOT
BRANCH   1  10
ATOM      9  N   UNL     1      43.785   4.445   9.500  0.00  0.00    +0.000 N 
ATOM     10  C   UNL     1      45.065   4.864   9.744  0.00  0.00    +0.000 C 
ATOM     11  O   UNL     1      45.805   5.214   8.835  0.00  0.00    +0.000 OA
ATOM     12  H   UNL     1      43.470   4.498   8.537  0.00  0.00    +0.000 HD
ATOM     13  H   UNL     1      43.069   4.390  10.210  0.00  0.00    +0.000 HD
ENDBRANCH   1  10
BRANCH   5  14
ATOM     14  C   UNL     1      47.057   3.862  15.673  0.00  0.00    +0.000 C 
BRANCH  14  15
ATOM     15  C   UNL     1      48.071   4.025  16.775  0.00  0.00    +0.000 A 
ATOM     16  C   UNL     1      47.870   4.932  17.805  0.00  0.00    +0.000 A 
ATOM     17  N   UNL     1      48.758   5.150  18.797  0.00  0.00    +0.000 NA
ATOM     18  C   UNL     1      49.906   4.427  18.759  0.00  0.00    +0.000 A 
ATOM     19  C   UNL     1      50.240   3.492  17.775  0.00  0.00    +0.000 A 
ATOM     20  C   UNL     1      49.278   3.311  16.768  0.00  0.00    +0.000 A 
BRANCH  19  21
ATOM     21  C   UNL     1      51.517   2.752  17.789  0.00  0.00    +0.000 A 
ATOM     22  C   UNL     1      51.596   1.388  17.468  0.00  0.00    +0.000 A 
ATOM     23  C   UNL     1      52.822   0.721  17.479  0.00  0.00    +0.000 A 
ATOM     24  C   UNL     1      53.955   1.434  17.825  0.00  0.00    +0.000 A 
ATOM     25  N   UNL     1      53.939   2.741  18.148  0.00  0.00    +0.000 NA
ATOM     26  C   UNL     1      52.733   3.361  18.119  0.00  0.00    +0.000 A 
ENDBRANCH  19  21
ENDBRANCH  14  15
ENDBRANCH   5  14
TORSDOF 4
ENDMDL
MODEL 9
REMARK VINA RESULT:    -6.292      4.663      8.524
REMARK INTER + INTRA:          -8.224
REMARK INTER:                  -7.588
REMARK INTRA:                  -0.636
REMARK UNBOUND:                -0.461
REMARK  Name = 
REMARK  4 active torsions:
REMARK  status: ('A' for Active; 'I' for Inactive)
REMARK    1  A    between atoms: C_2  and  C_4
REMARK    2  A    between atoms: N_8  and  C_9
REMARK    3  A    between atoms: C_9  and  C_10
REMARK    4  A    between atoms: C_14  and  C_15
REMARK                            x       y       z     vdW  Elec       q    Type
REMARK                         _______ _______ _______ _____ _____    ______ ____
ROOT
ATOM      1  C   UNL     1      48.871   5.351  18.506  0.00  0.00    +0.000 A 
ATOM      2  C   UNL     1      49.401   4.942  17.308  0.00  0.00    +0.000 A 
ATOM      3  N   UNL     1      49.597   5.769  16.258  0.00  0.00    +0.000 NA
ATOM      4  C   UNL     1      49.234   7.052  16.407  0.00  0.00    +0.000 A 
ATOM      5  N   UNL     1      49.425   7.952  15.370  0.00  0.00    +0.000 N 
ATOM      6  N   UNL     1      48.679   7.539  17.527  0.00  0.00    +0.000 NA
ATOM      7  C   UNL     1      48.505   6.675  18.557  0.00  0.00    +0.000 A 
ATOM      8  H   UNL     1      48.806   8.736  15.540  0.00  0.00    +0.000 HD
ENDROOT
BRANCH   1  10
ATOM      9  N   UNL     1      48.354   3.147  19.378  0.00  0.00    +0.000 N 
ATOM     10  C   UNL     1      48.661   4.453  19.649  0.00  0.00    +0.000 C 
ATOM     11  O   UNL     1      48.784   4.853  20.799  0.00  0.00    +0.000 OA
ATOM     12  H   UNL     1      48.293   2.524  20.176  0.00  0.00    +0.000 HD
ATOM     13  H   UNL     1      48.487   2.716  18.474  0.00  0.00    +0.000 HD
ENDBRANCH   1  10
BRANCH   5  14
ATOM     14  C   UNL     1      49.328   7.348  14.054  0.00  0.00    +0.000 C 
BRANCH  14  15
ATOM     15  C   UNL     1      47.930   7.495  13.515  0.00  0.00    +0.000 A 
ATOM     16  C   UNL     1      47.353   8.745  13.349  0.00  0.00    +0.000 A 
ATOM     17  N   UNL     1      46.094   8.939  12.906  0.00  0.00    +0.000 NA
ATOM     18  C   UNL     1      45.371   7.827  12.616  0.00  0.00    +0.000 A 
ATOM     19  C   UNL     1      45.824   6.512  12.749  0.00  0.00    +0.000 A 
ATOM     20  C   UNL     1      47.141   6.374  13.216  0.00  0.00    +0.000 A 
BRANCH  19  21
ATOM     21  C   UNL     1      44.976   5.347  12.428  0.00  0.00    +0.000 A 
ATOM     22  C   UNL     1      43.772   5.469  11.717  0.00  0.00    +0.000 A 
ATOM     23  C   UNL     1      42.999   4.347  11.419  0.00  0.00    +0.000 A 
ATOM     24  C   UNL     1      43.443   3.110  11.852  0.00  0.00    +0.000 A 
ATOM     25  N   UNL     1      44.585   2.933  12.543  0.00  0.00    +0.000 NA
ATOM     26  C   UNL     1      45.316   4.044  12.808  0.00  0.00    +0.000 A 
ENDBRANCH  19  21
ENDBRANCH  14  15
ENDBRANCH   5  14
TORSDOF 4
ENDMDL
