MODEL 1
REMARK VINA RESULT:    -7.855      0.000      0.000
REMARK INTER + INTRA:         -11.960
REMARK INTER:                 -11.299
REMARK INTRA:                  -0.661
REMARK UNBOUND:                -0.661
REMARK  Name = 
REMARK  11 active torsions:
REMARK  status: ('A' for Active; 'I' for Inactive)
REMARK    1  A    between atoms: C_1  and  O_2
REMARK    2  A    between atoms: O_2  and  C_3
REMARK    3  A    between atoms: C_5  and  C_6
REMARK    4  A    between atoms: C_6  and  C_7
REMARK    5  A    between atoms: C_6  and  N_8
REMARK    6  A    between atoms: C_6  and  C_9
REMARK    7  A    between atoms: C_9  and  O_10
REMARK    8  A    between atoms: N_15  and  C_16
REMARK    9  A    between atoms: C_16  and  C_17
REMARK   10  A    between atoms: C_20  and  C_21
REMARK   11  A    between atoms: C_21  and  N_22
REMARK                            x       y       z     vdW  Elec       q    Type
REMARK                         _______ _______ _______ _____ _____    ______ ____
ROOT
ATOM      1  C   UNL     1      45.618   4.130  13.234  0.00  0.00    +0.000 A 
ATOM      2  C   UNL     1      46.349   3.896  14.417  0.00  0.00    +0.000 A 
ATOM      3  C   UNL     1      47.376   4.729  14.879  0.00  0.00    +0.000 A 
ATOM      4  C   UNL     1      47.762   5.790  14.052  0.00  0.00    +0.000 A 
ATOM      5  C   UNL     1      47.109   6.019  12.814  0.00  0.00    +0.000 A 
ATOM      6  C   UNL     1      47.308   6.993  11.801  0.00  0.00    +0.000 A 
ATOM      7  C   UNL     1      46.383   6.763  10.814  0.00  0.00    +0.000 A 
ATOM      8  N   UNL     1      45.600   5.691  11.190  0.00  0.00    +0.000 N 
ATOM      9  C   UNL     1      46.040   5.196  12.414  0.00  0.00    +0.000 A 
ENDROOT
BRANCH   1  11
ATOM     10  C   UNL     1      43.270   3.952  13.211  0.00  0.00    +0.000 C 
ATOM     11  O   UNL     1      44.533   3.355  12.892  0.00  0.00    +0.000 OA
ENDBRANCH   1  11
BRANCH   3  12
ATOM     12  C   UNL     1      47.960   4.464  16.280  0.00  0.00    +0.000 C 
ATOM     13  C   UNL     1      48.906   5.563  16.803  0.00  0.00    +0.000 C 
BRANCH  12  14
ATOM     14  N   UNL     1      48.730   3.202  16.243  0.00  0.00    +0.000 NA
ATOM     15  H   UNL     1      49.116   3.065  15.311  0.00  0.00    +0.000 HD
ATOM     16  H   UNL     1      48.089   2.424  16.403  0.00  0.00    +0.000 HD
ENDBRANCH  12  14
BRANCH  12  17
ATOM     17  C   UNL     1      46.785   4.307  17.307  0.00  0.00    +0.000 C 
BRANCH  17  18
ATOM     18  O   UNL     1      46.582   2.949  17.706  0.00  0.00    +0.000 OA
ATOM     19  H   UNL     1      46.036   2.527  17.018  0.00  0.00    +0.000 HD
ENDBRANCH  17  18
ENDBRANCH  12  17
ENDBRANCH   3  12
BRANCH   8  20
ATOM     20  C   UNL     1      44.551   5.154  10.316  0.00  0.00    +0.000 C 
BRANCH  20  21
ATOM     21  C   UNL     1      45.099   4.138   9.338  0.00  0.00    +0.000 A 
ATOM     22  C   UNL     1      44.918   2.760   9.530  0.00  0.00    +0.000 A 
ATOM     23  C   UNL     1      45.602   1.833   8.731  0.00  0.00    +0.000 A 
ATOM     24  C   UNL     1      46.476   2.267   7.724  0.00  0.00    +0.000 A 
ATOM     25  C   UNL     1      46.554   3.639   7.458  0.00  0.00    +0.000 A 
ATOM     26  C   UNL     1      45.869   4.561   8.253  0.00  0.00    +0.000 A 
BRANCH  24  27
ATOM     27  C   UNL     1      47.449   1.292   7.103  0.00  0.00    +0.000 C 
BRANCH  27  28
ATOM     28  N   UNL     1      48.353   1.892   6.127  0.00  0.00    +0.000 NA
ATOM     29  H   UNL     1      49.257   1.427   6.190  0.00  0.00    +0.000 HD
ATOM     30  H   UNL     1      48.508   2.865   6.380  0.00  0.00    +0.000 HD
ENDBRANCH  27  28
ENDBRANCH  24  27
ENDBRANCH  20  21
ENDBRANCH   8  20
TORSDOF 9
ENDMDL
MODEL 2
REMARK VINA RESULT:    -7.437      2.681      3.574
REMARK INTER + INTRA:         -11.360
REMARK INTER:                 -10.538
REMARK INTRA:                  -0.822
REMARK UNBOUND:                -0.661
REMARK  Name = 
REMARK  11 active torsions:
REMARK  status: ('A' for Active; 'I' for Inactive)
REMARK    1  A    between atoms: C_1  and  O_2
REMARK    2  A    between atoms: O_2  and  C_3
REMARK    3  A    between atoms: C_5  and  C_6
REMARK    4  A    between atoms: C_6  and  C_7
REMARK    5  A    between atoms: C_6  and  N_8
REMARK    6  A    between atoms: C_6  and  C_9
REMARK    7  A    between atoms: C_9  and  O_10
REMARK    8  A    between atoms: N_15  and  C_16
REMARK    9  A    between atoms: C_16  and  C_17
REMARK   10  A    between atoms: C_20  and  C_21
REMARK   11  A    between atoms: C_21  and  N_22
REMARK                            x       y       z     vdW  Elec       q    Type
REMARK                         _______ _______ _______ _____ _____    ______ ____
ROOT
ATOM      1  C   UNL     1      45.815   6.879  12.068  0.00  0.00    +0.000 A 
ATOM      2  C   UNL     1      46.531   7.824  12.832  0.00  0.00    +0.000 A 
ATOM      3  C   UNL     1      47.461   7.484  13.824  0.00  0.00    +0.000 A 
ATOM      4  C   UNL     1      47.594   6.128  14.141  0.00  0.00    +0.000 A 
ATOM      5  C   UNL     1      46.834   5.145  13.456  0.00  0.00    +0.000 A 
ATOM      6  C   UNL     1      46.768   3.734  13.588  0.00  0.00    +0.000 A 
ATOM      7  C   UNL     1      45.872   3.270  12.658  0.00  0.00    +0.000 A 
ATOM      8  N   UNL     1      45.394   4.345  11.937  0.00  0.00    +0.000 N 
ATOM      9  C   UNL     1      45.957   5.522  12.422  0.00  0.00    +0.000 A 
ENDROOT
BRANCH   1  11
ATOM     10  C   UNL     1      44.409   8.550  11.188  0.00  0.00    +0.000 C 
ATOM     11  O   UNL     1      45.012   7.261  11.018  0.00  0.00    +0.000 OA
ENDBRANCH   1  11
BRANCH   3  12
ATOM     12  C   UNL     1      48.312   8.609  14.445  0.00  0.00    +0.000 C 
ATOM     13  C   UNL     1      49.660   8.146  15.034  0.00  0.00    +0.000 C 
BRANCH  12  14
ATOM     14  N   UNL     1      47.545   9.235  15.543  0.00  0.00    +0.000 NA
ATOM     15  H   UNL     1      47.778  10.225  15.601  0.00  0.00    +0.000 HD
ATOM     16  H   UNL     1      47.843   8.820  16.427  0.00  0.00    +0.000 HD
ENDBRANCH  12  14
BRANCH  12  17
ATOM     17  C   UNL     1      48.607   9.695  13.352  0.00  0.00    +0.000 C 
BRANCH  17  18
ATOM     18  O   UNL     1      48.038  10.966  13.674  0.00  0.00    +0.000 OA
ATOM     19  H   UNL     1      47.072  10.842  13.725  0.00  0.00    +0.000 HD
ENDBRANCH  17  18
ENDBRANCH  12  17
ENDBRANCH   3  12
BRANCH   8  20
ATOM     20  C   UNL     1      44.368   4.187  10.901  0.00  0.00    +0.000 C 
BRANCH  20  21
ATOM     21  C   UNL     1      44.934   3.586   9.633  0.00  0.00    +0.000 A 
ATOM     22  C   UNL     1      44.937   2.200   9.414  0.00  0.00    +0.000 A 
ATOM     23  C   UNL     1      45.645   1.651   8.336  0.00  0.00    +0.000 A 
ATOM     24  C   UNL     1      46.359   2.477   7.457  0.00  0.00    +0.000 A 
ATOM     25  C   UNL     1      46.248   3.864   7.610  0.00  0.00    +0.000 A 
ATOM     26  C   UNL     1      45.539   4.409   8.683  0.00  0.00    +0.000 A 
BRANCH  24  27
ATOM     27  C   UNL     1      47.376   1.872   6.517  0.00  0.00    +0.000 C 
BRANCH  27  28
ATOM     28  N   UNL     1      48.626   2.618   6.430  0.00  0.00    +0.000 NA
ATOM     29  H   UNL     1      49.056   2.433   5.526  0.00  0.00    +0.000 HD
ATOM     30  H   UNL     1      49.269   2.262   7.135  0.00  0.00    +0.000 HD
ENDBRANCH  27  28
ENDBRANCH  24  27
ENDBRANCH  20  21
ENDBRANCH   8  20
TORSDOF 9
ENDMDL
MODEL 3
REMARK VINA RESULT:    -6.881      2.609      3.401
REMARK INTER + INTRA:         -10.559
REMARK INTER:                  -9.969
REMARK INTRA:                  -0.590
REMARK UNBOUND:                -0.661
REMARK  Name = 
REMARK  11 active torsions:
REMARK  status: ('A' for Active; 'I' for Inactive)
REMARK    1  A    between atoms: C_1  and  O_2
REMARK    2  A    between atoms: O_2  and  C_3
REMARK    3  A    between atoms: C_5  and  C_6
REMARK    4  A    between atoms: C_6  and  C_7
REMARK    5  A    between atoms: C_6  and  N_8
REMARK    6  A    between atoms: C_6  and  C_9
REMARK    7  A    between atoms: C_9  and  O_10
REMARK    8  A    between atoms: N_15  and  C_16
REMARK    9  A    between atoms: C_16  and  C_17
REMARK   10  A    between atoms: C_20  and  C_21
REMARK   11  A    between atoms: C_21  and  N_22
REMARK                            x       y       z     vdW  Elec       q    Type
REMARK                         _______ _______ _______ _____ _____    ______ ____
ROOT
ATOM      1  C   UNL     1      46.490   5.404  12.810  0.00  0.00    +0.000 A 
ATOM      2  C   UNL     1      47.407   6.314  13.376  0.00  0.00    +0.000 A 
ATOM      3  C   UNL     1      47.197   7.698  13.439  0.00  0.00    +0.000 A 
ATOM      4  C   UNL     1      46.060   8.204  12.802  0.00  0.00    +0.000 A 
ATOM      5  C   UNL     1      45.148   7.335  12.149  0.00  0.00    +0.000 A 
ATOM      6  C   UNL     1      43.950   7.583  11.429  0.00  0.00    +0.000 A 
ATOM      7  C   UNL     1      43.454   6.372  11.016  0.00  0.00    +0.000 A 
ATOM      8  N   UNL     1      44.293   5.377  11.474  0.00  0.00    +0.000 N 
ATOM      9  C   UNL     1      45.362   5.944  12.161  0.00  0.00    +0.000 A 
ENDROOT
BRANCH   1  11
ATOM     10  C   UNL     1      47.087   3.590  14.188  0.00  0.00    +0.000 C 
ATOM     11  O   UNL     1      46.683   4.043  12.890  0.00  0.00    +0.000 OA
ENDBRANCH   1  11
BRANCH   3  12
ATOM     12  C   UNL     1      48.188   8.552  14.254  0.00  0.00    +0.000 C 
ATOM     13  C   UNL     1      49.427   7.790  14.765  0.00  0.00    +0.000 C 
BRANCH  12  14
ATOM     14  N   UNL     1      47.487   9.094  15.438  0.00  0.00    +0.000 NA
ATOM     15  H   UNL     1      47.007   8.340  15.926  0.00  0.00    +0.000 HD
ATOM     16  H   UNL     1      46.760   9.736  15.120  0.00  0.00    +0.000 HD
ENDBRANCH  12  14
BRANCH  12  17
ATOM     17  C   UNL     1      48.685   9.749  13.370  0.00  0.00    +0.000 C 
BRANCH  17  18
ATOM     18  O   UNL     1      48.102  10.996  13.757  0.00  0.00    +0.000 OA
ATOM     19  H   UNL     1      48.074  11.557  12.960  0.00  0.00    +0.000 HD
ENDBRANCH  17  18
ENDBRANCH  12  17
ENDBRANCH   3  12
BRANCH   8  20
ATOM     20  C   UNL     1      44.069   3.964  11.147  0.00  0.00    +0.000 C 
BRANCH  20  21
ATOM     21  C   UNL     1      44.743   3.574   9.849  0.00  0.00    +0.000 A 
ATOM     22  C   UNL     1      44.923   2.230   9.489  0.00  0.00    +0.000 A 
ATOM     23  C   UNL     1      45.725   1.888   8.391  0.00  0.00    +0.000 A 
ATOM     24  C   UNL     1      46.358   2.883   7.632  0.00  0.00    +0.000 A 
ATOM     25  C   UNL     1      46.072   4.222   7.923  0.00  0.00    +0.000 A 
ATOM     26  C   UNL     1      45.270   4.561   9.015  0.00  0.00    +0.000 A 
BRANCH  24  27
ATOM     27  C   UNL     1      47.469   2.508   6.680  0.00  0.00    +0.000 C 
BRANCH  27  28
ATOM     28  N   UNL     1      48.047   1.192   6.927  0.00  0.00    +0.000 NA
ATOM     29  H   UNL     1      47.821   0.583   6.142  0.00  0.00    +0.000 HD
ATOM     30  H   UNL     1      47.600   0.787   7.746  0.00  0.00    +0.000 HD
ENDBRANCH  27  28
ENDBRANCH  24  27
ENDBRANCH  20  21
ENDBRANCH   8  20
TORSDOF 9
ENDMDL
MODEL 4
REMARK VINA RESULT:    -6.509      1.986      2.669
REMARK INTER + INTRA:         -10.024
REMARK INTER:                  -9.393
REMARK INTRA:                  -0.630
REMARK UNBOUND:                -0.661
REMARK  Name = 
REMARK  11 active torsions:
REMARK  status: ('A' for Active; 'I' for Inactive)
REMARK    1  A    between atoms: C_1  and  O_2
REMARK    2  A    between atoms: O_2  and  C_3
REMARK    3  A    between atoms: C_5  and  C_6
REMARK    4  A    between atoms: C_6  and  C_7
REMARK    5  A    between atoms: C_6  and  N_8
REMARK    6  A    between atoms: C_6  and  C_9
REMARK    7  A    between atoms: C_9  and  O_10
REMARK    8  A    between atoms: N_15  and  C_16
REMARK    9  A    between atoms: C_16  and  C_17
REMARK   10  A    between atoms: C_20  and  C_21
REMARK   11  A    between atoms: C_21  and  N_22
REMARK                            x       y       z     vdW  Elec       q    Type
REMARK                         _______ _______ _______ _____ _____    ______ ____
ROOT
ATOM      1  C   UNL     1      46.557   5.321  12.744  0.00  0.00    +0.000 A 
ATOM      2  C   UNL     1      47.648   5.867  13.452  0.00  0.00    +0.000 A 
ATOM      3  C   UNL     1      47.818   7.237  13.692  0.00  0.00    +0.000 A 
ATOM      4  C   UNL     1      46.903   8.111  13.095  0.00  0.00    +0.000 A 
ATOM      5  C   UNL     1      45.834   7.614  12.306  0.00  0.00    +0.000 A 
ATOM      6  C   UNL     1      44.796   8.268  11.592  0.00  0.00    +0.000 A 
ATOM      7  C   UNL     1      44.018   7.301  11.009  0.00  0.00    +0.000 A 
ATOM      8  N   UNL     1      44.524   6.065  11.355  0.00  0.00    +0.000 N 
ATOM      9  C   UNL     1      45.661   6.227  12.140  0.00  0.00    +0.000 A 
ENDROOT
BRANCH   1  11
ATOM     10  C   UNL     1      46.828   3.230  13.791  0.00  0.00    +0.000 C 
ATOM     11  O   UNL     1      46.368   3.961  12.649  0.00  0.00    +0.000 OA
ENDBRANCH   1  11
BRANCH   3  12
ATOM     12  C   UNL     1      48.949   7.679  14.640  0.00  0.00    +0.000 C 
ATOM     13  C   UNL     1      48.997   9.194  14.924  0.00  0.00    +0.000 C 
BRANCH  12  14
ATOM     14  N   UNL     1      50.247   7.303  14.041  0.00  0.00    +0.000 NA
ATOM     15  H   UNL     1      50.691   6.585  14.611  0.00  0.00    +0.000 HD
ATOM     16  H   UNL     1      50.867   8.114  14.071  0.00  0.00    +0.000 HD
ENDBRANCH  12  14
BRANCH  12  17
ATOM     17  C   UNL     1      48.792   6.934  16.012  0.00  0.00    +0.000 C 
BRANCH  17  18
ATOM     18  O   UNL     1      49.734   5.870  16.170  0.00  0.00    +0.000 OA
ATOM     19  H   UNL     1      49.450   5.349  16.943  0.00  0.00    +0.000 HD
ENDBRANCH  17  18
ENDBRANCH  12  17
ENDBRANCH   3  12
BRANCH   8  20
ATOM     20  C   UNL     1      43.947   4.819  10.836  0.00  0.00    +0.000 C 
BRANCH  20  21
ATOM     21  C   UNL     1      44.863   4.147   9.837  0.00  0.00    +0.000 A 
ATOM     22  C   UNL     1      45.652   4.891   8.947  0.00  0.00    +0.000 A 
ATOM     23  C   UNL     1      46.334   4.257   7.899  0.00  0.00    +0.000 A 
ATOM     24  C   UNL     1      46.242   2.868   7.725  0.00  0.00    +0.000 A 
ATOM     25  C   UNL     1      45.556   2.122   8.689  0.00  0.00    +0.000 A 
ATOM     26  C   UNL     1      44.880   2.755   9.735  0.00  0.00    +0.000 A 
BRANCH  24  27
ATOM     27  C   UNL     1      46.692   2.243   6.425  0.00  0.00    +0.000 C 
BRANCH  27  28
ATOM     28  N   UNL     1      47.899   1.432   6.539  0.00  0.00    +0.000 NA
ATOM     29  H   UNL     1      47.944   0.799   5.743  0.00  0.00    +0.000 HD
ATOM     30  H   UNL     1      47.824   0.850   7.370  0.00  0.00    +0.000 HD
ENDBRANCH  27  28
ENDBRANCH  24  27
ENDBRANCH  20  21
ENDBRANCH   8  20
TORSDOF 9
ENDMDL
MODEL 5
REMARK VINA RESULT:    -6.009      2.724      7.966
REMARK INTER + INTRA:          -9.305
REMARK INTER:                  -8.576
REMARK INTRA:                  -0.729
REMARK UNBOUND:                -0.661
REMARK  Name = 
REMARK  11 active torsions:
REMARK  status: ('A' for Active; 'I' for Inactive)
REMARK    1  A    between atoms: C_1  and  O_2
REMARK    2  A    between atoms: O_2  and  C_3
REMARK    3  A    between atoms: C_5  and  C_6
REMARK    4  A    between atoms: C_6  and  C_7
REMARK    5  A    between atoms: C_6  and  N_8
REMARK    6  A    between atoms: C_6  and  C_9
REMARK    7  A    between atoms: C_9  and  O_10
REMARK    8  A    between atoms: N_15  and  C_16
REMARK    9  A    between atoms: C_16  and  C_17
REMARK   10  A    between atoms: C_20  and  C_21
REMARK   11  A    between atoms: C_21  and  N_22
REMARK                            x       y       z     vdW  Elec       q    Type
REMARK                         _______ _______ _______ _____ _____    ______ ____
ROOT
ATOM      1  C   UNL     1      47.114   5.036  13.627  0.00  0.00    +0.000 A 
ATOM      2  C   UNL     1      46.011   4.460  12.964  0.00  0.00    +0.000 A 
ATOM      3  C   UNL     1      45.403   5.015  11.830  0.00  0.00    +0.000 A 
ATOM      4  C   UNL     1      45.857   6.269  11.407  0.00  0.00    +0.000 A 
ATOM      5  C   UNL     1      46.913   6.925  12.091  0.00  0.00    +0.000 A 
ATOM      6  C   UNL     1      47.542   8.181  11.884  0.00  0.00    +0.000 A 
ATOM      7  C   UNL     1      48.522   8.317  12.834  0.00  0.00    +0.000 A 
ATOM      8  N   UNL     1      48.538   7.178  13.612  0.00  0.00    +0.000 N 
ATOM      9  C   UNL     1      47.539   6.307  13.189  0.00  0.00    +0.000 A 
ENDROOT
BRANCH   1  11
ATOM     10  C   UNL     1      46.906   4.077  15.767  0.00  0.00    +0.000 C 
ATOM     11  O   UNL     1      47.756   4.386  14.656  0.00  0.00    +0.000 OA
ENDBRANCH   1  11
BRANCH   3  12
ATOM     12  C   UNL     1      44.333   4.186  11.094  0.00  0.00    +0.000 C 
ATOM     13  C   UNL     1      44.892   3.110  10.142  0.00  0.00    +0.000 C 
BRANCH  12  14
ATOM     14  N   UNL     1      43.498   5.098  10.284  0.00  0.00    +0.000 NA
ATOM     15  H   UNL     1      42.889   5.638  10.896  0.00  0.00    +0.000 HD
ATOM     16  H   UNL     1      42.883   4.538   9.692  0.00  0.00    +0.000 HD
ENDBRANCH  12  14
BRANCH  12  17
ATOM     17  C   UNL     1      43.419   3.470  12.149  0.00  0.00    +0.000 C 
BRANCH  17  18
ATOM     18  O   UNL     1      42.967   2.188  11.705  0.00  0.00    +0.000 OA
ATOM     19  H   UNL     1      43.697   1.560  11.856  0.00  0.00    +0.000 HD
ENDBRANCH  17  18
ENDBRANCH  12  17
ENDBRANCH   3  12
BRANCH   8  20
ATOM     20  C   UNL     1      49.440   7.038  14.761  0.00  0.00    +0.000 C 
BRANCH  20  21
ATOM     21  C   UNL     1      48.808   7.547  16.038  0.00  0.00    +0.000 A 
ATOM     22  C   UNL     1      48.356   8.869  16.159  0.00  0.00    +0.000 A 
ATOM     23  C   UNL     1      47.963   9.377  17.405  0.00  0.00    +0.000 A 
ATOM     24  C   UNL     1      48.012   8.570  18.551  0.00  0.00    +0.000 A 
ATOM     25  C   UNL     1      48.345   7.219  18.400  0.00  0.00    +0.000 A 
ATOM     26  C   UNL     1      48.732   6.714  17.156  0.00  0.00    +0.000 A 
BRANCH  24  27
ATOM     27  C   UNL     1      47.915   9.204  19.920  0.00  0.00    +0.000 C 
BRANCH  27  28
ATOM     28  N   UNL     1      48.565   8.440  20.978  0.00  0.00    +0.000 NA
ATOM     29  H   UNL     1      49.089   7.675  20.555  0.00  0.00    +0.000 HD
ATOM     30  H   UNL     1      47.849   8.013  21.562  0.00  0.00    +0.000 HD
ENDBRANCH  27  28
ENDBRANCH  24  27
ENDBRANCH  20  21
ENDBRANCH   8  20
TORSDOF 9
ENDMDL
MODEL 6
REMARK VINA RESULT:    -5.824      3.400      6.670
REMARK INTER + INTRA:          -9.039
REMARK INTER:                  -8.100
REMARK INTRA:                  -0.939
REMARK UNBOUND:                -0.661
REMARK  Name = 
REMARK  11 active torsions:
REMARK  status: ('A' for Active; 'I' for Inactive)
REMARK    1  A    between atoms: C_1  and  O_2
REMARK    2  A    between atoms: O_2  and  C_3
REMARK    3  A    between atoms: C_5  and  C_6
REMARK    4  A    between atoms: C_6  and  C_7
REMARK    5  A    between atoms: C_6  and  N_8
REMARK    6  A    between atoms: C_6  and  C_9
REMARK    7  A    between atoms: C_9  and  O_10
REMARK    8  A    between atoms: N_15  and  C_16
REMARK    9  A    between atoms: C_16  and  C_17
REMARK   10  A    between atoms: C_20  and  C_21
REMARK   11  A    between atoms: C_21  and  N_22
REMARK                            x       y       z     vdW  Elec       q    Type
REMARK                         _______ _______ _______ _____ _____    ______ ____
ROOT
ATOM      1  C   UNL     1      46.183   7.211  12.051  0.00  0.00    +0.000 A 
ATOM      2  C   UNL     1      45.384   6.343  11.278  0.00  0.00    +0.000 A 
ATOM      3  C   UNL     1      45.147   5.001  11.605  0.00  0.00    +0.000 A 
ATOM      4  C   UNL     1      45.837   4.476  12.703  0.00  0.00    +0.000 A 
ATOM      5  C   UNL     1      46.714   5.290  13.464  0.00  0.00    +0.000 A 
ATOM      6  C   UNL     1      47.530   5.011  14.592  0.00  0.00    +0.000 A 
ATOM      7  C   UNL     1      48.170   6.173  14.941  0.00  0.00    +0.000 A 
ATOM      8  N   UNL     1      47.764   7.172  14.080  0.00  0.00    +0.000 N 
ATOM      9  C   UNL     1      46.878   6.650  13.141  0.00  0.00    +0.000 A 
ENDROOT
BRANCH   1  11
ATOM     10  C   UNL     1      45.154   9.324  12.201  0.00  0.00    +0.000 C 
ATOM     11  O   UNL     1      46.278   8.553  11.760  0.00  0.00    +0.000 OA
ENDBRANCH   1  11
BRANCH   3  12
ATOM     12  C   UNL     1      44.104   4.221  10.782  0.00  0.00    +0.000 C 
ATOM     13  C   UNL     1      44.685   3.093   9.906  0.00  0.00    +0.000 C 
BRANCH  12  14
ATOM     14  N   UNL     1      43.409   5.163   9.879  0.00  0.00    +0.000 NA
ATOM     15  H   UNL     1      43.952   6.020   9.796  0.00  0.00    +0.000 HD
ATOM     16  H   UNL     1      42.520   5.429  10.307  0.00  0.00    +0.000 HD
ENDBRANCH  12  14
BRANCH  12  17
ATOM     17  C   UNL     1      43.050   3.585  11.755  0.00  0.00    +0.000 C 
BRANCH  17  18
ATOM     18  O   UNL     1      42.988   2.161  11.642  0.00  0.00    +0.000 OA
ATOM     19  H   UNL     1      43.817   1.809  12.012  0.00  0.00    +0.000 HD
ENDBRANCH  17  18
ENDBRANCH  12  17
ENDBRANCH   3  12
BRANCH   8  20
ATOM     20  C   UNL     1      48.317   8.529  14.152  0.00  0.00    +0.000 C 
BRANCH  20  21
ATOM     21  C   UNL     1      49.621   8.646  13.392  0.00  0.00    +0.000 A 
ATOM     22  C   UNL     1      49.655   8.676  11.990  0.00  0.00    +0.000 A 
ATOM     23  C   UNL     1      50.874   8.579  11.305  0.00  0.00    +0.000 A 
ATOM     24  C   UNL     1      52.080   8.454  12.009  0.00  0.00    +0.000 A 
ATOM     25  C   UNL     1      52.048   8.550  13.405  0.00  0.00    +0.000 A 
ATOM     26  C   UNL     1      50.832   8.650  14.086  0.00  0.00    +0.000 A 
BRANCH  24  27
ATOM     27  C   UNL     1      53.331   8.017  11.283  0.00  0.00    +0.000 C 
BRANCH  27  28
ATOM     28  N   UNL     1      53.266   6.664  10.743  0.00  0.00    +0.000 NA
ATOM     29  H   UNL     1      54.213   6.297  10.665  0.00  0.00    +0.000 HD
ATOM     30  H   UNL     1      52.892   6.706   9.797  0.00  0.00    +0.000 HD
ENDBRANCH  27  28
ENDBRANCH  24  27
ENDBRANCH  20  21
ENDBRANCH   8  20
TORSDOF 9
ENDMDL
MODEL 7
REMARK VINA RESULT:    -5.638      3.775      5.599
REMARK INTER + INTRA:          -8.772
REMARK INTER:                  -7.843
REMARK INTRA:                  -0.929
REMARK UNBOUND:                -0.661
REMARK  Name = 
REMARK  11 active torsions:
REMARK  status: ('A' for Active; 'I' for Inactive)
REMARK    1  A    between atoms: C_1  and  O_2
REMARK    2  A    between atoms: O_2  and  C_3
REMARK    3  A    between atoms: C_5  and  C_6
REMARK    4  A    between atoms: C_6  and  C_7
REMARK    5  A    between atoms: C_6  and  N_8
REMARK    6  A    between atoms: C_6  and  C_9
REMARK    7  A    between atoms: C_9  and  O_10
REMARK    8  A    between atoms: N_15  and  C_16
REMARK    9  A    between atoms: C_16  and  C_17
REMARK   10  A    between atoms: C_20  and  C_21
REMARK   11  A    between atoms: C_21  and  N_22
REMARK                            x       y       z     vdW  Elec       q    Type
REMARK                         _______ _______ _______ _____ _____    ______ ____
ROOT
ATOM      1  C   UNL     1      48.337   6.728  15.100  0.00  0.00    +0.000 A 
ATOM      2  C   UNL     1      48.358   5.750  16.115  0.00  0.00    +0.000 A 
ATOM      3  C   UNL     1      47.738   4.498  16.007  0.00  0.00    +0.000 A 
ATOM      4  C   UNL     1      46.965   4.261  14.866  0.00  0.00    +0.000 A 
ATOM      5  C   UNL     1      46.848   5.246  13.852  0.00  0.00    +0.000 A 
ATOM      6  C   UNL     1      46.132   5.268  12.626  0.00  0.00    +0.000 A 
ATOM      7  C   UNL     1      46.382   6.473  12.019  0.00  0.00    +0.000 A 
ATOM      8  N   UNL     1      47.247   7.193  12.817  0.00  0.00    +0.000 N 
ATOM      9  C   UNL     1      47.537   6.468  13.969  0.00  0.00    +0.000 A 
ENDROOT
BRANCH   1  11
ATOM     10  C   UNL     1      50.487   7.687  15.135  0.00  0.00    +0.000 C 
ATOM     11  O   UNL     1      49.070   7.888  15.202  0.00  0.00    +0.000 OA
ENDBRANCH   1  11
BRANCH   3  12
ATOM     12  C   UNL     1      48.000   3.453  17.110  0.00  0.00    +0.000 C 
ATOM     13  C   UNL     1      48.877   2.263  16.674  0.00  0.00    +0.000 C 
BRANCH  12  14
ATOM     14  N   UNL     1      46.705   2.903  17.562  0.00  0.00    +0.000 NA
ATOM     15  H   UNL     1      46.088   2.780  16.761  0.00  0.00    +0.000 HD
ATOM     16  H   UNL     1      46.253   3.589  18.168  0.00  0.00    +0.000 HD
ENDBRANCH  12  14
BRANCH  12  17
ATOM     17  C   UNL     1      48.703   4.153  18.325  0.00  0.00    +0.000 C 
BRANCH  17  18
ATOM     18  O   UNL     1      48.454   3.483  19.564  0.00  0.00    +0.000 OA
ATOM     19  H   UNL     1      47.548   3.717  19.838  0.00  0.00    +0.000 HD
ENDBRANCH  17  18
ENDBRANCH  12  17
ENDBRANCH   3  12
BRANCH   8  20
ATOM     20  C   UNL     1      47.663   8.558  12.473  0.00  0.00    +0.000 C 
BRANCH  20  21
ATOM     21  C   UNL     1      49.065   8.593  11.904  0.00  0.00    +0.000 A 
ATOM     22  C   UNL     1      49.664   7.451  11.353  0.00  0.00    +0.000 A 
ATOM     23  C   UNL     1      51.025   7.451  11.020  0.00  0.00    +0.000 A 
ATOM     24  C   UNL     1      51.811   8.594  11.230  0.00  0.00    +0.000 A 
ATOM     25  C   UNL     1      51.178   9.765  11.663  0.00  0.00    +0.000 A 
ATOM     26  C   UNL     1      49.820   9.764  11.990  0.00  0.00    +0.000 A 
BRANCH  24  27
ATOM     27  C   UNL     1      53.317   8.487  11.189  0.00  0.00    +0.000 C 
BRANCH  27  28
ATOM     28  N   UNL     1      53.818   7.116  11.188  0.00  0.00    +0.000 NA
ATOM     29  H   UNL     1      53.360   6.602  10.438  0.00  0.00    +0.000 HD
ATOM     30  H   UNL     1      53.543   6.667  12.058  0.00  0.00    +0.000 HD
ENDBRANCH  27  28
ENDBRANCH  24  27
ENDBRANCH  20  21
ENDBRANCH   8  20
TORSDOF 9
ENDMDL
MODEL 8
REMARK VINA RESULT:    -5.621      3.232      8.496
REMARK INTER + INTRA:          -8.747
REMARK INTER:                  -8.181
REMARK INTRA:                  -0.566
REMARK UNBOUND:                -0.661
REMARK  Name = 
REMARK  11 active torsions:
REMARK  status: ('A' for Active; 'I' for Inactive)
REMARK    1  A    between atoms: C_1  and  O_2
REMARK    2  A    between atoms: O_2  and  C_3
REMARK    3  A    between atoms: C_5  and  C_6
REMARK    4  A    between atoms: C_6  and  C_7
REMARK    5  A    between atoms: C_6  and  N_8
REMARK    6  A    between atoms: C_6  and  C_9
REMARK    7  A    between atoms: C_9  and  O_10
REMARK    8  A    between atoms: N_15  and  C_16
REMARK    9  A    between atoms: C_16  and  C_17
REMARK   10  A    between atoms: C_20  and  C_21
REMARK   11  A    between atoms: C_21  and  N_22
REMARK                            x       y       z     vdW  Elec       q    Type
REMARK                         _______ _______ _______ _____ _____    ______ ____
ROOT
ATOM      1  C   UNL     1      47.402   6.746  12.665  0.00  0.00    +0.000 A 
ATOM      2  C   UNL     1      46.559   6.240  11.653  0.00  0.00    +0.000 A 
ATOM      3  C   UNL     1      45.738   5.116  11.810  0.00  0.00    +0.000 A 
ATOM      4  C   UNL     1      45.854   4.398  13.005  0.00  0.00    +0.000 A 
ATOM      5  C   UNL     1      46.748   4.822  14.022  0.00  0.00    +0.000 A 
ATOM      6  C   UNL     1      47.063   4.281  15.296  0.00  0.00    +0.000 A 
ATOM      7  C   UNL     1      47.993   5.104  15.879  0.00  0.00    +0.000 A 
ATOM      8  N   UNL     1      48.251   6.152  15.019  0.00  0.00    +0.000 N 
ATOM      9  C   UNL     1      47.510   5.993  13.851  0.00  0.00    +0.000 A 
ENDROOT
BRANCH   1  11
ATOM     10  C   UNL     1      49.233   7.823  11.650  0.00  0.00    +0.000 C 
ATOM     11  O   UNL     1      48.089   7.928  12.506  0.00  0.00    +0.000 OA
ENDBRANCH   1  11
BRANCH   3  12
ATOM     12  C   UNL     1      44.727   4.787  10.694  0.00  0.00    +0.000 C 
ATOM     13  C   UNL     1      45.322   4.759   9.272  0.00  0.00    +0.000 C 
BRANCH  12  14
ATOM     14  N   UNL     1      43.659   5.809  10.703  0.00  0.00    +0.000 NA
ATOM     15  H   UNL     1      42.985   5.606   9.968  0.00  0.00    +0.000 HD
ATOM     16  H   UNL     1      44.072   6.714  10.469  0.00  0.00    +0.000 HD
ENDBRANCH  12  14
BRANCH  12  17
ATOM     17  C   UNL     1      44.084   3.384  10.978  0.00  0.00    +0.000 C 
BRANCH  17  18
ATOM     18  O   UNL     1      42.719   3.480  11.390  0.00  0.00    +0.000 OA
ATOM     19  H   UNL     1      42.211   3.804  10.624  0.00  0.00    +0.000 HD
ENDBRANCH  17  18
ENDBRANCH  12  17
ENDBRANCH   3  12
BRANCH   8  20
ATOM     20  C   UNL     1      49.253   7.178  15.328  0.00  0.00    +0.000 C 
BRANCH  20  21
ATOM     21  C   UNL     1      48.875   7.983  16.553  0.00  0.00    +0.000 A 
ATOM     22  C   UNL     1      49.071   7.484  17.849  0.00  0.00    +0.000 A 
ATOM     23  C   UNL     1      48.532   8.151  18.958  0.00  0.00    +0.000 A 
ATOM     24  C   UNL     1      47.791   9.330  18.790  0.00  0.00    +0.000 A 
ATOM     25  C   UNL     1      47.707   9.886  17.508  0.00  0.00    +0.000 A 
ATOM     26  C   UNL     1      48.249   9.221  16.405  0.00  0.00    +0.000 A 
BRANCH  24  27
ATOM     27  C   UNL     1      46.942   9.851  19.926  0.00  0.00    +0.000 C 
BRANCH  27  28
ATOM     28  N   UNL     1      46.436  11.204  19.720  0.00  0.00    +0.000 NA
ATOM     29  H   UNL     1      45.912  11.228  18.847  0.00  0.00    +0.000 HD
ATOM     30  H   UNL     1      47.225  11.834  19.604  0.00  0.00    +0.000 HD
ENDBRANCH  27  28
ENDBRANCH  24  27
ENDBRANCH  20  21
ENDBRANCH   8  20
TORSDOF 9
ENDMDL
MODEL 9
REMARK VINA RESULT:    -5.430      3.721      6.337
REMARK INTER + INTRA:          -8.473
REMARK INTER:                  -7.710
REMARK INTRA:                  -0.763
REMARK UNBOUND:                -0.661
REMARK  Name = 
REMARK  11 active torsions:
REMARK  status: ('A' for Active; 'I' for Inactive)
REMARK    1  A    between atoms: C_1  and  O_2
REMARK    2  A    between atoms: O_2  and  C_3
REMARK    3  A    between atoms: C_5  and  C_6
REMARK    4  A    between atoms: C_6  and  C_7
REMARK    5  A    between atoms: C_6  and  N_8
REMARK    6  A    between atoms: C_6  and  C_9
REMARK    7  A    between atoms: C_9  and  O_10
REMARK    8  A    between atoms: N_15  and  C_16
REMARK    9  A    between atoms: C_16  and  C_17
REMARK   10  A    between atoms: C_20  and  C_21
REMARK   11  A    between atoms: C_21  and  N_22
REMARK                            x       y       z     vdW  Elec       q    Type
REMARK                         _______ _______ _______ _____ _____    ______ ____
ROOT
ATOM      1  C   UNL     1      47.237   6.318  13.578  0.00  0.00    +0.000 A 
ATOM      2  C   UNL     1      46.089   5.515  13.415  0.00  0.00    +0.000 A 
ATOM      3  C   UNL     1      44.953   5.912  12.697  0.00  0.00    +0.000 A 
ATOM      4  C   UNL     1      44.926   7.224  12.213  0.00  0.00    +0.000 A 
ATOM      5  C   UNL     1      46.025   8.097  12.421  0.00  0.00    +0.000 A 
ATOM      6  C   UNL     1      46.246   9.451  12.056  0.00  0.00    +0.000 A 
ATOM      7  C   UNL     1      47.495   9.803  12.498  0.00  0.00    +0.000 A 
ATOM      8  N   UNL     1      48.069   8.706  13.108  0.00  0.00    +0.000 N 
ATOM      9  C   UNL     1      47.174   7.641  13.094  0.00  0.00    +0.000 A 
ENDROOT
BRANCH   1  11
ATOM     10  C   UNL     1      48.296   5.777  15.610  0.00  0.00    +0.000 C 
ATOM     11  O   UNL     1      48.376   5.834  14.180  0.00  0.00    +0.000 OA
ENDBRANCH   1  11
BRANCH   3  12
ATOM     12  C   UNL     1      43.851   4.867  12.435  0.00  0.00    +0.000 C 
ATOM     13  C   UNL     1      43.291   4.868  10.999  0.00  0.00    +0.000 C 
BRANCH  12  14
ATOM     14  N   UNL     1      42.719   5.130  13.348  0.00  0.00    +0.000 NA
ATOM     15  H   UNL     1      42.652   4.381  14.034  0.00  0.00    +0.000 HD
ATOM     16  H   UNL     1      41.852   5.102  12.809  0.00  0.00    +0.000 HD
ENDBRANCH  12  14
BRANCH  12  17
ATOM     17  C   UNL     1      44.417   3.435  12.734  0.00  0.00    +0.000 C 
BRANCH  17  18
ATOM     18  O   UNL     1      43.450   2.405  12.513  0.00  0.00    +0.000 OA
ATOM     19  H   UNL     1      42.882   2.700  11.778  0.00  0.00    +0.000 HD
ENDBRANCH  17  18
ENDBRANCH  12  17
ENDBRANCH   3  12
BRANCH   8  20
ATOM     20  C   UNL     1      49.390   8.776  13.743  0.00  0.00    +0.000 C 
BRANCH  20  21
ATOM     21  C   UNL     1      50.499   8.421  12.777  0.00  0.00    +0.000 A 
ATOM     22  C   UNL     1      51.812   8.876  12.966  0.00  0.00    +0.000 A 
ATOM     23  C   UNL     1      52.775   8.710  11.960  0.00  0.00    +0.000 A 
ATOM     24  C   UNL     1      52.443   8.084  10.751  0.00  0.00    +0.000 A 
ATOM     25  C   UNL     1      51.166   7.523  10.621  0.00  0.00    +0.000 A 
ATOM     26  C   UNL     1      50.210   7.687  11.626  0.00  0.00    +0.000 A 
BRANCH  24  27
ATOM     27  C   UNL     1      53.368   8.206   9.563  0.00  0.00    +0.000 C 
BRANCH  27  28
ATOM     28  N   UNL     1      52.936   9.181   8.567  0.00  0.00    +0.000 NA
ATOM     29  H   UNL     1      51.958   9.005   8.341  0.00  0.00    +0.000 HD
ATOM     30  H   UNL     1      53.464   9.030   7.711  0.00  0.00    +0.000 HD
ENDBRANCH  27  28
ENDBRANCH  24  27
ENDBRANCH  20  21
ENDBRANCH   8  20
TORSDOF 9
ENDMDL
