MODEL 1
REMARK VINA RESULT:    -7.972      0.000      0.000
REMARK INTER + INTRA:          -9.814
REMARK INTER:                  -9.370
REMARK INTRA:                  -0.443
REMARK UNBOUND:                -0.443
REMARK  Name = 
REMARK  3 active torsions:
REMARK  status: ('A' for Active; 'I' for Inactive)
REMARK    1  A    between atoms: C_2  and  C_4
REMARK    2  A    between atoms: N_8  and  C_9
REMARK    3  A    between atoms: C_9  and  C_10
REMARK                            x       y       z     vdW  Elec       q    Type
REMARK                         _______ _______ _______ _____ _____    ______ ____
ROOT
ATOM      1  C   UNL     1      46.635   2.598   7.349  0.00  0.00    +0.000 A 
ATOM      2  C   UNL     1      46.049   1.565   8.071  0.00  0.00    +0.000 A 
ATOM      3  C   UNL     1      45.199   1.883   9.128  0.00  0.00    +0.000 A 
ATOM      4  C   UNL     1      44.962   3.218   9.456  0.00  0.00    +0.000 A 
ATOM      5  N   UNL     1      43.996   3.467  10.450  0.00  0.00    +0.000 N 
ATOM      6  N   UNL     1      45.589   4.216   8.806  0.00  0.00    +0.000 NA
ATOM      7  C   UNL     1      46.414   3.898   7.776  0.00  0.00    +0.000 A 
ATOM      8  H   UNL     1      43.102   3.090  10.150  0.00  0.00    +0.000 HD
ENDROOT
BRANCH   1  10
ATOM      9  N   UNL     1      47.232   3.232   5.095  0.00  0.00    +0.000 N 
ATOM     10  C   UNL     1      47.445   2.372   6.139  0.00  0.00    +0.000 C 
ATOM     11  O   UNL     1      48.303   1.510   6.092  0.00  0.00    +0.000 OA
ATOM     12  H   UNL     1      47.882   3.168   4.321  0.00  0.00    +0.000 HD
ATOM     13  H   UNL     1      46.714   4.093   5.197  0.00  0.00    +0.000 HD
ENDBRANCH   1  10
BRANCH   5  14
ATOM     14  C   UNL     1      43.920   4.672  11.289  0.00  0.00    +0.000 C 
ATOM     15  C   UNL     1      42.565   5.081  11.844  0.00  0.00    +0.000 C 
ATOM     16  C   UNL     1      43.276   5.992  10.899  0.00  0.00    +0.000 C 
BRANCH  14  17
ATOM     17  C   UNL     1      45.156   4.839  12.158  0.00  0.00    +0.000 A 
ATOM     18  C   UNL     1      45.823   6.070  12.211  0.00  0.00    +0.000 A 
ATOM     19  C   UNL     1      46.800   6.304  13.172  0.00  0.00    +0.000 A 
ATOM     20  C   UNL     1      47.124   5.271  14.032  0.00  0.00    +0.000 A 
ATOM     21  N   UNL     1      46.593   4.033  13.953  0.00  0.00    +0.000 NA
ATOM     22  C   UNL     1      45.631   3.849  13.017  0.00  0.00    +0.000 A 
ENDBRANCH  14  17
ENDBRANCH   5  14
TORSDOF 3
ENDMDL
MODEL 2
REMARK VINA RESULT:    -6.684      2.974      6.382
REMARK INTER + INTRA:          -8.300
REMARK INTER:                  -8.146
REMARK INTRA:                  -0.154
REMARK UNBOUND:                -0.443
REMARK  Name = 
REMARK  3 active torsions:
REMARK  status: ('A' for Active; 'I' for Inactive)
REMARK    1  A    between atoms: C_2  and  C_4
REMARK    2  A    between atoms: N_8  and  C_9
REMARK    3  A    between atoms: C_9  and  C_10
REMARK                            x       y       z     vdW  Elec       q    Type
REMARK                         _______ _______ _______ _____ _____    ______ ____
ROOT
ATOM      1  C   UNL     1      48.079   6.601  13.908  0.00  0.00    +0.000 A 
ATOM      2  C   UNL     1      48.073   7.294  12.703  0.00  0.00    +0.000 A 
ATOM      3  C   UNL     1      47.144   6.936  11.728  0.00  0.00    +0.000 A 
ATOM      4  C   UNL     1      46.253   5.888  11.964  0.00  0.00    +0.000 A 
ATOM      5  N   UNL     1      45.261   5.664  10.989  0.00  0.00    +0.000 N 
ATOM      6  N   UNL     1      46.310   5.169  13.101  0.00  0.00    +0.000 NA
ATOM      7  C   UNL     1      47.215   5.526  14.046  0.00  0.00    +0.000 A 
ATOM      8  H   UNL     1      44.692   6.500  10.894  0.00  0.00    +0.000 HD
ENDROOT
BRANCH   1  10
ATOM      9  N   UNL     1      48.306   7.615  16.091  0.00  0.00    +0.000 N 
ATOM     10  C   UNL     1      48.931   6.983  15.049  0.00  0.00    +0.000 C 
ATOM     11  O   UNL     1      50.113   6.695  15.091  0.00  0.00    +0.000 OA
ATOM     12  H   UNL     1      48.858   7.749  16.930  0.00  0.00    +0.000 HD
ATOM     13  H   UNL     1      47.301   7.641  16.186  0.00  0.00    +0.000 HD
ENDBRANCH   1  10
BRANCH   5  14
ATOM     14  C   UNL     1      44.559   4.395  10.757  0.00  0.00    +0.000 C 
ATOM     15  C   UNL     1      43.074   4.322  11.078  0.00  0.00    +0.000 C 
ATOM     16  C   UNL     1      44.030   3.457  11.831  0.00  0.00    +0.000 C 
BRANCH  14  17
ATOM     17  C   UNL     1      45.086   3.669   9.531  0.00  0.00    +0.000 A 
ATOM     18  C   UNL     1      45.626   4.391   8.457  0.00  0.00    +0.000 A 
ATOM     19  C   UNL     1      46.320   3.739   7.445  0.00  0.00    +0.000 A 
ATOM     20  C   UNL     1      46.416   2.362   7.506  0.00  0.00    +0.000 A 
ATOM     21  N   UNL     1      45.821   1.610   8.457  0.00  0.00    +0.000 NA
ATOM     22  C   UNL     1      45.169   2.280   9.436  0.00  0.00    +0.000 A 
ENDBRANCH  14  17
ENDBRANCH   5  14
TORSDOF 3
ENDMDL
MODEL 3
REMARK VINA RESULT:    -5.591      3.620      6.612
REMARK INTER + INTRA:          -7.015
REMARK INTER:                  -6.908
REMARK INTRA:                  -0.106
REMARK UNBOUND:                -0.443
REMARK  Name = 
REMARK  3 active torsions:
REMARK  status: ('A' for Active; 'I' for Inactive)
REMARK    1  A    between atoms: C_2  and  C_4
REMARK    2  A    between atoms: N_8  and  C_9
REMARK    3  A    between atoms: C_9  and  C_10
REMARK                            x       y       z     vdW  Elec       q    Type
REMARK                         _______ _______ _______ _____ _____    ______ ____
ROOT
ATOM      1  C   UNL     1      49.303   7.195  13.803  0.00  0.00    +0.000 A 
ATOM      2  C   UNL     1      49.275   7.724  12.518  0.00  0.00    +0.000 A 
ATOM      3  C   UNL     1      48.158   7.488  11.719  0.00  0.00    +0.000 A 
ATOM      4  C   UNL     1      47.101   6.718  12.207  0.00  0.00    +0.000 A 
ATOM      5  N   UNL     1      45.954   6.627  11.395  0.00  0.00    +0.000 N 
ATOM      6  N   UNL     1      47.162   6.143  13.423  0.00  0.00    +0.000 NA
ATOM      7  C   UNL     1      48.252   6.381  14.196  0.00  0.00    +0.000 A 
ATOM      8  H   UNL     1      45.576   7.557  11.244  0.00  0.00    +0.000 HD
ENDROOT
BRANCH   1  10
ATOM      9  N   UNL     1      51.641   7.605  14.261  0.00  0.00    +0.000 N 
ATOM     10  C   UNL     1      50.375   7.492  14.770  0.00  0.00    +0.000 C 
ATOM     11  O   UNL     1      50.140   7.691  15.948  0.00  0.00    +0.000 OA
ATOM     12  H   UNL     1      52.351   7.947  14.896  0.00  0.00    +0.000 HD
ATOM     13  H   UNL     1      51.822   7.689  13.271  0.00  0.00    +0.000 HD
ENDBRANCH   1  10
BRANCH   5  14
ATOM     14  C   UNL     1      44.961   5.544  11.434  0.00  0.00    +0.000 C 
ATOM     15  C   UNL     1      43.548   5.875  11.889  0.00  0.00    +0.000 C 
ATOM     16  C   UNL     1      44.370   4.919  12.688  0.00  0.00    +0.000 C 
BRANCH  14  17
ATOM     17  C   UNL     1      45.159   4.550  10.302  0.00  0.00    +0.000 A 
ATOM     18  C   UNL     1      44.833   3.199  10.481  0.00  0.00    +0.000 A 
ATOM     19  C   UNL     1      44.784   2.333   9.394  0.00  0.00    +0.000 A 
ATOM     20  C   UNL     1      45.115   2.835   8.149  0.00  0.00    +0.000 A 
ATOM     21  N   UNL     1      45.541   4.098   7.939  0.00  0.00    +0.000 NA
ATOM     22  C   UNL     1      45.559   4.917   9.018  0.00  0.00    +0.000 A 
ENDBRANCH  14  17
ENDBRANCH   5  14
TORSDOF 3
ENDMDL
MODEL 4
REMARK VINA RESULT:    -5.458      3.673      5.546
REMARK INTER + INTRA:          -6.859
REMARK INTER:                  -7.167
REMARK INTRA:                   0.308
REMARK UNBOUND:                -0.443
REMARK  Name = 
REMARK  3 active torsions:
REMARK  status: ('A' for Active; 'I' for Inactive)
REMARK    1  A    between atoms: C_2  and  C_4
REMARK    2  A    between atoms: N_8  and  C_9
REMARK    3  A    between atoms: C_9  and  C_10
REMARK                            x       y       z     vdW  Elec       q    Type
REMARK                         _______ _______ _______ _____ _____    ______ ____
ROOT
ATOM      1  C   UNL     1      44.928   3.847  11.498  0.00  0.00    +0.000 A 
ATOM      2  C   UNL     1      45.438   3.716  12.785  0.00  0.00    +0.000 A 
ATOM      3  C   UNL     1      46.139   4.785  13.341  0.00  0.00    +0.000 A 
ATOM      4  C   UNL     1      46.332   5.953  12.603  0.00  0.00    +0.000 A 
ATOM      5  N   UNL     1      46.936   7.035  13.271  0.00  0.00    +0.000 N 
ATOM      6  N   UNL     1      45.903   6.051  11.330  0.00  0.00    +0.000 NA
ATOM      7  C   UNL     1      45.219   5.007  10.797  0.00  0.00    +0.000 A 
ATOM      8  H   UNL     1      46.363   7.299  14.067  0.00  0.00    +0.000 HD
ENDROOT
BRANCH   1  10
ATOM      9  N   UNL     1      44.533   2.268   9.712  0.00  0.00    +0.000 N 
ATOM     10  C   UNL     1      44.066   2.831  10.870  0.00  0.00    +0.000 C 
ATOM     11  O   UNL     1      43.026   2.463  11.385  0.00  0.00    +0.000 OA
ATOM     12  H   UNL     1      44.014   1.474   9.358  0.00  0.00    +0.000 HD
ATOM     13  H   UNL     1      45.489   2.374   9.404  0.00  0.00    +0.000 HD
ENDBRANCH   1  10
BRANCH   5  14
ATOM     14  C   UNL     1      47.667   8.138  12.630  0.00  0.00    +0.000 C 
ATOM     15  C   UNL     1      48.761   7.795  11.632  0.00  0.00    +0.000 C 
ATOM     16  C   UNL     1      49.117   8.516  12.889  0.00  0.00    +0.000 C 
BRANCH  14  17
ATOM     17  C   UNL     1      46.771   9.335  12.363  0.00  0.00    +0.000 A 
ATOM     18  C   UNL     1      47.304  10.510  11.814  0.00  0.00    +0.000 A 
ATOM     19  C   UNL     1      46.466  11.516  11.348  0.00  0.00    +0.000 A 
ATOM     20  C   UNL     1      45.101  11.341  11.489  0.00  0.00    +0.000 A 
ATOM     21  N   UNL     1      44.541  10.281  12.109  0.00  0.00    +0.000 NA
ATOM     22  C   UNL     1      45.388   9.313  12.533  0.00  0.00    +0.000 A 
ENDBRANCH  14  17
ENDBRANCH   5  14
TORSDOF 3
ENDMDL
MODEL 5
REMARK VINA RESULT:    -5.372      2.577      3.927
REMARK INTER + INTRA:          -6.758
REMARK INTER:                  -6.505
REMARK INTRA:                  -0.253
REMARK UNBOUND:                -0.443
REMARK  Name = 
REMARK  3 active torsions:
REMARK  status: ('A' for Active; 'I' for Inactive)
REMARK    1  A    between atoms: C_2  and  C_4
REMARK    2  A    between atoms: N_8  and  C_9
REMARK    3  A    between atoms: C_9  and  C_10
REMARK                            x       y       z     vdW  Elec       q    Type
REMARK                         _______ _______ _______ _____ _____    ______ ____
ROOT
ATOM      1  C   UNL     1      44.935   3.551  10.068  0.00  0.00    +0.000 A 
ATOM      2  C   UNL     1      44.892   3.186  11.409  0.00  0.00    +0.000 A 
ATOM      3  C   UNL     1      45.155   4.154  12.376  0.00  0.00    +0.000 A 
ATOM      4  C   UNL     1      45.472   5.458  11.991  0.00  0.00    +0.000 A 
ATOM      5  N   UNL     1      45.602   6.411  13.020  0.00  0.00    +0.000 N 
ATOM      6  N   UNL     1      45.588   5.791  10.692  0.00  0.00    +0.000 NA
ATOM      7  C   UNL     1      45.327   4.844   9.756  0.00  0.00    +0.000 A 
ATOM      8  H   UNL     1      44.725   6.474  13.529  0.00  0.00    +0.000 HD
ENDROOT
BRANCH   1  10
ATOM      9  N   UNL     1      44.234   3.224   7.778  0.00  0.00    +0.000 N 
ATOM     10  C   UNL     1      44.548   2.640   8.976  0.00  0.00    +0.000 C 
ATOM     11  O   UNL     1      44.570   1.430   9.111  0.00  0.00    +0.000 OA
ATOM     12  H   UNL     1      44.107   2.597   6.992  0.00  0.00    +0.000 HD
ATOM     13  H   UNL     1      44.445   4.190   7.572  0.00  0.00    +0.000 HD
ENDBRANCH   1  10
BRANCH   5  14
ATOM     14  C   UNL     1      46.374   7.658  12.940  0.00  0.00    +0.000 C 
ATOM     15  C   UNL     1      45.666   8.967  13.250  0.00  0.00    +0.000 C 
ATOM     16  C   UNL     1      46.218   8.739  11.883  0.00  0.00    +0.000 C 
BRANCH  14  17
ATOM     17  C   UNL     1      47.810   7.468  13.399  0.00  0.00    +0.000 A 
ATOM     18  C   UNL     1      48.851   8.173  12.779  0.00  0.00    +0.000 A 
ATOM     19  C   UNL     1      50.124   8.190  13.338  0.00  0.00    +0.000 A 
ATOM     20  C   UNL     1      50.338   7.453  14.488  0.00  0.00    +0.000 A 
ATOM     21  N   UNL     1      49.401   6.670  15.063  0.00  0.00    +0.000 NA
ATOM     22  C   UNL     1      48.169   6.693  14.502  0.00  0.00    +0.000 A 
ENDBRANCH  14  17
ENDBRANCH   5  14
TORSDOF 3
ENDMDL
MODEL 6
REMARK VINA RESULT:    -5.318      3.165      5.190
REMARK INTER + INTRA:          -6.694
REMARK INTER:                  -6.873
REMARK INTRA:                   0.179
REMARK UNBOUND:                -0.443
REMARK  Name = 
REMARK  3 active torsions:
REMARK  status: ('A' for Active; 'I' for Inactive)
REMARK    1  A    between atoms: C_2  and  C_4
REMARK    2  A    between atoms: N_8  and  C_9
REMARK    3  A    between atoms: C_9  and  C_10
REMARK                            x       y       z     vdW  Elec       q    Type
REMARK                         _______ _______ _______ _____ _____    ______ ____
ROOT
ATOM      1  C   UNL     1      45.072   4.218  11.008  0.00  0.00    +0.000 A 
ATOM      2  C   UNL     1      45.267   3.627  12.251  0.00  0.00    +0.000 A 
ATOM      3  C   UNL     1      45.934   4.347  13.239  0.00  0.00    +0.000 A 
ATOM      4  C   UNL     1      46.408   5.631  12.968  0.00  0.00    +0.000 A 
ATOM      5  N   UNL     1      46.959   6.348  14.048  0.00  0.00    +0.000 N 
ATOM      6  N   UNL     1      46.286   6.173  11.741  0.00  0.00    +0.000 NA
ATOM      7  C   UNL     1      45.632   5.466  10.785  0.00  0.00    +0.000 A 
ATOM      8  H   UNL     1      46.255   6.456  14.771  0.00  0.00    +0.000 HD
ENDROOT
BRANCH   1  10
ATOM      9  N   UNL     1      44.063   4.348   8.815  0.00  0.00    +0.000 N 
ATOM     10  C   UNL     1      44.270   3.595   9.940  0.00  0.00    +0.000 C 
ATOM     11  O   UNL     1      43.867   2.449  10.025  0.00  0.00    +0.000 OA
ATOM     12  H   UNL     1      43.637   3.872   8.029  0.00  0.00    +0.000 HD
ATOM     13  H   UNL     1      44.587   5.190   8.622  0.00  0.00    +0.000 HD
ENDBRANCH   1  10
BRANCH   5  14
ATOM     14  C   UNL     1      47.926   7.449  13.941  0.00  0.00    +0.000 C 
ATOM     15  C   UNL     1      47.399   8.850  13.677  0.00  0.00    +0.000 C 
ATOM     16  C   UNL     1      48.288   8.200  12.670  0.00  0.00    +0.000 C 
BRANCH  14  17
ATOM     17  C   UNL     1      49.101   7.268  14.888  0.00  0.00    +0.000 A 
ATOM     18  C   UNL     1      48.961   6.500  16.052  0.00  0.00    +0.000 A 
ATOM     19  C   UNL     1      50.077   6.133  16.795  0.00  0.00    +0.000 A 
ATOM     20  C   UNL     1      51.313   6.591  16.378  0.00  0.00    +0.000 A 
ATOM     21  N   UNL     1      51.492   7.423  15.331  0.00  0.00    +0.000 NA
ATOM     22  C   UNL     1      50.384   7.744  14.620  0.00  0.00    +0.000 A 
ENDBRANCH  14  17
ENDBRANCH   5  14
TORSDOF 3
ENDMDL
MODEL 7
REMARK VINA RESULT:    -5.221      4.859      7.599
REMARK INTER + INTRA:          -6.580
REMARK INTER:                  -6.299
REMARK INTRA:                  -0.282
REMARK UNBOUND:                -0.443
REMARK  Name = 
REMARK  3 active torsions:
REMARK  status: ('A' for Active; 'I' for Inactive)
REMARK    1  A    between atoms: C_2  and  C_4
REMARK    2  A    between atoms: N_8  and  C_9
REMARK    3  A    between atoms: C_9  and  C_10
REMARK                            x       y       z     vdW  Elec       q    Type
REMARK                         _______ _______ _______ _____ _____    ______ ____
ROOT
ATOM      1  C   UNL     1      47.172   5.834  13.317  0.00  0.00    +0.000 A 
ATOM      2  C   UNL     1      46.562   4.644  13.696  0.00  0.00    +0.000 A 
ATOM      3  C   UNL     1      46.833   4.124  14.960  0.00  0.00    +0.000 A 
ATOM      4  C   UNL     1      47.717   4.787  15.813  0.00  0.00    +0.000 A 
ATOM      5  N   UNL     1      47.846   4.275  17.118  0.00  0.00    +0.000 N 
ATOM      6  N   UNL     1      48.365   5.899  15.416  0.00  0.00    +0.000 NA
ATOM      7  C   UNL     1      48.093   6.400  14.184  0.00  0.00    +0.000 A 
ATOM      8  H   UNL     1      46.941   4.300  17.578  0.00  0.00    +0.000 HD
ENDROOT
BRANCH   1  10
ATOM      9  N   UNL     1      47.275   7.832  11.960  0.00  0.00    +0.000 N 
ATOM     10  C   UNL     1      46.855   6.533  12.058  0.00  0.00    +0.000 C 
ATOM     11  O   UNL     1      46.307   5.966  11.130  0.00  0.00    +0.000 OA
ATOM     12  H   UNL     1      47.185   8.265  11.049  0.00  0.00    +0.000 HD
ATOM     13  H   UNL     1      47.937   8.239  12.605  0.00  0.00    +0.000 HD
ENDBRANCH   1  10
BRANCH   5  14
ATOM     14  C   UNL     1      49.006   4.462  18.002  0.00  0.00    +0.000 C 
ATOM     15  C   UNL     1      48.754   4.848  19.451  0.00  0.00    +0.000 C 
ATOM     16  C   UNL     1      49.497   5.788  18.561  0.00  0.00    +0.000 C 
BRANCH  14  17
ATOM     17  C   UNL     1      50.129   3.492  17.679  0.00  0.00    +0.000 A 
ATOM     18  C   UNL     1      51.457   3.819  17.984  0.00  0.00    +0.000 A 
ATOM     19  C   UNL     1      52.457   2.856  17.914  0.00  0.00    +0.000 A 
ATOM     20  C   UNL     1      52.107   1.588  17.488  0.00  0.00    +0.000 A 
ATOM     21  N   UNL     1      50.867   1.249  17.078  0.00  0.00    +0.000 NA
ATOM     22  C   UNL     1      49.916   2.208  17.177  0.00  0.00    +0.000 A 
ENDBRANCH  14  17
ENDBRANCH   5  14
TORSDOF 3
ENDMDL
MODEL 8
REMARK VINA RESULT:    -5.199      5.694      7.318
REMARK INTER + INTRA:          -6.554
REMARK INTER:                  -6.105
REMARK INTRA:                  -0.449
REMARK UNBOUND:                -0.443
REMARK  Name = 
REMARK  3 active torsions:
REMARK  status: ('A' for Active; 'I' for Inactive)
REMARK    1  A    between atoms: C_2  and  C_4
REMARK    2  A    between atoms: N_8  and  C_9
REMARK    3  A    between atoms: C_9  and  C_10
REMARK                            x       y       z     vdW  Elec       q    Type
REMARK                         _______ _______ _______ _____ _____    ______ ____
ROOT
ATOM      1  C   UNL     1      49.333   7.331  12.730  0.00  0.00    +0.000 A 
ATOM      2  C   UNL     1      48.201   6.551  12.516  0.00  0.00    +0.000 A 
ATOM      3  C   UNL     1      47.623   5.896  13.601  0.00  0.00    +0.000 A 
ATOM      4  C   UNL     1      48.190   6.014  14.871  0.00  0.00    +0.000 A 
ATOM      5  N   UNL     1      47.483   5.430  15.940  0.00  0.00    +0.000 N 
ATOM      6  N   UNL     1      49.329   6.707  15.063  0.00  0.00    +0.000 NA
ATOM      7  C   UNL     1      49.883   7.345  14.002  0.00  0.00    +0.000 A 
ATOM      8  H   UNL     1      46.562   5.855  16.003  0.00  0.00    +0.000 HD
ENDROOT
BRANCH   1  10
ATOM      9  N   UNL     1      51.014   7.625  11.019  0.00  0.00    +0.000 N 
ATOM     10  C   UNL     1      49.943   8.164  11.679  0.00  0.00    +0.000 C 
ATOM     11  O   UNL     1      49.481   9.247  11.369  0.00  0.00    +0.000 OA
ATOM     12  H   UNL     1      51.343   8.133  10.206  0.00  0.00    +0.000 HD
ATOM     13  H   UNL     1      51.257   6.646  11.085  0.00  0.00    +0.000 HD
ENDBRANCH   1  10
BRANCH   5  14
ATOM     14  C   UNL     1      48.065   4.998  17.218  0.00  0.00    +0.000 C 
ATOM     15  C   UNL     1      47.176   4.991  18.451  0.00  0.00    +0.000 C 
ATOM     16  C   UNL     1      48.366   5.892  18.410  0.00  0.00    +0.000 C 
BRANCH  14  17
ATOM     17  C   UNL     1      49.080   3.882  17.032  0.00  0.00    +0.000 A 
ATOM     18  C   UNL     1      50.358   3.986  17.596  0.00  0.00    +0.000 A 
ATOM     19  C   UNL     1      51.205   2.884  17.637  0.00  0.00    +0.000 A 
ATOM     20  C   UNL     1      50.766   1.706  17.061  0.00  0.00    +0.000 A 
ATOM     21  N   UNL     1      49.591   1.583  16.408  0.00  0.00    +0.000 NA
ATOM     22  C   UNL     1      48.785   2.672  16.405  0.00  0.00    +0.000 A 
ENDBRANCH  14  17
ENDBRANCH   5  14
TORSDOF 3
ENDMDL
MODEL 9
REMARK VINA RESULT:    -5.135      4.201      7.217
REMARK INTER + INTRA:          -6.478
REMARK INTER:                  -6.019
REMARK INTRA:                  -0.460
REMARK UNBOUND:                -0.443
REMARK  Name = 
REMARK  3 active torsions:
REMARK  status: ('A' for Active; 'I' for Inactive)
REMARK    1  A    between atoms: C_2  and  C_4
REMARK    2  A    between atoms: N_8  and  C_9
REMARK    3  A    between atoms: C_9  and  C_10
REMARK                            x       y       z     vdW  Elec       q    Type
REMARK                         _______ _______ _______ _____ _____    ______ ____
ROOT
ATOM      1  C   UNL     1      46.222   4.990  12.918  0.00  0.00    +0.000 A 
ATOM      2  C   UNL     1      46.643   6.218  12.421  0.00  0.00    +0.000 A 
ATOM      3  C   UNL     1      47.656   6.901  13.090  0.00  0.00    +0.000 A 
ATOM      4  C   UNL     1      48.217   6.360  14.247  0.00  0.00    +0.000 A 
ATOM      5  N   UNL     1      49.320   7.041  14.798  0.00  0.00    +0.000 N 
ATOM      6  N   UNL     1      47.756   5.208  14.771  0.00  0.00    +0.000 NA
ATOM      7  C   UNL     1      46.772   4.547  14.111  0.00  0.00    +0.000 A 
ATOM      8  H   UNL     1      50.069   7.075  14.112  0.00  0.00    +0.000 HD
ENDROOT
BRANCH   1  10
ATOM      9  N   UNL     1      45.259   2.803  12.555  0.00  0.00    +0.000 N 
ATOM     10  C   UNL     1      45.252   4.130  12.217  0.00  0.00    +0.000 C 
ATOM     11  O   UNL     1      44.443   4.585  11.429  0.00  0.00    +0.000 OA
ATOM     12  H   UNL     1      44.503   2.241  12.182  0.00  0.00    +0.000 HD
ATOM     13  H   UNL     1      45.741   2.453  13.370  0.00  0.00    +0.000 HD
ENDBRANCH   1  10
BRANCH   5  14
ATOM     14  C   UNL     1      49.753   6.977  16.200  0.00  0.00    +0.000 C 
ATOM     15  C   UNL     1      51.244   7.008  16.497  0.00  0.00    +0.000 C 
ATOM     16  C   UNL     1      50.449   5.801  16.867  0.00  0.00    +0.000 C 
BRANCH  14  17
ATOM     17  C   UNL     1      48.800   7.715  17.125  0.00  0.00    +0.000 A 
ATOM     18  C   UNL     1      48.291   7.083  18.268  0.00  0.00    +0.000 A 
ATOM     19  C   UNL     1      47.615   7.814  19.238  0.00  0.00    +0.000 A 
ATOM     20  C   UNL     1      47.420   9.164  19.015  0.00  0.00    +0.000 A 
ATOM     21  N   UNL     1      47.793   9.799  17.884  0.00  0.00    +0.000 NA
ATOM     22  C   UNL     1      48.464   9.059  16.969  0.00  0.00    +0.000 A 
ENDBRANCH  14  17
ENDBRANCH   5  14
TORSDOF 3
ENDMDL
