MODEL 1
REMARK VINA RESULT:    -7.998      0.000      0.000
REMARK INTER + INTRA:         -11.838
REMARK INTER:                 -10.803
REMARK INTRA:                  -1.035
REMARK UNBOUND:                -1.035
REMARK  Name = 
REMARK  6 active torsions:
REMARK  status: ('A' for Active; 'I' for Inactive)
REMARK    1  A    between atoms: C_2  and  C_20
REMARK    2  A    between atoms: N_3  and  C_4
REMARK    3  A    between atoms: C_4  and  C_5
REMARK    4  A    between atoms: C_8  and  C_9
REMARK    5  A    between atoms: C_9  and  N_10
REMARK    6  A    between atoms: C_11  and  C_13
REMARK                            x       y       z     vdW  Elec       q    Type
REMARK                         _______ _______ _______ _____ _____    ______ ____
ROOT
ATOM      1  C   UNL     1      47.579   8.362  13.753  0.00  0.00    +0.000 C 
ENDROOT
BRANCH   1   2
ATOM      2  C   UNL     1      46.580   7.606  12.912  0.00  0.00    +0.000 A 
ATOM      3  C   UNL     1      46.759   6.242  12.645  0.00  0.00    +0.000 A 
ATOM      4  C   UNL     1      45.797   5.520  11.927  0.00  0.00    +0.000 A 
ATOM      5  C   UNL     1      44.647   6.151  11.437  0.00  0.00    +0.000 A 
ATOM      6  C   UNL     1      44.479   7.521  11.685  0.00  0.00    +0.000 A 
ATOM      7  C   UNL     1      45.440   8.243  12.405  0.00  0.00    +0.000 A 
BRANCH   5   8
ATOM      8  C   UNL     1      43.606   5.381  10.663  0.00  0.00    +0.000 C 
BRANCH   8   9
ATOM      9  N   UNL     1      44.157   4.705   9.515  0.00  0.00    +0.000 N 
ATOM     10  C   UNL     1      44.279   3.326   9.488  0.00  0.00    +0.000 C 
ATOM     11  O   UNL     1      43.852   2.595  10.372  0.00  0.00    +0.000 OA
ATOM     12  H   UNL     1      44.737   5.217   8.856  0.00  0.00    +0.000 HD
BRANCH  10  13
ATOM     13  C   UNL     1      44.920   2.803   8.191  0.00  0.00    +0.000 C 
ATOM     14  C   UNL     1      45.960   1.716   8.426  0.00  0.00    +0.000 C 
ATOM     15  C   UNL     1      46.869   1.880   7.234  0.00  0.00    +0.000 C 
ATOM     16  C   UNL     1      46.871   3.380   7.046  0.00  0.00    +0.000 C 
ATOM     17  O   UNL     1      45.575   3.848   7.446  0.00  0.00    +0.000 OA
ENDBRANCH  10  13
ENDBRANCH   8   9
ENDBRANCH   5   8
ENDBRANCH   1   2
BRANCH   1  20
ATOM     18  O   UNL     1      50.008   7.156  14.240  0.00  0.00    +0.000 OA
ATOM     19  C   UNL     1      49.180   7.163  15.148  0.00  0.00    +0.000 C 
ATOM     20  N   UNL     1      47.917   7.682  14.978  0.00  0.00    +0.000 N 
ATOM     21  H   UNL     1      47.345   7.877  15.794  0.00  0.00    +0.000 HD
BRANCH  19  22
ATOM     22  C   UNL     1      49.488   6.577  16.458  0.00  0.00    +0.000 A 
ATOM     23  C   UNL     1      50.336   7.241  17.333  0.00  0.00    +0.000 A 
ATOM     24  S   UNL     1      50.570   6.421  18.811  0.00  0.00    +0.000 S 
ATOM     25  C   UNL     1      49.505   5.176  18.351  0.00  0.00    +0.000 A 
ATOM     26  N   UNL     1      49.214   4.154  19.200  0.00  0.00    +0.000 NA
ATOM     27  C   UNL     1      48.357   3.304  18.734  0.00  0.00    +0.000 A 
ATOM     28  N   UNL     1      47.780   3.377  17.495  0.00  0.00    +0.000 N 
ATOM     29  C   UNL     1      48.081   4.363  16.587  0.00  0.00    +0.000 A 
ATOM     30  O   UNL     1      47.605   4.359  15.456  0.00  0.00    +0.000 OA
ATOM     31  C   UNL     1      49.008   5.365  17.074  0.00  0.00    +0.000 A 
ATOM     32  H   UNL     1      47.134   2.667  17.183  0.00  0.00    +0.000 HD
ENDBRANCH  19  22
ENDBRANCH   1  20
TORSDOF 6
ENDMDL
MODEL 2
REMARK VINA RESULT:    -7.808      2.332      2.954
REMARK INTER + INTRA:         -11.582
REMARK INTER:                 -10.680
REMARK INTRA:                  -0.902
REMARK UNBOUND:                -1.035
REMARK  Name = 
REMARK  6 active torsions:
REMARK  status: ('A' for Active; 'I' for Inactive)
REMARK    1  A    between atoms: C_2  and  C_20
REMARK    2  A    between atoms: N_3  and  C_4
REMARK    3  A    between atoms: C_4  and  C_5
REMARK    4  A    between atoms: C_8  and  C_9
REMARK    5  A    between atoms: C_9  and  N_10
REMARK    6  A    between atoms: C_11  and  C_13
REMARK                            x       y       z     vdW  Elec       q    Type
REMARK                         _______ _______ _______ _____ _____    ______ ____
ROOT
ATOM      1  C   UNL     1      46.857   4.334  15.729  0.00  0.00    +0.000 C 
ENDROOT
BRANCH   1   2
ATOM      2  C   UNL     1      46.598   4.779  14.311  0.00  0.00    +0.000 A 
ATOM      3  C   UNL     1      45.569   4.199  13.557  0.00  0.00    +0.000 A 
ATOM      4  C   UNL     1      45.278   4.658  12.267  0.00  0.00    +0.000 A 
ATOM      5  C   UNL     1      46.028   5.692  11.690  0.00  0.00    +0.000 A 
ATOM      6  C   UNL     1      47.072   6.257  12.436  0.00  0.00    +0.000 A 
ATOM      7  C   UNL     1      47.361   5.798  13.728  0.00  0.00    +0.000 A 
BRANCH   5   8
ATOM      8  C   UNL     1      45.720   6.195  10.301  0.00  0.00    +0.000 C 
BRANCH   8   9
ATOM      9  N   UNL     1      45.975   5.204   9.285  0.00  0.00    +0.000 N 
ATOM     10  C   UNL     1      44.962   4.385   8.815  0.00  0.00    +0.000 C 
ATOM     11  O   UNL     1      43.790   4.505   9.149  0.00  0.00    +0.000 OA
ATOM     12  H   UNL     1      46.923   4.876   9.123  0.00  0.00    +0.000 HD
BRANCH  10  13
ATOM     13  C   UNL     1      45.444   3.374   7.761  0.00  0.00    +0.000 C 
ATOM     14  C   UNL     1      45.918   2.057   8.359  0.00  0.00    +0.000 C 
ATOM     15  C   UNL     1      46.916   1.581   7.333  0.00  0.00    +0.000 C 
ATOM     16  C   UNL     1      47.552   2.879   6.890  0.00  0.00    +0.000 C 
ATOM     17  O   UNL     1      46.534   3.887   6.971  0.00  0.00    +0.000 OA
ENDBRANCH  10  13
ENDBRANCH   8   9
ENDBRANCH   5   8
ENDBRANCH   1   2
BRANCH   1  20
ATOM     18  O   UNL     1      48.005   5.246  18.062  0.00  0.00    +0.000 OA
ATOM     19  C   UNL     1      48.726   4.657  17.261  0.00  0.00    +0.000 C 
ATOM     20  N   UNL     1      48.259   4.224  16.041  0.00  0.00    +0.000 N 
ATOM     21  H   UNL     1      48.806   3.554  15.509  0.00  0.00    +0.000 HD
BRANCH  19  22
ATOM     22  C   UNL     1      50.145   4.418  17.553  0.00  0.00    +0.000 A 
ATOM     23  C   UNL     1      50.939   5.452  18.030  0.00  0.00    +0.000 A 
ATOM     24  S   UNL     1      52.555   4.991  18.326  0.00  0.00    +0.000 S 
ATOM     25  C   UNL     1      52.236   3.383  17.873  0.00  0.00    +0.000 A 
ATOM     26  N   UNL     1      53.204   2.430  17.941  0.00  0.00    +0.000 NA
ATOM     27  C   UNL     1      52.808   1.245  17.609  0.00  0.00    +0.000 A 
ATOM     28  N   UNL     1      51.540   0.931  17.201  0.00  0.00    +0.000 N 
ATOM     29  C   UNL     1      50.544   1.868  17.069  0.00  0.00    +0.000 A 
ATOM     30  O   UNL     1      49.439   1.570  16.628  0.00  0.00    +0.000 OA
ATOM     31  C   UNL     1      50.925   3.209  17.468  0.00  0.00    +0.000 A 
ATOM     32  H   UNL     1      51.301  -0.012  16.932  0.00  0.00    +0.000 HD
ENDBRANCH  19  22
ENDBRANCH   1  20
TORSDOF 6
ENDMDL
MODEL 3
REMARK VINA RESULT:    -7.535      2.131      3.770
REMARK INTER + INTRA:         -11.212
REMARK INTER:                 -10.168
REMARK INTRA:                  -1.044
REMARK UNBOUND:                -1.035
REMARK  Name = 
REMARK  6 active torsions:
REMARK  status: ('A' for Active; 'I' for Inactive)
REMARK    1  A    between atoms: C_2  and  C_20
REMARK    2  A    between atoms: N_3  and  C_4
REMARK    3  A    between atoms: C_4  and  C_5
REMARK    4  A    between atoms: C_8  and  C_9
REMARK    5  A    between atoms: C_9  and  N_10
REMARK    6  A    between atoms: C_11  and  C_13
REMARK                            x       y       z     vdW  Elec       q    Type
REMARK                         _______ _______ _______ _____ _____    ______ ____
ROOT
ATOM      1  C   UNL     1      47.080   4.592  15.024  0.00  0.00    +0.000 C 
ENDROOT
BRANCH   1   2
ATOM      2  C   UNL     1      46.215   4.557  13.788  0.00  0.00    +0.000 A 
ATOM      3  C   UNL     1      45.652   5.735  13.278  0.00  0.00    +0.000 A 
ATOM      4  C   UNL     1      44.909   5.719  12.090  0.00  0.00    +0.000 A 
ATOM      5  C   UNL     1      44.691   4.520  11.399  0.00  0.00    +0.000 A 
ATOM      6  C   UNL     1      45.236   3.339  11.922  0.00  0.00    +0.000 A 
ATOM      7  C   UNL     1      45.981   3.356  13.109  0.00  0.00    +0.000 A 
BRANCH   5   8
ATOM      8  C   UNL     1      43.893   4.493  10.119  0.00  0.00    +0.000 C 
BRANCH   8   9
ATOM      9  N   UNL     1      44.457   3.604   9.134  0.00  0.00    +0.000 N 
ATOM     10  C   UNL     1      45.487   4.015   8.306  0.00  0.00    +0.000 C 
ATOM     11  O   UNL     1      46.043   5.101   8.411  0.00  0.00    +0.000 OA
ATOM     12  H   UNL     1      43.926   2.797   8.818  0.00  0.00    +0.000 HD
BRANCH  10  13
ATOM     13  C   UNL     1      45.924   2.933   7.303  0.00  0.00    +0.000 C 
ATOM     14  C   UNL     1      46.362   1.635   7.967  0.00  0.00    +0.000 C 
ATOM     15  C   UNL     1      47.331   1.072   6.958  0.00  0.00    +0.000 C 
ATOM     16  C   UNL     1      48.004   2.322   6.439  0.00  0.00    +0.000 C 
ATOM     17  O   UNL     1      47.020   3.366   6.475  0.00  0.00    +0.000 OA
ENDBRANCH  10  13
ENDBRANCH   8   9
ENDBRANCH   5   8
ENDBRANCH   1   2
BRANCH   1  20
ATOM     18  O   UNL     1      49.209   4.971  16.732  0.00  0.00    +0.000 OA
ATOM     19  C   UNL     1      48.863   5.917  16.030  0.00  0.00    +0.000 C 
ATOM     20  N   UNL     1      47.770   5.845  15.196  0.00  0.00    +0.000 N 
ATOM     21  H   UNL     1      47.649   6.549  14.474  0.00  0.00    +0.000 HD
BRANCH  19  22
ATOM     22  C   UNL     1      49.581   7.196  16.076  0.00  0.00    +0.000 A 
ATOM     23  C   UNL     1      49.893   7.774  17.299  0.00  0.00    +0.000 A 
ATOM     24  S   UNL     1      50.739   9.250  17.162  0.00  0.00    +0.000 S 
ATOM     25  C   UNL     1      50.761   9.141  15.464  0.00  0.00    +0.000 A 
ATOM     26  N   UNL     1      51.386  10.085  14.710  0.00  0.00    +0.000 NA
ATOM     27  C   UNL     1      51.360   9.851  13.438  0.00  0.00    +0.000 A 
ATOM     28  N   UNL     1      50.753   8.772  12.855  0.00  0.00    +0.000 N 
ATOM     29  C   UNL     1      50.068   7.821  13.572  0.00  0.00    +0.000 A 
ATOM     30  O   UNL     1      49.469   6.907  13.015  0.00  0.00    +0.000 OA
ATOM     31  C   UNL     1      50.100   8.015  15.008  0.00  0.00    +0.000 A 
ATOM     32  H   UNL     1      50.749   8.660  11.851  0.00  0.00    +0.000 HD
ENDBRANCH  19  22
ENDBRANCH   1  20
TORSDOF 6
ENDMDL
MODEL 4
REMARK VINA RESULT:    -7.397      1.778      2.231
REMARK INTER + INTRA:         -11.026
REMARK INTER:                 -10.121
REMARK INTRA:                  -0.905
REMARK UNBOUND:                -1.035
REMARK  Name = 
REMARK  6 active torsions:
REMARK  status: ('A' for Active; 'I' for Inactive)
REMARK    1  A    between atoms: C_2  and  C_20
REMARK    2  A    between atoms: N_3  and  C_4
REMARK    3  A    between atoms: C_4  and  C_5
REMARK    4  A    between atoms: C_8  and  C_9
REMARK    5  A    between atoms: C_9  and  N_10
REMARK    6  A    between atoms: C_11  and  C_13
REMARK                            x       y       z     vdW  Elec       q    Type
REMARK                         _______ _______ _______ _____ _____    ______ ____
ROOT
ATOM      1  C   UNL     1      47.796   8.184  13.823  0.00  0.00    +0.000 C 
ENDROOT
BRANCH   1   2
ATOM      2  C   UNL     1      46.771   7.477  12.971  0.00  0.00    +0.000 A 
ATOM      3  C   UNL     1      46.832   6.088  12.786  0.00  0.00    +0.000 A 
ATOM      4  C   UNL     1      45.842   5.418  12.056  0.00  0.00    +0.000 A 
ATOM      5  C   UNL     1      44.782   6.124  11.473  0.00  0.00    +0.000 A 
ATOM      6  C   UNL     1      44.733   7.515  11.640  0.00  0.00    +0.000 A 
ATOM      7  C   UNL     1      45.723   8.185  12.371  0.00  0.00    +0.000 A 
BRANCH   5   8
ATOM      8  C   UNL     1      43.710   5.410  10.687  0.00  0.00    +0.000 C 
BRANCH   8   9
ATOM      9  N   UNL     1      44.231   4.743   9.520  0.00  0.00    +0.000 N 
ATOM     10  C   UNL     1      44.399   3.369   9.497  0.00  0.00    +0.000 C 
ATOM     11  O   UNL     1      44.038   2.631  10.405  0.00  0.00    +0.000 OA
ATOM     12  H   UNL     1      44.763   5.268   8.832  0.00  0.00    +0.000 HD
BRANCH  10  13
ATOM     13  C   UNL     1      44.999   2.857   8.176  0.00  0.00    +0.000 C 
ATOM     14  C   UNL     1      46.010   1.734   8.366  0.00  0.00    +0.000 C 
ATOM     15  C   UNL     1      46.899   1.898   7.159  0.00  0.00    +0.000 C 
ATOM     16  C   UNL     1      46.943   3.401   7.005  0.00  0.00    +0.000 C 
ATOM     17  O   UNL     1      45.670   3.898   7.441  0.00  0.00    +0.000 OA
ENDBRANCH  10  13
ENDBRANCH   8   9
ENDBRANCH   5   8
ENDBRANCH   1   2
BRANCH   1  20
ATOM     18  O   UNL     1      49.957   6.812  14.842  0.00  0.00    +0.000 OA
ATOM     19  C   UNL     1      49.019   7.047  15.600  0.00  0.00    +0.000 C 
ATOM     20  N   UNL     1      47.869   7.666  15.165  0.00  0.00    +0.000 N 
ATOM     21  H   UNL     1      47.220   8.044  15.849  0.00  0.00    +0.000 HD
BRANCH  19  22
ATOM     22  C   UNL     1      49.063   6.638  17.009  0.00  0.00    +0.000 A 
ATOM     23  C   UNL     1      49.595   5.405  17.358  0.00  0.00    +0.000 A 
ATOM     24  S   UNL     1      49.577   5.104  19.038  0.00  0.00    +0.000 S 
ATOM     25  C   UNL     1      48.902   6.633  19.359  0.00  0.00    +0.000 A 
ATOM     26  N   UNL     1      48.668   7.041  20.635  0.00  0.00    +0.000 NA
ATOM     27  C   UNL     1      48.193   8.241  20.730  0.00  0.00    +0.000 A 
ATOM     28  N   UNL     1      47.919   9.058  19.667  0.00  0.00    +0.000 N 
ATOM     29  C   UNL     1      48.093   8.670  18.361  0.00  0.00    +0.000 A 
ATOM     30  O   UNL     1      47.766   9.397  17.428  0.00  0.00    +0.000 OA
ATOM     31  C   UNL     1      48.661   7.346  18.199  0.00  0.00    +0.000 A 
ATOM     32  H   UNL     1      47.528   9.978  19.810  0.00  0.00    +0.000 HD
ENDBRANCH  19  22
ENDBRANCH   1  20
TORSDOF 6
ENDMDL
MODEL 5
REMARK VINA RESULT:    -7.389      2.373      3.152
REMARK INTER + INTRA:         -11.015
REMARK INTER:                 -10.219
REMARK INTRA:                  -0.795
REMARK UNBOUND:                -1.035
REMARK  Name = 
REMARK  6 active torsions:
REMARK  status: ('A' for Active; 'I' for Inactive)
REMARK    1  A    between atoms: C_2  and  C_20
REMARK    2  A    between atoms: N_3  and  C_4
REMARK    3  A    between atoms: C_4  and  C_5
REMARK    4  A    between atoms: C_8  and  C_9
REMARK    5  A    between atoms: C_9  and  N_10
REMARK    6  A    between atoms: C_11  and  C_13
REMARK                            x       y       z     vdW  Elec       q    Type
REMARK                         _______ _______ _______ _____ _____    ______ ____
ROOT
ATOM      1  C   UNL     1      47.199   4.321  15.077  0.00  0.00    +0.000 C 
ENDROOT
BRANCH   1   2
ATOM      2  C   UNL     1      46.400   4.424  13.801  0.00  0.00    +0.000 A 
ATOM      3  C   UNL     1      46.031   3.271  13.094  0.00  0.00    +0.000 A 
ATOM      4  C   UNL     1      45.228   3.357  11.950  0.00  0.00    +0.000 A 
ATOM      5  C   UNL     1      44.797   4.601  11.471  0.00  0.00    +0.000 A 
ATOM      6  C   UNL     1      45.184   5.756  12.165  0.00  0.00    +0.000 A 
ATOM      7  C   UNL     1      45.986   5.669  13.312  0.00  0.00    +0.000 A 
BRANCH   5   8
ATOM      8  C   UNL     1      43.930   4.703  10.240  0.00  0.00    +0.000 C 
BRANCH   8   9
ATOM      9  N   UNL     1      44.366   3.826   9.182  0.00  0.00    +0.000 N 
ATOM     10  C   UNL     1      45.413   4.178   8.347  0.00  0.00    +0.000 C 
ATOM     11  O   UNL     1      46.086   5.189   8.501  0.00  0.00    +0.000 OA
ATOM     12  H   UNL     1      43.742   3.103   8.834  0.00  0.00    +0.000 HD
BRANCH  10  13
ATOM     13  C   UNL     1      45.700   3.124   7.264  0.00  0.00    +0.000 C 
ATOM     14  C   UNL     1      46.427   1.896   7.793  0.00  0.00    +0.000 C 
ATOM     15  C   UNL     1      47.170   1.414   6.572  0.00  0.00    +0.000 C 
ATOM     16  C   UNL     1      47.555   2.715   5.907  0.00  0.00    +0.000 C 
ATOM     17  O   UNL     1      46.504   3.651   6.190  0.00  0.00    +0.000 OA
ENDBRANCH  10  13
ENDBRANCH   8   9
ENDBRANCH   5   8
ENDBRANCH   1   2
BRANCH   1  20
ATOM     18  O   UNL     1      49.396   4.793  16.671  0.00  0.00    +0.000 OA
ATOM     19  C   UNL     1      48.686   5.751  16.376  0.00  0.00    +0.000 C 
ATOM     20  N   UNL     1      47.531   5.604  15.641  0.00  0.00    +0.000 N 
ATOM     21  H   UNL     1      47.097   6.424  15.228  0.00  0.00    +0.000 HD
BRANCH  19  22
ATOM     22  C   UNL     1      49.015   7.107  16.832  0.00  0.00    +0.000 A 
ATOM     23  C   UNL     1      49.822   7.924  16.052  0.00  0.00    +0.000 A 
ATOM     24  S   UNL     1      50.088   9.468  16.730  0.00  0.00    +0.000 S 
ATOM     25  C   UNL     1      49.095   9.112  18.064  0.00  0.00    +0.000 A 
ATOM     26  N   UNL     1      48.854  10.044  19.026  0.00  0.00    +0.000 NA
ATOM     27  C   UNL     1      48.047   9.650  19.957  0.00  0.00    +0.000 A 
ATOM     28  N   UNL     1      47.475   8.408  20.020  0.00  0.00    +0.000 N 
ATOM     29  C   UNL     1      47.729   7.421  19.100  0.00  0.00    +0.000 A 
ATOM     30  O   UNL     1      47.262   6.293  19.225  0.00  0.00    +0.000 OA
ATOM     31  C   UNL     1      48.597   7.823  18.011  0.00  0.00    +0.000 A 
ATOM     32  H   UNL     1      46.871   8.156  20.788  0.00  0.00    +0.000 HD
ENDBRANCH  19  22
ENDBRANCH   1  20
TORSDOF 6
ENDMDL
MODEL 6
REMARK VINA RESULT:    -7.008      1.836      2.382
REMARK INTER + INTRA:         -10.501
REMARK INTER:                  -9.666
REMARK INTRA:                  -0.835
REMARK UNBOUND:                -1.035
REMARK  Name = 
REMARK  6 active torsions:
REMARK  status: ('A' for Active; 'I' for Inactive)
REMARK    1  A    between atoms: C_2  and  C_20
REMARK    2  A    between atoms: N_3  and  C_4
REMARK    3  A    between atoms: C_4  and  C_5
REMARK    4  A    between atoms: C_8  and  C_9
REMARK    5  A    between atoms: C_9  and  N_10
REMARK    6  A    between atoms: C_11  and  C_13
REMARK                            x       y       z     vdW  Elec       q    Type
REMARK                         _______ _______ _______ _____ _____    ______ ____
ROOT
ATOM      1  C   UNL     1      48.274   7.697  14.196  0.00  0.00    +0.000 C 
ENDROOT
BRANCH   1   2
ATOM      2  C   UNL     1      47.167   7.198  13.300  0.00  0.00    +0.000 A 
ATOM      3  C   UNL     1      46.895   5.827  13.198  0.00  0.00    +0.000 A 
ATOM      4  C   UNL     1      45.823   5.364  12.424  0.00  0.00    +0.000 A 
ATOM      5  C   UNL     1      45.014   6.261  11.714  0.00  0.00    +0.000 A 
ATOM      6  C   UNL     1      45.301   7.631  11.798  0.00  0.00    +0.000 A 
ATOM      7  C   UNL     1      46.372   8.093  12.574  0.00  0.00    +0.000 A 
BRANCH   5   8
ATOM      8  C   UNL     1      43.856   5.771  10.880  0.00  0.00    +0.000 C 
BRANCH   8   9
ATOM      9  N   UNL     1      44.284   5.008   9.734  0.00  0.00    +0.000 N 
ATOM     10  C   UNL     1      44.196   3.626   9.721  0.00  0.00    +0.000 C 
ATOM     11  O   UNL     1      43.675   2.977  10.620  0.00  0.00    +0.000 OA
ATOM     12  H   UNL     1      44.926   5.420   9.062  0.00  0.00    +0.000 HD
BRANCH  10  13
ATOM     13  C   UNL     1      44.734   2.999   8.424  0.00  0.00    +0.000 C 
ATOM     14  C   UNL     1      45.703   1.850   8.664  0.00  0.00    +0.000 C 
ATOM     15  C   UNL     1      46.561   1.891   7.425  0.00  0.00    +0.000 C 
ATOM     16  C   UNL     1      46.662   3.377   7.165  0.00  0.00    +0.000 C 
ATOM     17  O   UNL     1      45.425   3.958   7.600  0.00  0.00    +0.000 OA
ENDBRANCH  10  13
ENDBRANCH   8   9
ENDBRANCH   5   8
ENDBRANCH   1   2
BRANCH   1  20
ATOM     18  O   UNL     1      48.601   7.736  16.932  0.00  0.00    +0.000 OA
ATOM     19  C   UNL     1      48.967   6.731  16.325  0.00  0.00    +0.000 C 
ATOM     20  N   UNL     1      48.905   6.646  14.953  0.00  0.00    +0.000 N 
ATOM     21  H   UNL     1      48.997   5.738  14.507  0.00  0.00    +0.000 HD
BRANCH  19  22
ATOM     22  C   UNL     1      49.528   5.579  17.039  0.00  0.00    +0.000 A 
ATOM     23  C   UNL     1      48.685   4.606  17.558  0.00  0.00    +0.000 A 
ATOM     24  S   UNL     1      49.511   3.334  18.342  0.00  0.00    +0.000 S 
ATOM     25  C   UNL     1      51.024   4.016  17.971  0.00  0.00    +0.000 A 
ATOM     26  N   UNL     1      52.180   3.391  18.324  0.00  0.00    +0.000 NA
ATOM     27  C   UNL     1      53.253   4.002  17.940  0.00  0.00    +0.000 A 
ATOM     28  N   UNL     1      53.274   5.185  17.251  0.00  0.00    +0.000 N 
ATOM     29  C   UNL     1      52.135   5.876  16.918  0.00  0.00    +0.000 A 
ATOM     30  O   UNL     1      52.188   6.973  16.369  0.00  0.00    +0.000 OA
ATOM     31  C   UNL     1      50.900   5.214  17.292  0.00  0.00    +0.000 A 
ATOM     32  H   UNL     1      54.149   5.623  17.001  0.00  0.00    +0.000 HD
ENDBRANCH  19  22
ENDBRANCH   1  20
TORSDOF 6
ENDMDL
MODEL 7
REMARK VINA RESULT:    -6.945      2.307      3.399
REMARK INTER + INTRA:         -10.416
REMARK INTER:                  -9.681
REMARK INTRA:                  -0.735
REMARK UNBOUND:                -1.035
REMARK  Name = 
REMARK  6 active torsions:
REMARK  status: ('A' for Active; 'I' for Inactive)
REMARK    1  A    between atoms: C_2  and  C_20
REMARK    2  A    between atoms: N_3  and  C_4
REMARK    3  A    between atoms: C_4  and  C_5
REMARK    4  A    between atoms: C_8  and  C_9
REMARK    5  A    between atoms: C_9  and  N_10
REMARK    6  A    between atoms: C_11  and  C_13
REMARK                            x       y       z     vdW  Elec       q    Type
REMARK                         _______ _______ _______ _____ _____    ______ ____
ROOT
ATOM      1  C   UNL     1      47.192   4.723  15.093  0.00  0.00    +0.000 C 
ENDROOT
BRANCH   1   2
ATOM      2  C   UNL     1      46.402   4.697  13.808  0.00  0.00    +0.000 A 
ATOM      3  C   UNL     1      46.035   3.478  13.220  0.00  0.00    +0.000 A 
ATOM      4  C   UNL     1      45.240   3.448  12.068  0.00  0.00    +0.000 A 
ATOM      5  C   UNL     1      44.814   4.638  11.461  0.00  0.00    +0.000 A 
ATOM      6  C   UNL     1      45.200   5.856  12.037  0.00  0.00    +0.000 A 
ATOM      7  C   UNL     1      45.994   5.886  13.191  0.00  0.00    +0.000 A 
BRANCH   5   8
ATOM      8  C   UNL     1      43.957   4.615  10.220  0.00  0.00    +0.000 C 
BRANCH   8   9
ATOM      9  N   UNL     1      44.454   3.703   9.221  0.00  0.00    +0.000 N 
ATOM     10  C   UNL     1      45.482   4.068   8.367  0.00  0.00    +0.000 C 
ATOM     11  O   UNL     1      46.090   5.127   8.460  0.00  0.00    +0.000 OA
ATOM     12  H   UNL     1      43.879   2.922   8.916  0.00  0.00    +0.000 HD
BRANCH  10  13
ATOM     13  C   UNL     1      45.842   2.969   7.353  0.00  0.00    +0.000 C 
ATOM     14  C   UNL     1      46.291   1.668   8.004  0.00  0.00    +0.000 C 
ATOM     15  C   UNL     1      47.194   1.078   6.950  0.00  0.00    +0.000 C 
ATOM     16  C   UNL     1      47.861   2.311   6.384  0.00  0.00    +0.000 C 
ATOM     17  O   UNL     1      46.901   3.374   6.463  0.00  0.00    +0.000 OA
ENDBRANCH  10  13
ENDBRANCH   8   9
ENDBRANCH   5   8
ENDBRANCH   1   2
BRANCH   1  20
ATOM     18  O   UNL     1      48.635   5.323  17.362  0.00  0.00    +0.000 OA
ATOM     19  C   UNL     1      48.602   6.163  16.465  0.00  0.00    +0.000 C 
ATOM     20  N   UNL     1      47.853   5.981  15.325  0.00  0.00    +0.000 N 
ATOM     21  H   UNL     1      48.023   6.576  14.519  0.00  0.00    +0.000 HD
BRANCH  19  22
ATOM     22  C   UNL     1      49.333   7.429  16.586  0.00  0.00    +0.000 A 
ATOM     23  C   UNL     1      48.640   8.631  16.628  0.00  0.00    +0.000 A 
ATOM     24  S   UNL     1      49.650   9.997  16.784  0.00  0.00    +0.000 S 
ATOM     25  C   UNL     1      51.045   9.026  16.850  0.00  0.00    +0.000 A 
ATOM     26  N   UNL     1      52.275   9.578  17.026  0.00  0.00    +0.000 NA
ATOM     27  C   UNL     1      53.238   8.718  17.101  0.00  0.00    +0.000 A 
ATOM     28  N   UNL     1      53.083   7.362  16.999  0.00  0.00    +0.000 N 
ATOM     29  C   UNL     1      51.867   6.764  16.771  0.00  0.00    +0.000 A 
ATOM     30  O   UNL     1      51.771   5.551  16.607  0.00  0.00    +0.000 OA
ATOM     31  C   UNL     1      50.747   7.682  16.718  0.00  0.00    +0.000 A 
ATOM     32  H   UNL     1      53.881   6.745  17.043  0.00  0.00    +0.000 HD
ENDBRANCH  19  22
ENDBRANCH   1  20
TORSDOF 6
ENDMDL
MODEL 8
REMARK VINA RESULT:    -6.876      3.982      8.686
REMARK INTER + INTRA:         -10.323
REMARK INTER:                  -9.419
REMARK INTRA:                  -0.903
REMARK UNBOUND:                -1.035
REMARK  Name = 
REMARK  6 active torsions:
REMARK  status: ('A' for Active; 'I' for Inactive)
REMARK    1  A    between atoms: C_2  and  C_20
REMARK    2  A    between atoms: N_3  and  C_4
REMARK    3  A    between atoms: C_4  and  C_5
REMARK    4  A    between atoms: C_8  and  C_9
REMARK    5  A    between atoms: C_9  and  N_10
REMARK    6  A    between atoms: C_11  and  C_13
REMARK                            x       y       z     vdW  Elec       q    Type
REMARK                         _______ _______ _______ _____ _____    ______ ____
ROOT
ATOM      1  C   UNL     1      48.343   7.479  14.708  0.00  0.00    +0.000 C 
ENDROOT
BRANCH   1   2
ATOM      2  C   UNL     1      48.761   6.419  15.697  0.00  0.00    +0.000 A 
ATOM      3  C   UNL     1      47.907   5.350  16.000  0.00  0.00    +0.000 A 
ATOM      4  C   UNL     1      48.319   4.325  16.861  0.00  0.00    +0.000 A 
ATOM      5  C   UNL     1      49.586   4.359  17.459  0.00  0.00    +0.000 A 
ATOM      6  C   UNL     1      50.431   5.441  17.174  0.00  0.00    +0.000 A 
ATOM      7  C   UNL     1      50.019   6.465  16.310  0.00  0.00    +0.000 A 
BRANCH   5   8
ATOM      8  C   UNL     1      50.039   3.259  18.387  0.00  0.00    +0.000 C 
BRANCH   8   9
ATOM      9  N   UNL     1      51.451   2.990  18.279  0.00  0.00    +0.000 N 
ATOM     10  C   UNL     1      51.915   1.835  17.672  0.00  0.00    +0.000 C 
ATOM     11  O   UNL     1      51.182   1.027  17.114  0.00  0.00    +0.000 OA
ATOM     12  H   UNL     1      52.105   3.461  18.898  0.00  0.00    +0.000 HD
BRANCH  10  13
ATOM     13  C   UNL     1      53.448   1.718  17.689  0.00  0.00    +0.000 C 
ATOM     14  C   UNL     1      53.972   0.512  16.923  0.00  0.00    +0.000 C 
ATOM     15  C   UNL     1      55.275   0.227  17.626  0.00  0.00    +0.000 C 
ATOM     16  C   UNL     1      54.932   0.551  19.062  0.00  0.00    +0.000 C 
ATOM     17  O   UNL     1      53.973   1.618  19.027  0.00  0.00    +0.000 OA
ENDBRANCH  10  13
ENDBRANCH   8   9
ENDBRANCH   5   8
ENDBRANCH   1   2
BRANCH   1  20
ATOM     18  O   UNL     1      48.079   6.288  12.238  0.00  0.00    +0.000 OA
ATOM     19  C   UNL     1      47.053   6.541  12.864  0.00  0.00    +0.000 C 
ATOM     20  N   UNL     1      47.081   7.195  14.075  0.00  0.00    +0.000 N 
ATOM     21  H   UNL     1      46.253   7.187  14.663  0.00  0.00    +0.000 HD
BRANCH  19  22
ATOM     22  C   UNL     1      45.733   6.191  12.328  0.00  0.00    +0.000 A 
ATOM     23  C   UNL     1      44.953   7.161  11.713  0.00  0.00    +0.000 A 
ATOM     24  S   UNL     1      43.458   6.572  11.139  0.00  0.00    +0.000 S 
ATOM     25  C   UNL     1      43.824   4.990  11.648  0.00  0.00    +0.000 A 
ATOM     26  N   UNL     1      42.964   3.963  11.414  0.00  0.00    +0.000 NA
ATOM     27  C   UNL     1      43.391   2.810  11.817  0.00  0.00    +0.000 A 
ATOM     28  N   UNL     1      44.589   2.598  12.444  0.00  0.00    +0.000 N 
ATOM     29  C   UNL     1      45.466   3.612  12.745  0.00  0.00    +0.000 A 
ATOM     30  O   UNL     1      46.496   3.400  13.376  0.00  0.00    +0.000 OA
ATOM     31  C   UNL     1      45.052   4.921  12.279  0.00  0.00    +0.000 A 
ATOM     32  H   UNL     1      44.853   1.674  12.755  0.00  0.00    +0.000 HD
ENDBRANCH  19  22
ENDBRANCH   1  20
TORSDOF 6
ENDMDL
MODEL 9
REMARK VINA RESULT:    -6.812      2.913      4.519
REMARK INTER + INTRA:         -10.235
REMARK INTER:                  -9.114
REMARK INTRA:                  -1.122
REMARK UNBOUND:                -1.035
REMARK  Name = 
REMARK  6 active torsions:
REMARK  status: ('A' for Active; 'I' for Inactive)
REMARK    1  A    between atoms: C_2  and  C_20
REMARK    2  A    between atoms: N_3  and  C_4
REMARK    3  A    between atoms: C_4  and  C_5
REMARK    4  A    between atoms: C_8  and  C_9
REMARK    5  A    between atoms: C_9  and  N_10
REMARK    6  A    between atoms: C_11  and  C_13
REMARK                            x       y       z     vdW  Elec       q    Type
REMARK                         _______ _______ _______ _____ _____    ______ ____
ROOT
ATOM      1  C   UNL     1      47.922   6.282  14.581  0.00  0.00    +0.000 C 
ENDROOT
BRANCH   1   2
ATOM      2  C   UNL     1      46.961   5.923  13.475  0.00  0.00    +0.000 A 
ATOM      3  C   UNL     1      46.084   4.839  13.615  0.00  0.00    +0.000 A 
ATOM      4  C   UNL     1      45.140   4.546  12.622  0.00  0.00    +0.000 A 
ATOM      5  C   UNL     1      45.070   5.316  11.454  0.00  0.00    +0.000 A 
ATOM      6  C   UNL     1      45.963   6.386  11.303  0.00  0.00    +0.000 A 
ATOM      7  C   UNL     1      46.905   6.680  12.298  0.00  0.00    +0.000 A 
BRANCH   5   8
ATOM      8  C   UNL     1      44.056   5.009  10.380  0.00  0.00    +0.000 C 
BRANCH   8   9
ATOM      9  N   UNL     1      44.648   4.389   9.220  0.00  0.00    +0.000 N 
ATOM     10  C   UNL     1      44.748   3.012   9.118  0.00  0.00    +0.000 C 
ATOM     11  O   UNL     1      44.269   2.240   9.939  0.00  0.00    +0.000 OA
ATOM     12  H   UNL     1      45.266   4.927   8.619  0.00  0.00    +0.000 HD
BRANCH  10  13
ATOM     13  C   UNL     1      45.440   2.552   7.824  0.00  0.00    +0.000 C 
ATOM     14  C   UNL     1      46.339   1.338   8.017  0.00  0.00    +0.000 C 
ATOM     15  C   UNL     1      47.357   1.517   6.919  0.00  0.00    +0.000 C 
ATOM     16  C   UNL     1      47.530   3.018   6.895  0.00  0.00    +0.000 C 
ATOM     17  O   UNL     1      46.260   3.586   7.246  0.00  0.00    +0.000 OA
ENDBRANCH  10  13
ENDBRANCH   8   9
ENDBRANCH   5   8
ENDBRANCH   1   2
BRANCH   1  20
ATOM     18  O   UNL     1      50.472   6.603  15.574  0.00  0.00    +0.000 OA
ATOM     19  C   UNL     1      50.076   7.415  14.742  0.00  0.00    +0.000 C 
ATOM     20  N   UNL     1      48.795   7.376  14.239  0.00  0.00    +0.000 N 
ATOM     21  H   UNL     1      48.574   7.907  13.402  0.00  0.00    +0.000 HD
BRANCH  19  22
ATOM     22  C   UNL     1      50.944   8.499  14.269  0.00  0.00    +0.000 A 
ATOM     23  C   UNL     1      51.565   9.340  15.182  0.00  0.00    +0.000 A 
ATOM     24  S   UNL     1      52.545  10.533  14.455  0.00  0.00    +0.000 S 
ATOM     25  C   UNL     1      52.212   9.935  12.898  0.00  0.00    +0.000 A 
ATOM     26  N   UNL     1      52.786  10.489  11.797  0.00  0.00    +0.000 NA
ATOM     27  C   UNL     1      52.476   9.906  10.685  0.00  0.00    +0.000 A 
ATOM     28  N   UNL     1      51.633   8.833  10.575  0.00  0.00    +0.000 N 
ATOM     29  C   UNL     1      50.992   8.272  11.653  0.00  0.00    +0.000 A 
ATOM     30  O   UNL     1      50.183   7.360  11.513  0.00  0.00    +0.000 OA
ATOM     31  C   UNL     1      51.336   8.865  12.930  0.00  0.00    +0.000 A 
ATOM     32  H   UNL     1      51.414   8.438   9.672  0.00  0.00    +0.000 HD
ENDBRANCH  19  22
ENDBRANCH   1  20
TORSDOF 6
ENDMDL
