MODEL 1
REMARK VINA RESULT:    -7.942      0.000      0.000
REMARK INTER + INTRA:         -11.828
REMARK INTER:                 -10.727
REMARK INTRA:                  -1.101
REMARK UNBOUND:                -1.101
REMARK  Name = 
REMARK  6 active torsions:
REMARK  status: ('A' for Active; 'I' for Inactive)
REMARK    1  A    between atoms: C_2  and  C_25
REMARK    2  A    between atoms: N_3  and  C_4
REMARK    3  A    between atoms: C_4  and  C_5
REMARK    4  A    between atoms: C_8  and  C_9
REMARK    5  A    between atoms: C_9  and  N_10
REMARK    6  A    between atoms: C_11  and  C_13
REMARK                            x       y       z     vdW  Elec       q    Type
REMARK                         _______ _______ _______ _____ _____    ______ ____
ROOT
ATOM      1  C   UNL     1      44.935   5.660  10.852  0.00  0.00    +0.000 A 
ATOM      2  C   UNL     1      46.263   6.029  10.592  0.00  0.00    +0.000 A 
ATOM      3  C   UNL     1      46.955   6.866  11.472  0.00  0.00    +0.000 A 
ATOM      4  C   UNL     1      46.340   7.336  12.640  0.00  0.00    +0.000 A 
ATOM      5  C   UNL     1      45.007   6.983  12.889  0.00  0.00    +0.000 A 
ATOM      6  C   UNL     1      44.316   6.144  12.010  0.00  0.00    +0.000 A 
ENDROOT
BRANCH   1   7
ATOM      7  C   UNL     1      44.197   4.743   9.914  0.00  0.00    +0.000 C 
BRANCH   7  10
ATOM      8  O   UNL     1      44.727   2.056   9.575  0.00  0.00    +0.000 OA
ATOM      9  C   UNL     1      45.284   2.840   8.810  0.00  0.00    +0.000 C 
ATOM     10  N   UNL     1      45.076   4.201   8.908  0.00  0.00    +0.000 N 
ATOM     11  H   UNL     1      45.513   4.821   8.240  0.00  0.00    +0.000 HD
BRANCH   9  12
ATOM     12  C   UNL     1      46.181   2.399   7.760  0.00  0.00    +0.000 A 
ATOM     13  C   UNL     1      46.804   1.169   7.663  0.00  0.00    +0.000 A 
ATOM     14  N   UNL     1      47.632   0.993   6.569  0.00  0.00    +0.000 NA
ATOM     15  C   UNL     1      47.631   2.091   5.850  0.00  0.00    +0.000 A 
ATOM     16  S   UNL     1      46.647   3.374   6.427  0.00  0.00    +0.000 S 
ENDBRANCH   9  12
ENDBRANCH   7  10
ENDBRANCH   1   7
BRANCH   4  17
ATOM     17  C   UNL     1      47.074   8.251  13.588  0.00  0.00    +0.000 C 
BRANCH  17  18
ATOM     18  N   UNL     1      47.543   7.523  14.738  0.00  0.00    +0.000 N 
ATOM     19  C   UNL     1      48.774   6.920  14.755  0.00  0.00    +0.000 C 
ATOM     20  O   UNL     1      49.561   7.014  13.817  0.00  0.00    +0.000 OA
ATOM     21  H   UNL     1      46.840   7.233  15.408  0.00  0.00    +0.000 HD
BRANCH  19  22
ATOM     22  C   UNL     1      49.132   6.209  15.991  0.00  0.00    +0.000 A 
ATOM     23  C   UNL     1      50.212   6.638  16.748  0.00  0.00    +0.000 A 
ATOM     24  S   UNL     1      50.428   5.753  18.190  0.00  0.00    +0.000 S 
ATOM     25  C   UNL     1      49.121   4.727  17.824  0.00  0.00    +0.000 A 
ATOM     26  N   UNL     1      48.766   3.717  18.662  0.00  0.00    +0.000 NA
ATOM     27  C   UNL     1      47.778   2.998  18.244  0.00  0.00    +0.000 A 
ATOM     28  N   UNL     1      47.113   3.198  17.063  0.00  0.00    +0.000 N 
ATOM     29  C   UNL     1      47.423   4.216  16.195  0.00  0.00    +0.000 A 
ATOM     30  O   UNL     1      46.791   4.381  15.156  0.00  0.00    +0.000 OA
ATOM     31  C   UNL     1      48.526   5.059  16.620  0.00  0.00    +0.000 A 
ATOM     32  H   UNL     1      46.348   2.599  16.791  0.00  0.00    +0.000 HD
ENDBRANCH  19  22
ENDBRANCH  17  18
ENDBRANCH   4  17
TORSDOF 6
ENDMDL
MODEL 2
REMARK VINA RESULT:    -7.281      1.905      2.286
REMARK INTER + INTRA:         -10.936
REMARK INTER:                 -10.066
REMARK INTRA:                  -0.870
REMARK UNBOUND:                -1.101
REMARK  Name = 
REMARK  6 active torsions:
REMARK  status: ('A' for Active; 'I' for Inactive)
REMARK    1  A    between atoms: C_2  and  C_25
REMARK    2  A    between atoms: N_3  and  C_4
REMARK    3  A    between atoms: C_4  and  C_5
REMARK    4  A    between atoms: C_8  and  C_9
REMARK    5  A    between atoms: C_9  and  N_10
REMARK    6  A    between atoms: C_11  and  C_13
REMARK                            x       y       z     vdW  Elec       q    Type
REMARK                         _______ _______ _______ _____ _____    ______ ____
ROOT
ATOM      1  C   UNL     1      44.805   4.940  11.718  0.00  0.00    +0.000 A 
ATOM      2  C   UNL     1      44.129   6.127  11.405  0.00  0.00    +0.000 A 
ATOM      3  C   UNL     1      44.654   7.367  11.779  0.00  0.00    +0.000 A 
ATOM      4  C   UNL     1      45.878   7.448  12.456  0.00  0.00    +0.000 A 
ATOM      5  C   UNL     1      46.545   6.260  12.786  0.00  0.00    +0.000 A 
ATOM      6  C   UNL     1      46.020   5.020  12.410  0.00  0.00    +0.000 A 
ENDROOT
BRANCH   1   7
ATOM      7  C   UNL     1      44.249   3.606  11.298  0.00  0.00    +0.000 C 
BRANCH   7  10
ATOM      8  O   UNL     1      44.202   4.050   8.575  0.00  0.00    +0.000 OA
ATOM      9  C   UNL     1      45.019   3.236   8.999  0.00  0.00    +0.000 C 
ATOM     10  N   UNL     1      45.112   2.953  10.346  0.00  0.00    +0.000 N 
ATOM     11  H   UNL     1      45.821   2.311  10.673  0.00  0.00    +0.000 HD
BRANCH   9  12
ATOM     12  C   UNL     1      45.938   2.529   8.127  0.00  0.00    +0.000 A 
ATOM     13  C   UNL     1      46.187   1.169   8.111  0.00  0.00    +0.000 A 
ATOM     14  N   UNL     1      47.124   0.735   7.191  0.00  0.00    +0.000 NA
ATOM     15  C   UNL     1      47.579   1.769   6.521  0.00  0.00    +0.000 A 
ATOM     16  S   UNL     1      46.912   3.295   6.941  0.00  0.00    +0.000 S 
ENDBRANCH   9  12
ENDBRANCH   7  10
ENDBRANCH   1   7
BRANCH   4  17
ATOM     17  C   UNL     1      46.446   8.780  12.875  0.00  0.00    +0.000 C 
BRANCH  17  18
ATOM     18  N   UNL     1      46.848   8.750  14.258  0.00  0.00    +0.000 N 
ATOM     19  C   UNL     1      48.167   8.809  14.625  0.00  0.00    +0.000 C 
ATOM     20  O   UNL     1      49.069   8.943  13.801  0.00  0.00    +0.000 OA
ATOM     21  H   UNL     1      46.163   8.404  14.921  0.00  0.00    +0.000 HD
BRANCH  19  22
ATOM     22  C   UNL     1      48.442   8.770  16.068  0.00  0.00    +0.000 A 
ATOM     23  C   UNL     1      48.416   9.942  16.809  0.00  0.00    +0.000 A 
ATOM     24  S   UNL     1      48.671   9.701  18.478  0.00  0.00    +0.000 S 
ATOM     25  C   UNL     1      48.883   8.026  18.261  0.00  0.00    +0.000 A 
ATOM     26  N   UNL     1      49.150   7.210  19.316  0.00  0.00    +0.000 NA
ATOM     27  C   UNL     1      49.321   5.970  19.001  0.00  0.00    +0.000 A 
ATOM     28  N   UNL     1      49.248   5.471  17.727  0.00  0.00    +0.000 N 
ATOM     29  C   UNL     1      48.962   6.252  16.635  0.00  0.00    +0.000 A 
ATOM     30  O   UNL     1      48.882   5.768  15.510  0.00  0.00    +0.000 OA
ATOM     31  C   UNL     1      48.757   7.657  16.934  0.00  0.00    +0.000 A 
ATOM     32  H   UNL     1      49.392   4.488  17.546  0.00  0.00    +0.000 HD
ENDBRANCH  19  22
ENDBRANCH  17  18
ENDBRANCH   4  17
TORSDOF 6
ENDMDL
MODEL 3
REMARK VINA RESULT:    -7.222      1.315      1.405
REMARK INTER + INTRA:         -10.856
REMARK INTER:                 -10.153
REMARK INTRA:                  -0.703
REMARK UNBOUND:                -1.101
REMARK  Name = 
REMARK  6 active torsions:
REMARK  status: ('A' for Active; 'I' for Inactive)
REMARK    1  A    between atoms: C_2  and  C_25
REMARK    2  A    between atoms: N_3  and  C_4
REMARK    3  A    between atoms: C_4  and  C_5
REMARK    4  A    between atoms: C_8  and  C_9
REMARK    5  A    between atoms: C_9  and  N_10
REMARK    6  A    between atoms: C_11  and  C_13
REMARK                            x       y       z     vdW  Elec       q    Type
REMARK                         _______ _______ _______ _____ _____    ______ ____
ROOT
ATOM      1  C   UNL     1      45.017   4.998  11.674  0.00  0.00    +0.000 A 
ATOM      2  C   UNL     1      45.916   4.713  12.711  0.00  0.00    +0.000 A 
ATOM      3  C   UNL     1      46.672   5.731  13.299  0.00  0.00    +0.000 A 
ATOM      4  C   UNL     1      46.530   7.059  12.877  0.00  0.00    +0.000 A 
ATOM      5  C   UNL     1      45.646   7.341  11.826  0.00  0.00    +0.000 A 
ATOM      6  C   UNL     1      44.889   6.323  11.239  0.00  0.00    +0.000 A 
ENDROOT
BRANCH   1   7
ATOM      7  C   UNL     1      44.190   3.905  11.053  0.00  0.00    +0.000 C 
BRANCH   7  10
ATOM      8  O   UNL     1      44.635   4.396   8.374  0.00  0.00    +0.000 OA
ATOM      9  C   UNL     1      45.156   3.392   8.856  0.00  0.00    +0.000 C 
ATOM     10  N   UNL     1      44.986   3.070  10.188  0.00  0.00    +0.000 N 
ATOM     11  H   UNL     1      45.458   2.263  10.569  0.00  0.00    +0.000 HD
BRANCH   9  12
ATOM     12  C   UNL     1      45.980   2.490   8.075  0.00  0.00    +0.000 A 
ATOM     13  C   UNL     1      46.056   1.115   8.202  0.00  0.00    +0.000 A 
ATOM     14  N   UNL     1      46.933   0.475   7.345  0.00  0.00    +0.000 NA
ATOM     15  C   UNL     1      47.516   1.370   6.581  0.00  0.00    +0.000 A 
ATOM     16  S   UNL     1      47.046   3.002   6.833  0.00  0.00    +0.000 S 
ENDBRANCH   9  12
ENDBRANCH   7  10
ENDBRANCH   1   7
BRANCH   4  17
ATOM     17  C   UNL     1      47.351   8.161  13.496  0.00  0.00    +0.000 C 
BRANCH  17  18
ATOM     18  N   UNL     1      47.667   7.853  14.866  0.00  0.00    +0.000 N 
ATOM     19  C   UNL     1      48.852   7.257  15.215  0.00  0.00    +0.000 C 
ATOM     20  O   UNL     1      49.725   7.006  14.388  0.00  0.00    +0.000 OA
ATOM     21  H   UNL     1      46.889   7.827  15.516  0.00  0.00    +0.000 HD
BRANCH  19  22
ATOM     22  C   UNL     1      49.051   6.997  16.647  0.00  0.00    +0.000 A 
ATOM     23  C   UNL     1      49.491   8.014  17.481  0.00  0.00    +0.000 A 
ATOM     24  S   UNL     1      49.583   7.560  19.122  0.00  0.00    +0.000 S 
ATOM     25  C   UNL     1      49.094   5.969  18.768  0.00  0.00    +0.000 A 
ATOM     26  N   UNL     1      48.976   5.036  19.751  0.00  0.00    +0.000 NA
ATOM     27  C   UNL     1      48.629   3.864  19.335  0.00  0.00    +0.000 A 
ATOM     28  N   UNL     1      48.389   3.540  18.025  0.00  0.00    +0.000 N 
ATOM     29  C   UNL     1      48.476   4.452  17.003  0.00  0.00    +0.000 A 
ATOM     30  O   UNL     1      48.231   4.133  15.844  0.00  0.00    +0.000 OA
ATOM     31  C   UNL     1      48.860   5.789  17.417  0.00  0.00    +0.000 A 
ATOM     32  H   UNL     1      48.121   2.603  17.764  0.00  0.00    +0.000 HD
ENDBRANCH  19  22
ENDBRANCH  17  18
ENDBRANCH   4  17
TORSDOF 6
ENDMDL
MODEL 4
REMARK VINA RESULT:    -6.976      1.886      2.214
REMARK INTER + INTRA:         -10.524
REMARK INTER:                  -9.547
REMARK INTRA:                  -0.976
REMARK UNBOUND:                -1.101
REMARK  Name = 
REMARK  6 active torsions:
REMARK  status: ('A' for Active; 'I' for Inactive)
REMARK    1  A    between atoms: C_2  and  C_25
REMARK    2  A    between atoms: N_3  and  C_4
REMARK    3  A    between atoms: C_4  and  C_5
REMARK    4  A    between atoms: C_8  and  C_9
REMARK    5  A    between atoms: C_9  and  N_10
REMARK    6  A    between atoms: C_11  and  C_13
REMARK                            x       y       z     vdW  Elec       q    Type
REMARK                         _______ _______ _______ _____ _____    ______ ____
ROOT
ATOM      1  C   UNL     1      45.226   4.487  11.974  0.00  0.00    +0.000 A 
ATOM      2  C   UNL     1      45.193   5.809  11.510  0.00  0.00    +0.000 A 
ATOM      3  C   UNL     1      45.946   6.804  12.140  0.00  0.00    +0.000 A 
ATOM      4  C   UNL     1      46.763   6.493  13.235  0.00  0.00    +0.000 A 
ATOM      5  C   UNL     1      46.780   5.175  13.711  0.00  0.00    +0.000 A 
ATOM      6  C   UNL     1      46.028   4.180  13.079  0.00  0.00    +0.000 A 
ENDROOT
BRANCH   1   7
ATOM      7  C   UNL     1      44.430   3.412  11.284  0.00  0.00    +0.000 C 
BRANCH   7  10
ATOM      8  O   UNL     1      44.384   4.069   8.604  0.00  0.00    +0.000 OA
ATOM      9  C   UNL     1      45.123   3.149   8.945  0.00  0.00    +0.000 C 
ATOM     10  N   UNL     1      45.209   2.754  10.264  0.00  0.00    +0.000 N 
ATOM     11  H   UNL     1      45.855   2.022  10.525  0.00  0.00    +0.000 HD
BRANCH   9  12
ATOM     12  C   UNL     1      45.953   2.426   8.001  0.00  0.00    +0.000 A 
ATOM     13  C   UNL     1      46.256   1.077   8.025  0.00  0.00    +0.000 A 
ATOM     14  N   UNL     1      47.087   0.624   7.016  0.00  0.00    +0.000 NA
ATOM     15  C   UNL     1      47.409   1.634   6.240  0.00  0.00    +0.000 A 
ATOM     16  S   UNL     1      46.737   3.156   6.661  0.00  0.00    +0.000 S 
ENDBRANCH   9  12
ENDBRANCH   7  10
ENDBRANCH   1   7
BRANCH   4  17
ATOM     17  C   UNL     1      47.568   7.562  13.930  0.00  0.00    +0.000 C 
BRANCH  17  18
ATOM     18  N   UNL     1      48.757   7.003  14.519  0.00  0.00    +0.000 N 
ATOM     19  C   UNL     1      49.517   7.711  15.414  0.00  0.00    +0.000 C 
ATOM     20  O   UNL     1      49.197   8.831  15.800  0.00  0.00    +0.000 OA
ATOM     21  H   UNL     1      49.163   6.203  14.047  0.00  0.00    +0.000 HD
BRANCH  19  22
ATOM     22  C   UNL     1      50.706   7.025  15.941  0.00  0.00    +0.000 A 
ATOM     23  C   UNL     1      51.971   7.512  15.651  0.00  0.00    +0.000 A 
ATOM     24  S   UNL     1      53.227   6.646  16.414  0.00  0.00    +0.000 S 
ATOM     25  C   UNL     1      52.126   5.553  17.113  0.00  0.00    +0.000 A 
ATOM     26  N   UNL     1      52.556   4.530  17.899  0.00  0.00    +0.000 NA
ATOM     27  C   UNL     1      51.616   3.760  18.335  0.00  0.00    +0.000 A 
ATOM     28  N   UNL     1      50.284   3.920  18.056  0.00  0.00    +0.000 N 
ATOM     29  C   UNL     1      49.802   4.949  17.285  0.00  0.00    +0.000 A 
ATOM     30  O   UNL     1      48.600   5.076  17.074  0.00  0.00    +0.000 OA
ATOM     31  C   UNL     1      50.818   5.848  16.772  0.00  0.00    +0.000 A 
ATOM     32  H   UNL     1      49.596   3.282  18.427  0.00  0.00    +0.000 HD
ENDBRANCH  19  22
ENDBRANCH  17  18
ENDBRANCH   4  17
TORSDOF 6
ENDMDL
MODEL 5
REMARK VINA RESULT:    -6.681      2.819      3.360
REMARK INTER + INTRA:         -10.126
REMARK INTER:                  -9.485
REMARK INTRA:                  -0.641
REMARK UNBOUND:                -1.101
REMARK  Name = 
REMARK  6 active torsions:
REMARK  status: ('A' for Active; 'I' for Inactive)
REMARK    1  A    between atoms: C_2  and  C_25
REMARK    2  A    between atoms: N_3  and  C_4
REMARK    3  A    between atoms: C_4  and  C_5
REMARK    4  A    between atoms: C_8  and  C_9
REMARK    5  A    between atoms: C_9  and  N_10
REMARK    6  A    between atoms: C_11  and  C_13
REMARK                            x       y       z     vdW  Elec       q    Type
REMARK                         _______ _______ _______ _____ _____    ______ ____
ROOT
ATOM      1  C   UNL     1      44.572   4.575  11.644  0.00  0.00    +0.000 A 
ATOM      2  C   UNL     1      44.075   5.790  11.153  0.00  0.00    +0.000 A 
ATOM      3  C   UNL     1      44.551   7.008  11.649  0.00  0.00    +0.000 A 
ATOM      4  C   UNL     1      45.550   7.036  12.631  0.00  0.00    +0.000 A 
ATOM      5  C   UNL     1      46.034   5.820  13.134  0.00  0.00    +0.000 A 
ATOM      6  C   UNL     1      45.558   4.603  12.638  0.00  0.00    +0.000 A 
ENDROOT
BRANCH   1   7
ATOM      7  C   UNL     1      44.073   3.265  11.098  0.00  0.00    +0.000 C 
BRANCH   7  10
ATOM      8  O   UNL     1      44.222   3.938   8.426  0.00  0.00    +0.000 OA
ATOM      9  C   UNL     1      45.012   3.092   8.838  0.00  0.00    +0.000 C 
ATOM     10  N   UNL     1      45.008   2.696  10.160  0.00  0.00    +0.000 N 
ATOM     11  H   UNL     1      45.696   2.030  10.483  0.00  0.00    +0.000 HD
BRANCH   9  12
ATOM     12  C   UNL     1      45.997   2.463   7.980  0.00  0.00    +0.000 A 
ATOM     13  C   UNL     1      46.388   1.137   7.998  0.00  0.00    +0.000 A 
ATOM     14  N   UNL     1      47.363   0.780   7.084  0.00  0.00    +0.000 NA
ATOM     15  C   UNL     1      47.705   1.838   6.386  0.00  0.00    +0.000 A 
ATOM     16  S   UNL     1      46.883   3.295   6.769  0.00  0.00    +0.000 S 
ENDBRANCH   9  12
ENDBRANCH   7  10
ENDBRANCH   1   7
BRANCH   4  17
ATOM     17  C   UNL     1      46.061   8.343  13.180  0.00  0.00    +0.000 C 
BRANCH  17  18
ATOM     18  N   UNL     1      47.109   8.118  14.141  0.00  0.00    +0.000 N 
ATOM     19  C   UNL     1      48.161   8.987  14.275  0.00  0.00    +0.000 C 
ATOM     20  O   UNL     1      48.237  10.026  13.624  0.00  0.00    +0.000 OA
ATOM     21  H   UNL     1      47.194   7.176  14.506  0.00  0.00    +0.000 HD
BRANCH  19  22
ATOM     22  C   UNL     1      49.163   8.641  15.293  0.00  0.00    +0.000 A 
ATOM     23  C   UNL     1      48.819   8.656  16.636  0.00  0.00    +0.000 A 
ATOM     24  S   UNL     1      50.076   8.145  17.669  0.00  0.00    +0.000 S 
ATOM     25  C   UNL     1      51.145   7.942  16.360  0.00  0.00    +0.000 A 
ATOM     26  N   UNL     1      52.424   7.523  16.557  0.00  0.00    +0.000 NA
ATOM     27  C   UNL     1      53.132   7.444  15.481  0.00  0.00    +0.000 A 
ATOM     28  N   UNL     1      52.677   7.746  14.224  0.00  0.00    +0.000 N 
ATOM     29  C   UNL     1      51.390   8.154  13.974  0.00  0.00    +0.000 A 
ATOM     30  O   UNL     1      51.009   8.394  12.833  0.00  0.00    +0.000 OA
ATOM     31  C   UNL     1      50.548   8.255  15.152  0.00  0.00    +0.000 A 
ATOM     32  H   UNL     1      53.282   7.666  13.420  0.00  0.00    +0.000 HD
ENDBRANCH  19  22
ENDBRANCH  17  18
ENDBRANCH   4  17
TORSDOF 6
ENDMDL
MODEL 6
REMARK VINA RESULT:    -6.652      2.233      3.778
REMARK INTER + INTRA:         -10.086
REMARK INTER:                  -9.131
REMARK INTRA:                  -0.954
REMARK UNBOUND:                -1.101
REMARK  Name = 
REMARK  6 active torsions:
REMARK  status: ('A' for Active; 'I' for Inactive)
REMARK    1  A    between atoms: C_2  and  C_25
REMARK    2  A    between atoms: N_3  and  C_4
REMARK    3  A    between atoms: C_4  and  C_5
REMARK    4  A    between atoms: C_8  and  C_9
REMARK    5  A    between atoms: C_9  and  N_10
REMARK    6  A    between atoms: C_11  and  C_13
REMARK                            x       y       z     vdW  Elec       q    Type
REMARK                         _______ _______ _______ _____ _____    ______ ____
ROOT
ATOM      1  C   UNL     1      45.260   4.514  11.587  0.00  0.00    +0.000 A 
ATOM      2  C   UNL     1      45.578   3.353  12.305  0.00  0.00    +0.000 A 
ATOM      3  C   UNL     1      46.257   3.433  13.524  0.00  0.00    +0.000 A 
ATOM      4  C   UNL     1      46.614   4.676  14.061  0.00  0.00    +0.000 A 
ATOM      5  C   UNL     1      46.312   5.836  13.333  0.00  0.00    +0.000 A 
ATOM      6  C   UNL     1      45.632   5.756  12.115  0.00  0.00    +0.000 A 
ENDROOT
BRANCH   1   7
ATOM      7  C   UNL     1      44.512   4.430  10.283  0.00  0.00    +0.000 C 
BRANCH   7  10
ATOM      8  O   UNL     1      44.620   1.877   9.239  0.00  0.00    +0.000 OA
ATOM      9  C   UNL     1      45.366   2.719   8.746  0.00  0.00    +0.000 C 
ATOM     10  N   UNL     1      45.378   4.020   9.206  0.00  0.00    +0.000 N 
ATOM     11  H   UNL     1      45.971   4.703   8.756  0.00  0.00    +0.000 HD
BRANCH   9  12
ATOM     12  C   UNL     1      46.272   2.414   7.655  0.00  0.00    +0.000 A 
ATOM     13  C   UNL     1      46.996   1.249   7.478  0.00  0.00    +0.000 A 
ATOM     14  N   UNL     1      47.807   1.203   6.359  0.00  0.00    +0.000 NA
ATOM     15  C   UNL     1      47.694   2.334   5.701  0.00  0.00    +0.000 A 
ATOM     16  S   UNL     1      46.618   3.493   6.367  0.00  0.00    +0.000 S 
ENDBRANCH   9  12
ENDBRANCH   7  10
ENDBRANCH   1   7
BRANCH   4  17
ATOM     17  C   UNL     1      47.359   4.771  15.368  0.00  0.00    +0.000 C 
BRANCH  17  18
ATOM     18  N   UNL     1      47.961   6.070  15.519  0.00  0.00    +0.000 N 
ATOM     19  C   UNL     1      48.907   6.318  16.480  0.00  0.00    +0.000 C 
ATOM     20  O   UNL     1      49.329   5.436  17.224  0.00  0.00    +0.000 OA
ATOM     21  H   UNL     1      47.470   6.849  15.094  0.00  0.00    +0.000 HD
BRANCH  19  22
ATOM     22  C   UNL     1      49.443   7.686  16.527  0.00  0.00    +0.000 A 
ATOM     23  C   UNL     1      49.511   8.361  17.736  0.00  0.00    +0.000 A 
ATOM     24  S   UNL     1      50.237   9.900  17.619  0.00  0.00    +0.000 S 
ATOM     25  C   UNL     1      50.433   9.741  15.936  0.00  0.00    +0.000 A 
ATOM     26  N   UNL     1      50.998  10.736  15.198  0.00  0.00    +0.000 NA
ATOM     27  C   UNL     1      51.053  10.495  13.931  0.00  0.00    +0.000 A 
ATOM     28  N   UNL     1      50.596   9.349  13.334  0.00  0.00    +0.000 N 
ATOM     29  C   UNL     1      50.038   8.312  14.039  0.00  0.00    +0.000 A 
ATOM     30  O   UNL     1      49.660   7.290  13.475  0.00  0.00    +0.000 OA
ATOM     31  C   UNL     1      49.955   8.529  15.472  0.00  0.00    +0.000 A 
ATOM     32  H   UNL     1      50.667   9.221  12.336  0.00  0.00    +0.000 HD
ENDBRANCH  19  22
ENDBRANCH  17  18
ENDBRANCH   4  17
TORSDOF 6
ENDMDL
MODEL 7
REMARK VINA RESULT:    -6.567      1.885      2.674
REMARK INTER + INTRA:          -9.972
REMARK INTER:                  -9.230
REMARK INTRA:                  -0.742
REMARK UNBOUND:                -1.101
REMARK  Name = 
REMARK  6 active torsions:
REMARK  status: ('A' for Active; 'I' for Inactive)
REMARK    1  A    between atoms: C_2  and  C_25
REMARK    2  A    between atoms: N_3  and  C_4
REMARK    3  A    between atoms: C_4  and  C_5
REMARK    4  A    between atoms: C_8  and  C_9
REMARK    5  A    between atoms: C_9  and  N_10
REMARK    6  A    between atoms: C_11  and  C_13
REMARK                            x       y       z     vdW  Elec       q    Type
REMARK                         _______ _______ _______ _____ _____    ______ ____
ROOT
ATOM      1  C   UNL     1      44.956   5.679  11.184  0.00  0.00    +0.000 A 
ATOM      2  C   UNL     1      45.748   4.977  12.103  0.00  0.00    +0.000 A 
ATOM      3  C   UNL     1      46.531   5.662  13.038  0.00  0.00    +0.000 A 
ATOM      4  C   UNL     1      46.522   7.062  13.086  0.00  0.00    +0.000 A 
ATOM      5  C   UNL     1      45.744   7.763  12.154  0.00  0.00    +0.000 A 
ATOM      6  C   UNL     1      44.960   7.079  11.220  0.00  0.00    +0.000 A 
ENDROOT
BRANCH   1   7
ATOM      7  C   UNL     1      44.099   4.942  10.191  0.00  0.00    +0.000 C 
BRANCH   7  10
ATOM      8  O   UNL     1      44.656   2.242  10.061  0.00  0.00    +0.000 OA
ATOM      9  C   UNL     1      45.128   2.957   9.180  0.00  0.00    +0.000 C 
ATOM     10  N   UNL     1      44.899   4.318   9.166  0.00  0.00    +0.000 N 
ATOM     11  H   UNL     1      45.263   4.877   8.408  0.00  0.00    +0.000 HD
BRANCH   9  12
ATOM     12  C   UNL     1      45.941   2.430   8.101  0.00  0.00    +0.000 A 
ATOM     13  C   UNL     1      46.387   1.129   7.957  0.00  0.00    +0.000 A 
ATOM     14  N   UNL     1      47.166   0.875   6.843  0.00  0.00    +0.000 NA
ATOM     15  C   UNL     1      47.307   1.985   6.156  0.00  0.00    +0.000 A 
ATOM     16  S   UNL     1      46.518   3.372   6.789  0.00  0.00    +0.000 S 
ENDBRANCH   9  12
ENDBRANCH   7  10
ENDBRANCH   1   7
BRANCH   4  17
ATOM     17  C   UNL     1      47.373   7.809  14.081  0.00  0.00    +0.000 C 
BRANCH  17  18
ATOM     18  N   UNL     1      48.113   6.892  14.908  0.00  0.00    +0.000 N 
ATOM     19  C   UNL     1      48.796   7.316  16.019  0.00  0.00    +0.000 C 
ATOM     20  O   UNL     1      48.767   8.484  16.397  0.00  0.00    +0.000 OA
ATOM     21  H   UNL     1      48.346   5.996  14.495  0.00  0.00    +0.000 HD
BRANCH  19  22
ATOM     22  C   UNL     1      49.510   6.279  16.777  0.00  0.00    +0.000 A 
ATOM     23  C   UNL     1      48.801   5.390  17.570  0.00  0.00    +0.000 A 
ATOM     24  S   UNL     1      49.780   4.202  18.307  0.00  0.00    +0.000 S 
ATOM     25  C   UNL     1      51.194   4.872  17.637  0.00  0.00    +0.000 A 
ATOM     26  N   UNL     1      52.415   4.327  17.888  0.00  0.00    +0.000 NA
ATOM     27  C   UNL     1      53.402   4.956  17.343  0.00  0.00    +0.000 A 
ATOM     28  N   UNL     1      53.280   6.081  16.570  0.00  0.00    +0.000 N 
ATOM     29  C   UNL     1      52.068   6.654  16.275  0.00  0.00    +0.000 A 
ATOM     30  O   UNL     1      51.992   7.649  15.559  0.00  0.00    +0.000 OA
ATOM     31  C   UNL     1      50.922   5.983  16.860  0.00  0.00    +0.000 A 
ATOM     32  H   UNL     1      54.092   6.528  16.173  0.00  0.00    +0.000 HD
ENDBRANCH  19  22
ENDBRANCH  17  18
ENDBRANCH   4  17
TORSDOF 6
ENDMDL
MODEL 8
REMARK VINA RESULT:    -6.547      3.538      8.448
REMARK INTER + INTRA:          -9.944
REMARK INTER:                  -8.875
REMARK INTRA:                  -1.069
REMARK UNBOUND:                -1.101
REMARK  Name = 
REMARK  6 active torsions:
REMARK  status: ('A' for Active; 'I' for Inactive)
REMARK    1  A    between atoms: C_2  and  C_25
REMARK    2  A    between atoms: N_3  and  C_4
REMARK    3  A    between atoms: C_4  and  C_5
REMARK    4  A    between atoms: C_8  and  C_9
REMARK    5  A    between atoms: C_9  and  N_10
REMARK    6  A    between atoms: C_11  and  C_13
REMARK                            x       y       z     vdW  Elec       q    Type
REMARK                         _______ _______ _______ _____ _____    ______ ____
ROOT
ATOM      1  C   UNL     1      49.677   4.541  17.641  0.00  0.00    +0.000 A 
ATOM      2  C   UNL     1      48.427   4.329  17.042  0.00  0.00    +0.000 A 
ATOM      3  C   UNL     1      47.974   5.173  16.023  0.00  0.00    +0.000 A 
ATOM      4  C   UNL     1      48.769   6.233  15.568  0.00  0.00    +0.000 A 
ATOM      5  C   UNL     1      50.010   6.455  16.181  0.00  0.00    +0.000 A 
ATOM      6  C   UNL     1      50.464   5.611  17.198  0.00  0.00    +0.000 A 
ENDROOT
BRANCH   1   7
ATOM      7  C   UNL     1      50.174   3.621  18.724  0.00  0.00    +0.000 C 
BRANCH   7  10
ATOM      8  O   UNL     1      50.856   1.350  17.313  0.00  0.00    +0.000 OA
ATOM      9  C   UNL     1      51.776   2.038  17.752  0.00  0.00    +0.000 C 
ATOM     10  N   UNL     1      51.526   3.190  18.468  0.00  0.00    +0.000 N 
ATOM     11  H   UNL     1      52.299   3.760  18.782  0.00  0.00    +0.000 HD
BRANCH   9  12
ATOM     12  C   UNL     1      53.170   1.697  17.545  0.00  0.00    +0.000 A 
ATOM     13  C   UNL     1      53.679   0.460  17.196  0.00  0.00    +0.000 A 
ATOM     14  N   UNL     1      55.055   0.384  17.073  0.00  0.00    +0.000 NA
ATOM     15  C   UNL     1      55.575   1.561  17.334  0.00  0.00    +0.000 A 
ATOM     16  S   UNL     1      54.463   2.810  17.724  0.00  0.00    +0.000 S 
ENDBRANCH   9  12
ENDBRANCH   7  10
ENDBRANCH   1   7
BRANCH   4  17
ATOM     17  C   UNL     1      48.282   7.155  14.480  0.00  0.00    +0.000 C 
BRANCH  17  18
ATOM     18  N   UNL     1      47.043   6.677  13.922  0.00  0.00    +0.000 N 
ATOM     19  C   UNL     1      46.753   6.816  12.589  0.00  0.00    +0.000 C 
ATOM     20  O   UNL     1      47.552   7.303  11.795  0.00  0.00    +0.000 OA
ATOM     21  H   UNL     1      46.290   6.499  14.578  0.00  0.00    +0.000 HD
BRANCH  19  22
ATOM     22  C   UNL     1      45.456   6.284  12.149  0.00  0.00    +0.000 A 
ATOM     23  C   UNL     1      44.511   7.137  11.598  0.00  0.00    +0.000 A 
ATOM     24  S   UNL     1      43.101   6.338  11.063  0.00  0.00    +0.000 S 
ATOM     25  C   UNL     1      43.682   4.832  11.603  0.00  0.00    +0.000 A 
ATOM     26  N   UNL     1      42.940   3.701  11.456  0.00  0.00    +0.000 NA
ATOM     27  C   UNL     1      43.488   2.637  11.940  0.00  0.00    +0.000 A 
ATOM     28  N   UNL     1      44.711   2.601  12.557  0.00  0.00    +0.000 N 
ATOM     29  C   UNL     1      45.503   3.712  12.710  0.00  0.00    +0.000 A 
ATOM     30  O   UNL     1      46.604   3.640  13.247  0.00  0.00    +0.000 OA
ATOM     31  C   UNL     1      44.935   4.937  12.179  0.00  0.00    +0.000 A 
ATOM     32  H   UNL     1      45.085   1.735  12.917  0.00  0.00    +0.000 HD
ENDBRANCH  19  22
ENDBRANCH  17  18
ENDBRANCH   4  17
TORSDOF 6
ENDMDL
MODEL 9
REMARK VINA RESULT:    -6.449      4.576      7.386
REMARK INTER + INTRA:          -9.812
REMARK INTER:                  -8.956
REMARK INTRA:                  -0.856
REMARK UNBOUND:                -1.101
REMARK  Name = 
REMARK  6 active torsions:
REMARK  status: ('A' for Active; 'I' for Inactive)
REMARK    1  A    between atoms: C_2  and  C_25
REMARK    2  A    between atoms: N_3  and  C_4
REMARK    3  A    between atoms: C_4  and  C_5
REMARK    4  A    between atoms: C_8  and  C_9
REMARK    5  A    between atoms: C_9  and  N_10
REMARK    6  A    between atoms: C_11  and  C_13
REMARK                            x       y       z     vdW  Elec       q    Type
REMARK                         _______ _______ _______ _____ _____    ______ ____
ROOT
ATOM      1  C   UNL     1      50.584   8.837  11.439  0.00  0.00    +0.000 A 
ATOM      2  C   UNL     1      50.069   7.554  11.672  0.00  0.00    +0.000 A 
ATOM      3  C   UNL     1      48.743   7.382  12.079  0.00  0.00    +0.000 A 
ATOM      4  C   UNL     1      47.897   8.487  12.241  0.00  0.00    +0.000 A 
ATOM      5  C   UNL     1      48.418   9.770  12.027  0.00  0.00    +0.000 A 
ATOM      6  C   UNL     1      49.744   9.943  11.619  0.00  0.00    +0.000 A 
ENDROOT
BRANCH   1   7
ATOM      7  C   UNL     1      52.006   9.021  10.983  0.00  0.00    +0.000 C 
BRANCH   7  10
ATOM      8  O   UNL     1      52.793   9.194   8.344  0.00  0.00    +0.000 OA
ATOM      9  C   UNL     1      52.827   8.084   8.869  0.00  0.00    +0.000 C 
ATOM     10  N   UNL     1      52.451   7.906  10.185  0.00  0.00    +0.000 N 
ATOM     11  H   UNL     1      52.528   6.990  10.606  0.00  0.00    +0.000 HD
BRANCH   9  12
ATOM     12  C   UNL     1      53.264   6.899   8.158  0.00  0.00    +0.000 A 
ATOM     13  C   UNL     1      53.054   6.607   6.823  0.00  0.00    +0.000 A 
ATOM     14  N   UNL     1      53.559   5.398   6.380  0.00  0.00    +0.000 NA
ATOM     15  C   UNL     1      54.142   4.783   7.383  0.00  0.00    +0.000 A 
ATOM     16  S   UNL     1      54.129   5.609   8.887  0.00  0.00    +0.000 S 
ENDBRANCH   9  12
ENDBRANCH   7  10
ENDBRANCH   1   7
BRANCH   4  17
ATOM     17  C   UNL     1      46.470   8.312  12.693  0.00  0.00    +0.000 C 
BRANCH  17  18
ATOM     18  N   UNL     1      46.007   6.977  12.413  0.00  0.00    +0.000 N 
ATOM     19  C   UNL     1      44.821   6.748  11.764  0.00  0.00    +0.000 C 
ATOM     20  O   UNL     1      44.121   7.664  11.341  0.00  0.00    +0.000 OA
ATOM     21  H   UNL     1      46.431   6.229  12.950  0.00  0.00    +0.000 HD
BRANCH  19  22
ATOM     22  C   UNL     1      44.465   5.340  11.540  0.00  0.00    +0.000 A 
ATOM     23  C   UNL     1      43.764   4.641  12.511  0.00  0.00    +0.000 A 
ATOM     24  S   UNL     1      43.361   3.049  12.049  0.00  0.00    +0.000 S 
ATOM     25  C   UNL     1      44.160   3.220  10.556  0.00  0.00    +0.000 A 
ATOM     26  N   UNL     1      44.204   2.195   9.662  0.00  0.00    +0.000 NA
ATOM     27  C   UNL     1      44.871   2.453   8.587  0.00  0.00    +0.000 A 
ATOM     28  N   UNL     1      45.498   3.642   8.324  0.00  0.00    +0.000 N 
ATOM     29  C   UNL     1      45.464   4.710   9.186  0.00  0.00    +0.000 A 
ATOM     30  O   UNL     1      46.018   5.770   8.909  0.00  0.00    +0.000 OA
ATOM     31  C   UNL     1      44.722   4.475  10.412  0.00  0.00    +0.000 A 
ATOM     32  H   UNL     1      46.006   3.781   7.463  0.00  0.00    +0.000 HD
ENDBRANCH  19  22
ENDBRANCH  17  18
ENDBRANCH   4  17
TORSDOF 6
ENDMDL
