MODEL 1
REMARK VINA RESULT:    -7.409      0.000      0.000
REMARK INTER + INTRA:          -8.961
REMARK INTER:                  -8.709
REMARK INTRA:                  -0.253
REMARK UNBOUND:                -0.253
REMARK  Name = 
REMARK  4 active torsions:
REMARK  status: ('A' for Active; 'I' for Inactive)
REMARK    1  A    between atoms: C_1  and  C_2
REMARK    2  A    between atoms: C_2  and  N_3
REMARK    3  A    between atoms: C_2  and  C_13
REMARK    4  A    between atoms: C_7  and  C_8
REMARK                            x       y       z     vdW  Elec       q    Type
REMARK                         _______ _______ _______ _____ _____    ______ ____
ROOT
ATOM      1  N   UNL     1      43.832   4.974   9.802  0.00  0.00    +0.000 N 
ATOM      2  C   UNL     1      44.620   3.969   9.203  0.00  0.00    +0.000 A 
ATOM      3  C   UNL     1      44.882   4.008   7.822  0.00  0.00    +0.000 A 
ATOM      4  N   UNL     1      45.635   3.090   7.150  0.00  0.00    +0.000 NA
ATOM      5  C   UNL     1      46.133   2.095   7.932  0.00  0.00    +0.000 A 
ATOM      6  C   UNL     1      45.886   2.038   9.292  0.00  0.00    +0.000 A 
ATOM      7  N   UNL     1      45.122   2.958   9.942  0.00  0.00    +0.000 NA
ATOM      8  H   UNL     1      44.266   5.874   9.608  0.00  0.00    +0.000 HD
ENDROOT
BRANCH   5   9
ATOM      9  C   UNL     1      46.968   1.036   7.296  0.00  0.00    +0.000 C 
ATOM     10  N   UNL     1      46.712  -0.255   7.675  0.00  0.00    +0.000 N 
ATOM     11  O   UNL     1      47.844   1.299   6.482  0.00  0.00    +0.000 OA
ATOM     12  H   UNL     1      45.996  -0.459   8.363  0.00  0.00    +0.000 HD
ATOM     13  H   UNL     1      47.265  -1.002   7.282  0.00  0.00    +0.000 HD
ENDBRANCH   5   9
BRANCH   1  15
ATOM     14  C   UNL     1      42.293   5.529  11.656  0.00  0.00    +0.000 C 
ATOM     15  C   UNL     1      43.576   4.800  11.240  0.00  0.00    +0.000 C 
BRANCH  15  16
ATOM     16  C   UNL     1      44.759   5.312  12.058  0.00  0.00    +0.000 A 
ATOM     17  C   UNL     1      45.399   6.497  11.656  0.00  0.00    +0.000 A 
ATOM     18  C   UNL     1      46.557   6.940  12.300  0.00  0.00    +0.000 A 
ATOM     19  C   UNL     1      47.087   6.217  13.367  0.00  0.00    +0.000 A 
ATOM     20 CL   UNL     1      48.544   6.804  14.087  0.00  0.00    +0.000 Cl
ATOM     21  C   UNL     1      46.443   5.055  13.806  0.00  0.00    +0.000 A 
ATOM     22 CL   UNL     1      47.039   4.116  15.129  0.00  0.00    +0.000 Cl
ATOM     23  C   UNL     1      45.283   4.608  13.155  0.00  0.00    +0.000 A 
ENDBRANCH  15  16
ENDBRANCH   1  15
TORSDOF 3
ENDMDL
MODEL 2
REMARK VINA RESULT:    -7.386      4.401      6.713
REMARK INTER + INTRA:          -8.934
REMARK INTER:                  -8.614
REMARK INTRA:                  -0.320
REMARK UNBOUND:                -0.253
REMARK  Name = 
REMARK  4 active torsions:
REMARK  status: ('A' for Active; 'I' for Inactive)
REMARK    1  A    between atoms: C_1  and  C_2
REMARK    2  A    between atoms: C_2  and  N_3
REMARK    3  A    between atoms: C_2  and  C_13
REMARK    4  A    between atoms: C_7  and  C_8
REMARK                            x       y       z     vdW  Elec       q    Type
REMARK                         _______ _______ _______ _____ _____    ______ ____
ROOT
ATOM      1  N   UNL     1      45.410   3.277  12.420  0.00  0.00    +0.000 N 
ATOM      2  C   UNL     1      46.098   4.412  12.897  0.00  0.00    +0.000 A 
ATOM      3  C   UNL     1      46.984   4.296  13.981  0.00  0.00    +0.000 A 
ATOM      4  N   UNL     1      47.700   5.329  14.512  0.00  0.00    +0.000 NA
ATOM      5  C   UNL     1      47.492   6.526  13.900  0.00  0.00    +0.000 A 
ATOM      6  C   UNL     1      46.623   6.661  12.832  0.00  0.00    +0.000 A 
ATOM      7  N   UNL     1      45.909   5.620  12.325  0.00  0.00    +0.000 NA
ATOM      8  H   UNL     1      46.099   2.572  12.166  0.00  0.00    +0.000 HD
ENDROOT
BRANCH   5   9
ATOM      9  C   UNL     1      48.223   7.724  14.404  0.00  0.00    +0.000 C 
ATOM     10  N   UNL     1      47.457   8.796  14.778  0.00  0.00    +0.000 N 
ATOM     11  O   UNL     1      49.445   7.757  14.476  0.00  0.00    +0.000 OA
ATOM     12  H   UNL     1      46.447   8.762  14.696  0.00  0.00    +0.000 HD
ATOM     13  H   UNL     1      47.912   9.633  15.108  0.00  0.00    +0.000 HD
ENDBRANCH   5   9
BRANCH   1  15
ATOM     14  C   UNL     1      43.243   2.612  11.433  0.00  0.00    +0.000 C 
ATOM     15  C   UNL     1      44.467   3.528  11.320  0.00  0.00    +0.000 C 
BRANCH  15  16
ATOM     16  C   UNL     1      45.154   3.321   9.972  0.00  0.00    +0.000 A 
ATOM     17  C   UNL     1      45.302   4.421   9.110  0.00  0.00    +0.000 A 
ATOM     18  C   UNL     1      45.815   4.259   7.822  0.00  0.00    +0.000 A 
ATOM     19  C   UNL     1      46.205   2.996   7.375  0.00  0.00    +0.000 A 
ATOM     20 CL   UNL     1      46.791   2.865   5.755  0.00  0.00    +0.000 Cl
ATOM     21  C   UNL     1      46.100   1.895   8.232  0.00  0.00    +0.000 A 
ATOM     22 CL   UNL     1      46.573   0.305   7.748  0.00  0.00    +0.000 Cl
ATOM     23  C   UNL     1      45.580   2.059   9.525  0.00  0.00    +0.000 A 
ENDBRANCH  15  16
ENDBRANCH   1  15
TORSDOF 3
ENDMDL
MODEL 3
REMARK VINA RESULT:    -6.676      4.463      6.659
REMARK INTER + INTRA:          -8.100
REMARK INTER:                  -7.658
REMARK INTRA:                  -0.442
REMARK UNBOUND:                -0.253
REMARK  Name = 
REMARK  4 active torsions:
REMARK  status: ('A' for Active; 'I' for Inactive)
REMARK    1  A    between atoms: C_1  and  C_2
REMARK    2  A    between atoms: C_2  and  N_3
REMARK    3  A    between atoms: C_2  and  C_13
REMARK    4  A    between atoms: C_7  and  C_8
REMARK                            x       y       z     vdW  Elec       q    Type
REMARK                         _______ _______ _______ _____ _____    ______ ____
ROOT
ATOM      1  N   UNL     1      45.180   4.797  12.125  0.00  0.00    +0.000 N 
ATOM      2  C   UNL     1      46.332   5.548  12.439  0.00  0.00    +0.000 A 
ATOM      3  C   UNL     1      46.974   5.369  13.677  0.00  0.00    +0.000 A 
ATOM      4  N   UNL     1      48.095   6.040  14.073  0.00  0.00    +0.000 NA
ATOM      5  C   UNL     1      48.568   6.927  13.158  0.00  0.00    +0.000 A 
ATOM      6  C   UNL     1      47.950   7.119  11.935  0.00  0.00    +0.000 A 
ATOM      7  N   UNL     1      46.826   6.448  11.564  0.00  0.00    +0.000 NA
ATOM      8  H   UNL     1      45.416   3.810  12.197  0.00  0.00    +0.000 HD
ENDROOT
BRANCH   5   9
ATOM      9  C   UNL     1      49.788   7.717  13.491  0.00  0.00    +0.000 C 
ATOM     10  N   UNL     1      50.475   7.339  14.614  0.00  0.00    +0.000 N 
ATOM     11  O   UNL     1      50.159   8.661  12.804  0.00  0.00    +0.000 OA
ATOM     12  H   UNL     1      50.148   6.567  15.184  0.00  0.00    +0.000 HD
ATOM     13  H   UNL     1      51.297   7.857  14.885  0.00  0.00    +0.000 HD
ENDBRANCH   5   9
BRANCH   1  15
ATOM     14  C   UNL     1      43.031   5.099  10.940  0.00  0.00    +0.000 C 
ATOM     15  C   UNL     1      44.560   5.109  10.828  0.00  0.00    +0.000 C 
BRANCH  15  16
ATOM     16  C   UNL     1      45.015   4.110   9.767  0.00  0.00    +0.000 A 
ATOM     17  C   UNL     1      44.826   2.737  10.002  0.00  0.00    +0.000 A 
ATOM     18  C   UNL     1      45.332   1.782   9.117  0.00  0.00    +0.000 A 
ATOM     19  C   UNL     1      46.021   2.181   7.972  0.00  0.00    +0.000 A 
ATOM     20 CL   UNL     1      46.654   0.943   6.947  0.00  0.00    +0.000 Cl
ATOM     21  C   UNL     1      46.187   3.544   7.702  0.00  0.00    +0.000 A 
ATOM     22 CL   UNL     1      47.022   4.109   6.298  0.00  0.00    +0.000 Cl
ATOM     23  C   UNL     1      45.682   4.502   8.594  0.00  0.00    +0.000 A 
ENDBRANCH  15  16
ENDBRANCH   1  15
TORSDOF 3
ENDMDL
MODEL 4
REMARK VINA RESULT:    -6.494      4.073      6.283
REMARK INTER + INTRA:          -7.885
REMARK INTER:                  -8.837
REMARK INTRA:                   0.951
REMARK UNBOUND:                -0.253
REMARK  Name = 
REMARK  4 active torsions:
REMARK  status: ('A' for Active; 'I' for Inactive)
REMARK    1  A    between atoms: C_1  and  C_2
REMARK    2  A    between atoms: C_2  and  N_3
REMARK    3  A    between atoms: C_2  and  C_13
REMARK    4  A    between atoms: C_7  and  C_8
REMARK                            x       y       z     vdW  Elec       q    Type
REMARK                         _______ _______ _______ _____ _____    ______ ____
ROOT
ATOM      1  N   UNL     1      44.568   6.163  10.681  0.00  0.00    +0.000 N 
ATOM      2  C   UNL     1      45.356   5.864  11.812  0.00  0.00    +0.000 A 
ATOM      3  C   UNL     1      46.324   6.780  12.259  0.00  0.00    +0.000 A 
ATOM      4  N   UNL     1      47.131   6.588  13.343  0.00  0.00    +0.000 NA
ATOM      5  C   UNL     1      46.931   5.407  13.987  0.00  0.00    +0.000 A 
ATOM      6  C   UNL     1      45.984   4.492  13.562  0.00  0.00    +0.000 A 
ATOM      7  N   UNL     1      45.197   4.697  12.471  0.00  0.00    +0.000 NA
ATOM      8  H   UNL     1      44.086   7.043  10.855  0.00  0.00    +0.000 HD
ENDROOT
BRANCH   5   9
ATOM      9  C   UNL     1      47.763   5.094  15.184  0.00  0.00    +0.000 C 
ATOM     10  N   UNL     1      48.354   6.157  15.814  0.00  0.00    +0.000 N 
ATOM     11  O   UNL     1      47.919   3.948  15.586  0.00  0.00    +0.000 OA
ATOM     12  H   UNL     1      48.231   7.100  15.461  0.00  0.00    +0.000 HD
ATOM     13  H   UNL     1      48.939   5.989  16.618  0.00  0.00    +0.000 HD
ENDBRANCH   5   9
BRANCH   1  15
ATOM     14  C   UNL     1      42.918   4.508  11.489  0.00  0.00    +0.000 C 
ATOM     15  C   UNL     1      43.629   5.108  10.271  0.00  0.00    +0.000 C 
BRANCH  15  16
ATOM     16  C   UNL     1      44.363   4.013   9.500  0.00  0.00    +0.000 A 
ATOM     17  C   UNL     1      44.193   2.675   9.895  0.00  0.00    +0.000 A 
ATOM     18  C   UNL     1      44.933   1.652   9.299  0.00  0.00    +0.000 A 
ATOM     19  C   UNL     1      45.846   1.944   8.286  0.00  0.00    +0.000 A 
ATOM     20 CL   UNL     1      46.756   0.633   7.625  0.00  0.00    +0.000 Cl
ATOM     21  C   UNL     1      46.002   3.265   7.853  0.00  0.00    +0.000 A 
ATOM     22 CL   UNL     1      47.107   3.697   6.596  0.00  0.00    +0.000 Cl
ATOM     23  C   UNL     1      45.261   4.293   8.456  0.00  0.00    +0.000 A 
ENDBRANCH  15  16
ENDBRANCH   1  15
TORSDOF 3
ENDMDL
MODEL 5
REMARK VINA RESULT:    -6.252      4.757      6.606
REMARK INTER + INTRA:          -7.601
REMARK INTER:                  -7.202
REMARK INTRA:                  -0.399
REMARK UNBOUND:                -0.253
REMARK  Name = 
REMARK  4 active torsions:
REMARK  status: ('A' for Active; 'I' for Inactive)
REMARK    1  A    between atoms: C_1  and  C_2
REMARK    2  A    between atoms: C_2  and  N_3
REMARK    3  A    between atoms: C_2  and  C_13
REMARK    4  A    between atoms: C_7  and  C_8
REMARK                            x       y       z     vdW  Elec       q    Type
REMARK                         _______ _______ _______ _____ _____    ______ ____
ROOT
ATOM      1  N   UNL     1      47.904   5.378  15.679  0.00  0.00    +0.000 N 
ATOM      2  C   UNL     1      47.168   5.189  14.490  0.00  0.00    +0.000 A 
ATOM      3  C   UNL     1      47.137   6.199  13.513  0.00  0.00    +0.000 A 
ATOM      4  N   UNL     1      46.462   6.113  12.330  0.00  0.00    +0.000 NA
ATOM      5  C   UNL     1      45.794   4.941  12.151  0.00  0.00    +0.000 A 
ATOM      6  C   UNL     1      45.812   3.935  13.102  0.00  0.00    +0.000 A 
ATOM      7  N   UNL     1      46.482   4.046  14.281  0.00  0.00    +0.000 NA
ATOM      8  H   UNL     1      48.870   5.575  15.425  0.00  0.00    +0.000 HD
ENDROOT
BRANCH   5   9
ATOM      9  C   UNL     1      45.020   4.743  10.893  0.00  0.00    +0.000 C 
ATOM     10  N   UNL     1      45.358   5.543   9.833  0.00  0.00    +0.000 N 
ATOM     11  O   UNL     1      44.122   3.914  10.805  0.00  0.00    +0.000 OA
ATOM     12  H   UNL     1      46.091   6.237   9.924  0.00  0.00    +0.000 HD
ATOM     13  H   UNL     1      44.848   5.453   8.968  0.00  0.00    +0.000 HD
ENDBRANCH   5   9
BRANCH   1  15
ATOM     14  C   UNL     1      47.150   4.753  17.949  0.00  0.00    +0.000 C 
ATOM     15  C   UNL     1      47.818   4.279  16.653  0.00  0.00    +0.000 C 
BRANCH  15  16
ATOM     16  C   UNL     1      49.208   3.723  16.952  0.00  0.00    +0.000 A 
ATOM     17  C   UNL     1      49.416   2.336  16.865  0.00  0.00    +0.000 A 
ATOM     18  C   UNL     1      50.635   1.769  17.244  0.00  0.00    +0.000 A 
ATOM     19  C   UNL     1      51.674   2.579  17.701  0.00  0.00    +0.000 A 
ATOM     20 CL   UNL     1      53.138   1.803  18.192  0.00  0.00    +0.000 Cl
ATOM     21  C   UNL     1      51.499   3.966  17.759  0.00  0.00    +0.000 A 
ATOM     22 CL   UNL     1      52.746   5.029  18.306  0.00  0.00    +0.000 Cl
ATOM     23  C   UNL     1      50.272   4.533  17.383  0.00  0.00    +0.000 A 
ENDBRANCH  15  16
ENDBRANCH   1  15
TORSDOF 3
ENDMDL
MODEL 6
REMARK VINA RESULT:    -6.211      1.481      2.253
REMARK INTER + INTRA:          -7.553
REMARK INTER:                  -8.503
REMARK INTRA:                   0.951
REMARK UNBOUND:                -0.253
REMARK  Name = 
REMARK  4 active torsions:
REMARK  status: ('A' for Active; 'I' for Inactive)
REMARK    1  A    between atoms: C_1  and  C_2
REMARK    2  A    between atoms: C_2  and  N_3
REMARK    3  A    between atoms: C_2  and  C_13
REMARK    4  A    between atoms: C_7  and  C_8
REMARK                            x       y       z     vdW  Elec       q    Type
REMARK                         _______ _______ _______ _____ _____    ______ ____
ROOT
ATOM      1  N   UNL     1      44.137   2.822  10.873  0.00  0.00    +0.000 N 
ATOM      2  C   UNL     1      44.929   2.852   9.706  0.00  0.00    +0.000 A 
ATOM      3  C   UNL     1      45.333   1.651   9.097  0.00  0.00    +0.000 A 
ATOM      4  N   UNL     1      46.092   1.573   7.965  0.00  0.00    +0.000 NA
ATOM      5  C   UNL     1      46.447   2.778   7.445  0.00  0.00    +0.000 A 
ATOM      6  C   UNL     1      46.060   3.971   8.031  0.00  0.00    +0.000 A 
ATOM      7  N   UNL     1      45.312   4.028   9.166  0.00  0.00    +0.000 NA
ATOM      8  H   UNL     1      43.292   2.293  10.668  0.00  0.00    +0.000 HD
ENDROOT
BRANCH   5   9
ATOM      9  C   UNL     1      47.281   2.807   6.210  0.00  0.00    +0.000 C 
ATOM     10  N   UNL     1      48.613   2.530   6.363  0.00  0.00    +0.000 N 
ATOM     11  O   UNL     1      46.807   3.071   5.112  0.00  0.00    +0.000 OA
ATOM     12  H   UNL     1      48.996   2.330   7.281  0.00  0.00    +0.000 HD
ATOM     13  H   UNL     1      49.217   2.555   5.556  0.00  0.00    +0.000 HD
ENDBRANCH   5   9
BRANCH   1  15
ATOM     14  C   UNL     1      43.361   5.115  10.369  0.00  0.00    +0.000 C 
ATOM     15  C   UNL     1      43.823   4.136  11.454  0.00  0.00    +0.000 C 
BRANCH  15  16
ATOM     16  C   UNL     1      45.039   4.699  12.186  0.00  0.00    +0.000 A 
ATOM     17  C   UNL     1      45.796   3.842  13.003  0.00  0.00    +0.000 A 
ATOM     18  C   UNL     1      46.843   4.336  13.784  0.00  0.00    +0.000 A 
ATOM     19  C   UNL     1      47.164   5.692  13.751  0.00  0.00    +0.000 A 
ATOM     20 CL   UNL     1      48.444   6.238  14.775  0.00  0.00    +0.000 Cl
ATOM     21  C   UNL     1      46.446   6.555  12.915  0.00  0.00    +0.000 A 
ATOM     22 CL   UNL     1      46.797   8.244  12.817  0.00  0.00    +0.000 Cl
ATOM     23  C   UNL     1      45.391   6.058  12.134  0.00  0.00    +0.000 A 
ENDBRANCH  15  16
ENDBRANCH   1  15
TORSDOF 3
ENDMDL
MODEL 7
REMARK VINA RESULT:    -5.852      5.033      7.098
REMARK INTER + INTRA:          -7.131
REMARK INTER:                  -6.718
REMARK INTRA:                  -0.412
REMARK UNBOUND:                -0.253
REMARK  Name = 
REMARK  4 active torsions:
REMARK  status: ('A' for Active; 'I' for Inactive)
REMARK    1  A    between atoms: C_1  and  C_2
REMARK    2  A    between atoms: C_2  and  N_3
REMARK    3  A    between atoms: C_2  and  C_13
REMARK    4  A    between atoms: C_7  and  C_8
REMARK                            x       y       z     vdW  Elec       q    Type
REMARK                         _______ _______ _______ _____ _____    ______ ____
ROOT
ATOM      1  N   UNL     1      46.328   6.406  12.705  0.00  0.00    +0.000 N 
ATOM      2  C   UNL     1      47.633   6.882  12.950  0.00  0.00    +0.000 A 
ATOM      3  C   UNL     1      48.220   6.711  14.215  0.00  0.00    +0.000 A 
ATOM      4  N   UNL     1      49.476   7.129  14.551  0.00  0.00    +0.000 NA
ATOM      5  C   UNL     1      50.148   7.746  13.542  0.00  0.00    +0.000 A 
ATOM      6  C   UNL     1      49.587   7.925  12.290  0.00  0.00    +0.000 A 
ATOM      7  N   UNL     1      48.328   7.511  11.979  0.00  0.00    +0.000 NA
ATOM      8  H   UNL     1      46.312   5.409  12.907  0.00  0.00    +0.000 HD
ENDROOT
BRANCH   5   9
ATOM      9  C   UNL     1      51.528   8.245  13.803  0.00  0.00    +0.000 C 
ATOM     10  N   UNL     1      52.205   7.663  14.842  0.00  0.00    +0.000 N 
ATOM     11  O   UNL     1      52.035   9.134  13.130  0.00  0.00    +0.000 OA
ATOM     12  H   UNL     1      51.767   6.940  15.402  0.00  0.00    +0.000 HD
ATOM     13  H   UNL     1      53.135   7.983  15.063  0.00  0.00    +0.000 HD
ENDBRANCH   5   9
BRANCH   1  15
ATOM     14  C   UNL     1      44.604   7.652  11.446  0.00  0.00    +0.000 C 
ATOM     15  C   UNL     1      45.795   6.691  11.364  0.00  0.00    +0.000 C 
BRANCH  15  16
ATOM     16  C   UNL     1      45.378   5.397  10.670  0.00  0.00    +0.000 A 
ATOM     17  C   UNL     1      44.688   4.422  11.410  0.00  0.00    +0.000 A 
ATOM     18  C   UNL     1      44.391   3.176  10.854  0.00  0.00    +0.000 A 
ATOM     19  C   UNL     1      44.765   2.886   9.542  0.00  0.00    +0.000 A 
ATOM     20 CL   UNL     1      44.401   1.309   8.936  0.00  0.00    +0.000 Cl
ATOM     21  C   UNL     1      45.419   3.857   8.776  0.00  0.00    +0.000 A 
ATOM     22 CL   UNL     1      45.902   3.569   7.142  0.00  0.00    +0.000 Cl
ATOM     23  C   UNL     1      45.721   5.107   9.338  0.00  0.00    +0.000 A 
ENDBRANCH  15  16
ENDBRANCH   1  15
TORSDOF 3
ENDMDL
MODEL 8
REMARK VINA RESULT:    -5.776      6.050      8.390
REMARK INTER + INTRA:          -7.042
REMARK INTER:                  -6.619
REMARK INTRA:                  -0.423
REMARK UNBOUND:                -0.253
REMARK  Name = 
REMARK  4 active torsions:
REMARK  status: ('A' for Active; 'I' for Inactive)
REMARK    1  A    between atoms: C_1  and  C_2
REMARK    2  A    between atoms: C_2  and  N_3
REMARK    3  A    between atoms: C_2  and  C_13
REMARK    4  A    between atoms: C_7  and  C_8
REMARK                            x       y       z     vdW  Elec       q    Type
REMARK                         _______ _______ _______ _____ _____    ______ ____
ROOT
ATOM      1  N   UNL     1      48.368   7.294  14.826  0.00  0.00    +0.000 N 
ATOM      2  C   UNL     1      48.556   6.570  16.022  0.00  0.00    +0.000 A 
ATOM      3  C   UNL     1      48.739   7.251  17.237  0.00  0.00    +0.000 A 
ATOM      4  N   UNL     1      48.921   6.644  18.446  0.00  0.00    +0.000 NA
ATOM      5  C   UNL     1      48.916   5.285  18.397  0.00  0.00    +0.000 A 
ATOM      6  C   UNL     1      48.739   4.596  17.209  0.00  0.00    +0.000 A 
ATOM      7  N   UNL     1      48.570   5.220  16.012  0.00  0.00    +0.000 NA
ATOM      8  H   UNL     1      47.563   7.904  14.948  0.00  0.00    +0.000 HD
ENDROOT
BRANCH   5   9
ATOM      9  C   UNL     1      49.111   4.522  19.662  0.00  0.00    +0.000 C 
ATOM     10  N   UNL     1      48.361   3.386  19.815  0.00  0.00    +0.000 N 
ATOM     11  O   UNL     1      49.895   4.889  20.529  0.00  0.00    +0.000 OA
ATOM     12  H   UNL     1      47.703   3.102  19.097  0.00  0.00    +0.000 HD
ATOM     13  H   UNL     1      48.450   2.849  20.663  0.00  0.00    +0.000 HD
ENDBRANCH   5   9
BRANCH   1  15
ATOM     14  C   UNL     1      49.120   7.044  12.484  0.00  0.00    +0.000 C 
ATOM     15  C   UNL     1      48.245   6.478  13.608  0.00  0.00    +0.000 C 
BRANCH  15  16
ATOM     16  C   UNL     1      46.788   6.412  13.157  0.00  0.00    +0.000 A 
ATOM     17  C   UNL     1      46.059   5.233  13.389  0.00  0.00    +0.000 A 
ATOM     18  C   UNL     1      44.764   5.081  12.890  0.00  0.00    +0.000 A 
ATOM     19  C   UNL     1      44.166   6.110  12.163  0.00  0.00    +0.000 A 
ATOM     20 CL   UNL     1      42.578   5.834  11.542  0.00  0.00    +0.000 Cl
ATOM     21  C   UNL     1      44.862   7.306  11.954  0.00  0.00    +0.000 A 
ATOM     22 CL   UNL     1      44.178   8.626  11.073  0.00  0.00    +0.000 Cl
ATOM     23  C   UNL     1      46.165   7.456  12.452  0.00  0.00    +0.000 A 
ENDBRANCH  15  16
ENDBRANCH   1  15
TORSDOF 3
ENDMDL
MODEL 9
REMARK VINA RESULT:    -5.400      4.159      6.155
REMARK INTER + INTRA:          -6.600
REMARK INTER:                  -6.243
REMARK INTRA:                  -0.357
REMARK UNBOUND:                -0.253
REMARK  Name = 
REMARK  4 active torsions:
REMARK  status: ('A' for Active; 'I' for Inactive)
REMARK    1  A    between atoms: C_1  and  C_2
REMARK    2  A    between atoms: C_2  and  N_3
REMARK    3  A    between atoms: C_2  and  C_13
REMARK    4  A    between atoms: C_7  and  C_8
REMARK                            x       y       z     vdW  Elec       q    Type
REMARK                         _______ _______ _______ _____ _____    ______ ____
ROOT
ATOM      1  N   UNL     1      47.873   5.886  14.562  0.00  0.00    +0.000 N 
ATOM      2  C   UNL     1      46.865   5.490  13.658  0.00  0.00    +0.000 A 
ATOM      3  C   UNL     1      46.439   4.152  13.619  0.00  0.00    +0.000 A 
ATOM      4  N   UNL     1      45.470   3.670  12.788  0.00  0.00    +0.000 NA
ATOM      5  C   UNL     1      44.922   4.606  11.967  0.00  0.00    +0.000 A 
ATOM      6  C   UNL     1      45.328   5.929  11.989  0.00  0.00    +0.000 A 
ATOM      7  N   UNL     1      46.306   6.386  12.818  0.00  0.00    +0.000 NA
ATOM      8  H   UNL     1      47.568   5.644  15.502  0.00  0.00    +0.000 HD
ENDROOT
BRANCH   5   9
ATOM      9  C   UNL     1      43.855   4.186  11.014  0.00  0.00    +0.000 C 
ATOM     10  N   UNL     1      43.805   4.850   9.818  0.00  0.00    +0.000 N 
ATOM     11  O   UNL     1      43.056   3.297  11.284  0.00  0.00    +0.000 OA
ATOM     12  H   UNL     1      44.461   5.596   9.614  0.00  0.00    +0.000 HD
ATOM     13  H   UNL     1      43.088   4.609   9.151  0.00  0.00    +0.000 HD
ENDBRANCH   5   9
BRANCH   1  15
ATOM     14  C   UNL     1      49.593   7.438  13.698  0.00  0.00    +0.000 C 
ATOM     15  C   UNL     1      48.279   7.297  14.474  0.00  0.00    +0.000 C 
BRANCH  15  16
ATOM     16  C   UNL     1      48.428   7.896  15.871  0.00  0.00    +0.000 A 
ATOM     17  C   UNL     1      48.760   7.048  16.941  0.00  0.00    +0.000 A 
ATOM     18  C   UNL     1      48.791   7.526  18.253  0.00  0.00    +0.000 A 
ATOM     19  C   UNL     1      48.507   8.865  18.518  0.00  0.00    +0.000 A 
ATOM     20 CL   UNL     1      48.523   9.375  20.169  0.00  0.00    +0.000 Cl
ATOM     21  C   UNL     1      48.211   9.734  17.462  0.00  0.00    +0.000 A 
ATOM     22 CL   UNL     1      47.859  11.407  17.718  0.00  0.00    +0.000 Cl
ATOM     23  C   UNL     1      48.176   9.251  16.145  0.00  0.00    +0.000 A 
ENDBRANCH  15  16
ENDBRANCH   1  15
TORSDOF 3
ENDMDL
