MODEL 1
REMARK VINA RESULT:    -7.652      0.000      0.000
REMARK INTER + INTRA:          -9.954
REMARK INTER:                  -9.442
REMARK INTRA:                  -0.513
REMARK UNBOUND:                -0.513
REMARK  Name = 
REMARK  4 active torsions:
REMARK  status: ('A' for Active; 'I' for Inactive)
REMARK    1  A    between atoms: C_2  and  C_4
REMARK    2  A    between atoms: C_7  and  N_8
REMARK    3  A    between atoms: N_8  and  C_9
REMARK    4  A    between atoms: C_9  and  C_10
REMARK                            x       y       z     vdW  Elec       q    Type
REMARK                         _______ _______ _______ _____ _____    ______ ____
ROOT
ATOM      1  C   UNL     1      46.232   2.082   7.981  0.00  0.00    +0.000 A 
ATOM      2  C   UNL     1      46.379   3.415   7.630  0.00  0.00    +0.000 A 
ATOM      3  C   UNL     1      45.528   4.347   8.220  0.00  0.00    +0.000 A 
ATOM      4  C   UNL     1      44.581   3.944   9.166  0.00  0.00    +0.000 A 
ATOM      5  C   UNL     1      44.508   2.576   9.429  0.00  0.00    +0.000 A 
ATOM      6  N   UNL     1      45.298   1.630   8.865  0.00  0.00    +0.000 NA
ENDROOT
BRANCH   1   8
ATOM      7  N   UNL     1      46.802  -0.247   7.652  0.00  0.00    +0.000 N 
ATOM      8  C   UNL     1      47.122   1.049   7.361  0.00  0.00    +0.000 C 
ATOM      9  O   UNL     1      48.067   1.338   6.639  0.00  0.00    +0.000 OA
ATOM     10  H   UNL     1      47.347  -0.996   7.255  0.00  0.00    +0.000 HD
ATOM     11  H   UNL     1      46.002  -0.443   8.243  0.00  0.00    +0.000 HD
ENDBRANCH   1   8
BRANCH   4  12
ATOM     12  N   UNL     1      43.765   4.923   9.728  0.00  0.00    +0.000 N 
ATOM     13  H   UNL     1      42.875   5.000   9.237  0.00  0.00    +0.000 HD
BRANCH  12  14
ATOM     14  C   UNL     1      43.591   4.975  11.174  0.00  0.00    +0.000 C 
BRANCH  14  15
ATOM     15  C   UNL     1      44.916   5.314  11.818  0.00  0.00    +0.000 A 
ATOM     16  C   UNL     1      45.674   6.411  11.386  0.00  0.00    +0.000 A 
ATOM     17  C   UNL     1      46.882   6.725  12.013  0.00  0.00    +0.000 A 
ATOM     18  C   UNL     1      47.344   5.952  13.076  0.00  0.00    +0.000 A 
ATOM     19  C   UNL     1      46.599   4.860  13.518  0.00  0.00    +0.000 A 
ATOM     20  C   UNL     1      45.392   4.545  12.894  0.00  0.00    +0.000 A 
ENDBRANCH  14  15
ENDBRANCH  12  14
ENDBRANCH   4  12
TORSDOF 4
ENDMDL
MODEL 2
REMARK VINA RESULT:    -7.571      3.097      5.932
REMARK INTER + INTRA:          -9.854
REMARK INTER:                  -9.442
REMARK INTRA:                  -0.412
REMARK UNBOUND:                -0.513
REMARK  Name = 
REMARK  4 active torsions:
REMARK  status: ('A' for Active; 'I' for Inactive)
REMARK    1  A    between atoms: C_2  and  C_4
REMARK    2  A    between atoms: C_7  and  N_8
REMARK    3  A    between atoms: N_8  and  C_9
REMARK    4  A    between atoms: C_9  and  C_10
REMARK                            x       y       z     vdW  Elec       q    Type
REMARK                         _______ _______ _______ _____ _____    ______ ____
ROOT
ATOM      1  C   UNL     1      46.619   4.579  13.677  0.00  0.00    +0.000 A 
ATOM      2  C   UNL     1      46.887   5.735  12.959  0.00  0.00    +0.000 A 
ATOM      3  C   UNL     1      46.274   5.893  11.719  0.00  0.00    +0.000 A 
ATOM      4  C   UNL     1      45.386   4.927  11.236  0.00  0.00    +0.000 A 
ATOM      5  C   UNL     1      45.206   3.796  12.033  0.00  0.00    +0.000 A 
ATOM      6  N   UNL     1      45.797   3.586  13.236  0.00  0.00    +0.000 NA
ENDROOT
BRANCH   1   8
ATOM      7  N   UNL     1      47.522   5.505  15.723  0.00  0.00    +0.000 N 
ATOM      8  C   UNL     1      47.267   4.367  15.011  0.00  0.00    +0.000 C 
ATOM      9  O   UNL     1      47.545   3.256  15.443  0.00  0.00    +0.000 OA
ATOM     10  H   UNL     1      47.941   5.438  16.637  0.00  0.00    +0.000 HD
ATOM     11  H   UNL     1      47.262   6.406  15.335  0.00  0.00    +0.000 HD
ENDBRANCH   1   8
BRANCH   4  12
ATOM     12  N   UNL     1      44.797   5.146   9.994  0.00  0.00    +0.000 N 
ATOM     13  H   UNL     1      45.391   5.712   9.389  0.00  0.00    +0.000 HD
BRANCH  12  14
ATOM     14  C   UNL     1      44.195   4.032   9.273  0.00  0.00    +0.000 C 
BRANCH  14  15
ATOM     15  C   UNL     1      45.277   3.279   8.535  0.00  0.00    +0.000 A 
ATOM     16  C   UNL     1      45.467   1.904   8.728  0.00  0.00    +0.000 A 
ATOM     17  C   UNL     1      46.454   1.220   8.016  0.00  0.00    +0.000 A 
ATOM     18  C   UNL     1      47.260   1.899   7.103  0.00  0.00    +0.000 A 
ATOM     19  C   UNL     1      47.080   3.266   6.898  0.00  0.00    +0.000 A 
ATOM     20  C   UNL     1      46.094   3.950   7.609  0.00  0.00    +0.000 A 
ENDBRANCH  14  15
ENDBRANCH  12  14
ENDBRANCH   4  12
TORSDOF 4
ENDMDL
MODEL 3
REMARK VINA RESULT:    -7.018      2.991      6.101
REMARK INTER + INTRA:          -9.171
REMARK INTER:                  -8.800
REMARK INTRA:                  -0.371
REMARK UNBOUND:                -0.513
REMARK  Name = 
REMARK  4 active torsions:
REMARK  status: ('A' for Active; 'I' for Inactive)
REMARK    1  A    between atoms: C_2  and  C_4
REMARK    2  A    between atoms: C_7  and  N_8
REMARK    3  A    between atoms: N_8  and  C_9
REMARK    4  A    between atoms: C_9  and  C_10
REMARK                            x       y       z     vdW  Elec       q    Type
REMARK                         _______ _______ _______ _____ _____    ______ ____
ROOT
ATOM      1  C   UNL     1      46.354   5.547  12.638  0.00  0.00    +0.000 A 
ATOM      2  C   UNL     1      45.812   4.301  12.918  0.00  0.00    +0.000 A 
ATOM      3  C   UNL     1      45.078   3.666  11.920  0.00  0.00    +0.000 A 
ATOM      4  C   UNL     1      44.928   4.257  10.662  0.00  0.00    +0.000 A 
ATOM      5  C   UNL     1      45.499   5.519  10.497  0.00  0.00    +0.000 A 
ATOM      6  N   UNL     1      46.203   6.187  11.444  0.00  0.00    +0.000 NA
ENDROOT
BRANCH   1   8
ATOM      7  N   UNL     1      47.415   5.541  14.813  0.00  0.00    +0.000 N 
ATOM      8  C   UNL     1      47.142   6.267  13.688  0.00  0.00    +0.000 C 
ATOM      9  O   UNL     1      47.525   7.422  13.553  0.00  0.00    +0.000 OA
ATOM     10  H   UNL     1      47.956   5.956  15.555  0.00  0.00    +0.000 HD
ATOM     11  H   UNL     1      47.092   4.582  14.878  0.00  0.00    +0.000 HD
ENDBRANCH   1   8
BRANCH   4  12
ATOM     12  N   UNL     1      44.191   3.568   9.702  0.00  0.00    +0.000 N 
ATOM     13  H   UNL     1      44.021   4.139   8.876  0.00  0.00    +0.000 HD
BRANCH  12  14
ATOM     14  C   UNL     1      44.562   2.202   9.350  0.00  0.00    +0.000 C 
BRANCH  14  15
ATOM     15  C   UNL     1      45.609   2.240   8.262  0.00  0.00    +0.000 A 
ATOM     16  C   UNL     1      46.465   1.153   8.039  0.00  0.00    +0.000 A 
ATOM     17  C   UNL     1      47.408   1.196   7.010  0.00  0.00    +0.000 A 
ATOM     18  C   UNL     1      47.506   2.320   6.193  0.00  0.00    +0.000 A 
ATOM     19  C   UNL     1      46.660   3.408   6.401  0.00  0.00    +0.000 A 
ATOM     20  C   UNL     1      45.717   3.367   7.428  0.00  0.00    +0.000 A 
ENDBRANCH  14  15
ENDBRANCH  12  14
ENDBRANCH   4  12
TORSDOF 4
ENDMDL
MODEL 4
REMARK VINA RESULT:    -5.892      3.664      6.544
REMARK INTER + INTRA:          -7.782
REMARK INTER:                  -7.420
REMARK INTRA:                  -0.362
REMARK UNBOUND:                -0.513
REMARK  Name = 
REMARK  4 active torsions:
REMARK  status: ('A' for Active; 'I' for Inactive)
REMARK    1  A    between atoms: C_2  and  C_4
REMARK    2  A    between atoms: C_7  and  N_8
REMARK    3  A    between atoms: N_8  and  C_9
REMARK    4  A    between atoms: C_9  and  C_10
REMARK                            x       y       z     vdW  Elec       q    Type
REMARK                         _______ _______ _______ _____ _____    ______ ____
ROOT
ATOM      1  C   UNL     1      47.838   6.730  14.069  0.00  0.00    +0.000 A 
ATOM      2  C   UNL     1      47.696   7.785  13.181  0.00  0.00    +0.000 A 
ATOM      3  C   UNL     1      46.870   7.604  12.074  0.00  0.00    +0.000 A 
ATOM      4  C   UNL     1      46.178   6.402  11.892  0.00  0.00    +0.000 A 
ATOM      5  C   UNL     1      46.412   5.403  12.838  0.00  0.00    +0.000 A 
ATOM      6  N   UNL     1      47.222   5.523  13.917  0.00  0.00    +0.000 NA
ENDROOT
BRANCH   1   8
ATOM      7  N   UNL     1      48.269   7.742  16.225  0.00  0.00    +0.000 N 
ATOM      8  C   UNL     1      48.725   6.882  15.266  0.00  0.00    +0.000 C 
ATOM      9  O   UNL     1      49.783   6.277  15.387  0.00  0.00    +0.000 OA
ATOM     10  H   UNL     1      48.806   7.881  17.066  0.00  0.00    +0.000 HD
ATOM     11  H   UNL     1      47.380   8.211  16.092  0.00  0.00    +0.000 HD
ENDBRANCH   1   8
BRANCH   4  12
ATOM     12  N   UNL     1      45.360   6.284  10.772  0.00  0.00    +0.000 N 
ATOM     13  H   UNL     1      45.874   6.458   9.910  0.00  0.00    +0.000 HD
BRANCH  12  14
ATOM     14  C   UNL     1      44.465   5.140  10.648  0.00  0.00    +0.000 C 
BRANCH  14  15
ATOM     15  C   UNL     1      45.056   4.155   9.668  0.00  0.00    +0.000 A 
ATOM     16  C   UNL     1      44.867   2.775   9.822  0.00  0.00    +0.000 A 
ATOM     17  C   UNL     1      45.398   1.881   8.889  0.00  0.00    +0.000 A 
ATOM     18  C   UNL     1      46.119   2.353   7.794  0.00  0.00    +0.000 A 
ATOM     19  C   UNL     1      46.312   3.723   7.627  0.00  0.00    +0.000 A 
ATOM     20  C   UNL     1      45.782   4.618   8.557  0.00  0.00    +0.000 A 
ENDBRANCH  14  15
ENDBRANCH  12  14
ENDBRANCH   4  12
TORSDOF 4
ENDMDL
MODEL 5
REMARK VINA RESULT:    -5.606      3.929      5.888
REMARK INTER + INTRA:          -7.430
REMARK INTER:                  -7.023
REMARK INTRA:                  -0.407
REMARK UNBOUND:                -0.513
REMARK  Name = 
REMARK  4 active torsions:
REMARK  status: ('A' for Active; 'I' for Inactive)
REMARK    1  A    between atoms: C_2  and  C_4
REMARK    2  A    between atoms: C_7  and  N_8
REMARK    3  A    between atoms: N_8  and  C_9
REMARK    4  A    between atoms: C_9  and  C_10
REMARK                            x       y       z     vdW  Elec       q    Type
REMARK                         _______ _______ _______ _____ _____    ______ ____
ROOT
ATOM      1  C   UNL     1      45.180   4.299  11.741  0.00  0.00    +0.000 A 
ATOM      2  C   UNL     1      45.722   3.264  12.487  0.00  0.00    +0.000 A 
ATOM      3  C   UNL     1      46.463   3.591  13.620  0.00  0.00    +0.000 A 
ATOM      4  C   UNL     1      46.618   4.925  14.007  0.00  0.00    +0.000 A 
ATOM      5  C   UNL     1      46.046   5.885  13.171  0.00  0.00    +0.000 A 
ATOM      6  N   UNL     1      45.336   5.618  12.047  0.00  0.00    +0.000 NA
ENDROOT
BRANCH   1   8
ATOM      7  N   UNL     1      43.638   5.024  10.020  0.00  0.00    +0.000 N 
ATOM      8  C   UNL     1      44.384   3.989  10.510  0.00  0.00    +0.000 C 
ATOM      9  O   UNL     1      44.402   2.890   9.970  0.00  0.00    +0.000 OA
ATOM     10  H   UNL     1      43.091   4.892   9.185  0.00  0.00    +0.000 HD
ATOM     11  H   UNL     1      43.664   5.922  10.490  0.00  0.00    +0.000 HD
ENDBRANCH   1   8
BRANCH   4  12
ATOM     12  N   UNL     1      47.362   5.189  15.155  0.00  0.00    +0.000 N 
ATOM     13  H   UNL     1      47.340   6.178  15.399  0.00  0.00    +0.000 HD
BRANCH  12  14
ATOM     14  C   UNL     1      47.206   4.337  16.327  0.00  0.00    +0.000 C 
BRANCH  14  15
ATOM     15  C   UNL     1      48.564   3.828  16.751  0.00  0.00    +0.000 A 
ATOM     16  C   UNL     1      49.533   4.694  17.274  0.00  0.00    +0.000 A 
ATOM     17  C   UNL     1      50.773   4.201  17.688  0.00  0.00    +0.000 A 
ATOM     18  C   UNL     1      51.057   2.841  17.585  0.00  0.00    +0.000 A 
ATOM     19  C   UNL     1      50.102   1.967  17.070  0.00  0.00    +0.000 A 
ATOM     20  C   UNL     1      48.863   2.458  16.657  0.00  0.00    +0.000 A 
ENDBRANCH  14  15
ENDBRANCH  12  14
ENDBRANCH   4  12
TORSDOF 4
ENDMDL
MODEL 6
REMARK VINA RESULT:    -5.562      3.295      4.830
REMARK INTER + INTRA:          -7.375
REMARK INTER:                  -7.024
REMARK INTRA:                  -0.351
REMARK UNBOUND:                -0.513
REMARK  Name = 
REMARK  4 active torsions:
REMARK  status: ('A' for Active; 'I' for Inactive)
REMARK    1  A    between atoms: C_2  and  C_4
REMARK    2  A    between atoms: C_7  and  N_8
REMARK    3  A    between atoms: N_8  and  C_9
REMARK    4  A    between atoms: C_9  and  C_10
REMARK                            x       y       z     vdW  Elec       q    Type
REMARK                         _______ _______ _______ _____ _____    ______ ____
ROOT
ATOM      1  C   UNL     1      44.720   3.916  11.659  0.00  0.00    +0.000 A 
ATOM      2  C   UNL     1      44.903   5.084  10.934  0.00  0.00    +0.000 A 
ATOM      3  C   UNL     1      45.573   6.138  11.550  0.00  0.00    +0.000 A 
ATOM      4  C   UNL     1      46.077   6.000  12.846  0.00  0.00    +0.000 A 
ATOM      5  C   UNL     1      45.818   4.788  13.487  0.00  0.00    +0.000 A 
ATOM      6  N   UNL     1      45.152   3.742  12.939  0.00  0.00    +0.000 NA
ENDROOT
BRANCH   1   8
ATOM      7  N   UNL     1      44.600   2.216   9.939  0.00  0.00    +0.000 N 
ATOM      8  C   UNL     1      43.994   2.763  11.035  0.00  0.00    +0.000 C 
ATOM      9  O   UNL     1      42.937   2.330  11.476  0.00  0.00    +0.000 OA
ATOM     10  H   UNL     1      44.178   1.426   9.478  0.00  0.00    +0.000 HD
ATOM     11  H   UNL     1      45.483   2.595   9.616  0.00  0.00    +0.000 HD
ENDBRANCH   1   8
BRANCH   4  12
ATOM     12  N   UNL     1      46.748   7.086  13.404  0.00  0.00    +0.000 N 
ATOM     13  H   UNL     1      47.692   6.836  13.696  0.00  0.00    +0.000 HD
BRANCH  12  14
ATOM     14  C   UNL     1      46.712   8.379  12.733  0.00  0.00    +0.000 C 
BRANCH  14  15
ATOM     15  C   UNL     1      48.084   8.687  12.180  0.00  0.00    +0.000 A 
ATOM     16  C   UNL     1      48.422   9.978  11.754  0.00  0.00    +0.000 A 
ATOM     17  C   UNL     1      49.705  10.250  11.273  0.00  0.00    +0.000 A 
ATOM     18  C   UNL     1      50.662   9.238  11.213  0.00  0.00    +0.000 A 
ATOM     19  C   UNL     1      50.340   7.950  11.636  0.00  0.00    +0.000 A 
ATOM     20  C   UNL     1      49.059   7.677  12.118  0.00  0.00    +0.000 A 
ENDBRANCH  14  15
ENDBRANCH  12  14
ENDBRANCH   4  12
TORSDOF 4
ENDMDL
MODEL 7
REMARK VINA RESULT:    -5.182      5.828      8.322
REMARK INTER + INTRA:          -6.906
REMARK INTER:                  -6.524
REMARK INTRA:                  -0.383
REMARK UNBOUND:                -0.513
REMARK  Name = 
REMARK  4 active torsions:
REMARK  status: ('A' for Active; 'I' for Inactive)
REMARK    1  A    between atoms: C_2  and  C_4
REMARK    2  A    between atoms: C_7  and  N_8
REMARK    3  A    between atoms: N_8  and  C_9
REMARK    4  A    between atoms: C_9  and  C_10
REMARK                            x       y       z     vdW  Elec       q    Type
REMARK                         _______ _______ _______ _____ _____    ______ ____
ROOT
ATOM      1  C   UNL     1      48.688   4.604  18.161  0.00  0.00    +0.000 A 
ATOM      2  C   UNL     1      47.777   3.677  17.676  0.00  0.00    +0.000 A 
ATOM      3  C   UNL     1      47.226   3.898  16.416  0.00  0.00    +0.000 A 
ATOM      4  C   UNL     1      47.614   5.004  15.654  0.00  0.00    +0.000 A 
ATOM      5  C   UNL     1      48.522   5.880  16.249  0.00  0.00    +0.000 A 
ATOM      6  N   UNL     1      49.069   5.721  17.479  0.00  0.00    +0.000 NA
ENDROOT
BRANCH   1   8
ATOM      7  N   UNL     1      48.533   3.698  20.401  0.00  0.00    +0.000 N 
ATOM      8  C   UNL     1      49.296   4.407  19.516  0.00  0.00    +0.000 C 
ATOM      9  O   UNL     1      50.400   4.842  19.815  0.00  0.00    +0.000 OA
ATOM     10  H   UNL     1      48.885   3.513  21.326  0.00  0.00    +0.000 HD
ATOM     11  H   UNL     1      47.629   3.343  20.107  0.00  0.00    +0.000 HD
ENDBRANCH   1   8
BRANCH   4  12
ATOM     12  N   UNL     1      47.035   5.165  14.398  0.00  0.00    +0.000 N 
ATOM     13  H   UNL     1      47.490   5.905  13.865  0.00  0.00    +0.000 HD
BRANCH  12  14
ATOM     14  C   UNL     1      46.760   3.994  13.573  0.00  0.00    +0.000 C 
BRANCH  14  15
ATOM     15  C   UNL     1      45.442   4.190  12.862  0.00  0.00    +0.000 A 
ATOM     16  C   UNL     1      44.919   3.203  12.016  0.00  0.00    +0.000 A 
ATOM     17  C   UNL     1      43.685   3.391  11.389  0.00  0.00    +0.000 A 
ATOM     18  C   UNL     1      42.960   4.562  11.601  0.00  0.00    +0.000 A 
ATOM     19  C   UNL     1      43.467   5.551  12.442  0.00  0.00    +0.000 A 
ATOM     20  C   UNL     1      44.699   5.365  13.070  0.00  0.00    +0.000 A 
ENDBRANCH  14  15
ENDBRANCH  12  14
ENDBRANCH   4  12
TORSDOF 4
ENDMDL
MODEL 8
REMARK VINA RESULT:    -5.127      4.455      7.168
REMARK INTER + INTRA:          -6.838
REMARK INTER:                  -6.504
REMARK INTRA:                  -0.334
REMARK UNBOUND:                -0.513
REMARK  Name = 
REMARK  4 active torsions:
REMARK  status: ('A' for Active; 'I' for Inactive)
REMARK    1  A    between atoms: C_2  and  C_4
REMARK    2  A    between atoms: C_7  and  N_8
REMARK    3  A    between atoms: N_8  and  C_9
REMARK    4  A    between atoms: C_9  and  C_10
REMARK                            x       y       z     vdW  Elec       q    Type
REMARK                         _______ _______ _______ _____ _____    ______ ____
ROOT
ATOM      1  C   UNL     1      48.528   5.876  15.598  0.00  0.00    +0.000 A 
ATOM      2  C   UNL     1      47.849   4.797  16.141  0.00  0.00    +0.000 A 
ATOM      3  C   UNL     1      46.916   4.140  15.342  0.00  0.00    +0.000 A 
ATOM      4  C   UNL     1      46.705   4.541  14.020  0.00  0.00    +0.000 A 
ATOM      5  C   UNL     1      47.430   5.651  13.584  0.00  0.00    +0.000 A 
ATOM      6  N   UNL     1      48.331   6.336  14.330  0.00  0.00    +0.000 NA
ENDROOT
BRANCH   1   8
ATOM      7  N   UNL     1      49.962   7.803  15.906  0.00  0.00    +0.000 N 
ATOM      8  C   UNL     1      49.533   6.615  16.428  0.00  0.00    +0.000 C 
ATOM      9  O   UNL     1      49.940   6.194  17.503  0.00  0.00    +0.000 OA
ATOM     10  H   UNL     1      50.624   8.362  16.419  0.00  0.00    +0.000 HD
ATOM     11  H   UNL     1      49.587   8.122  15.019  0.00  0.00    +0.000 HD
ENDBRANCH   1   8
BRANCH   4  12
ATOM     12  N   UNL     1      45.767   3.838  13.268  0.00  0.00    +0.000 N 
ATOM     13  H   UNL     1      45.328   3.096  13.810  0.00  0.00    +0.000 HD
BRANCH  12  14
ATOM     14  C   UNL     1      44.795   4.567  12.461  0.00  0.00    +0.000 C 
BRANCH  14  15
ATOM     15  C   UNL     1      44.927   4.135  11.020  0.00  0.00    +0.000 A 
ATOM     16  C   UNL     1      44.493   2.871  10.598  0.00  0.00    +0.000 A 
ATOM     17  C   UNL     1      44.597   2.500   9.256  0.00  0.00    +0.000 A 
ATOM     18  C   UNL     1      45.131   3.385   8.321  0.00  0.00    +0.000 A 
ATOM     19  C   UNL     1      45.564   4.646   8.726  0.00  0.00    +0.000 A 
ATOM     20  C   UNL     1      45.461   5.019  10.066  0.00  0.00    +0.000 A 
ENDBRANCH  14  15
ENDBRANCH  12  14
ENDBRANCH   4  12
TORSDOF 4
ENDMDL
MODEL 9
REMARK VINA RESULT:    -5.020      3.432      5.380
REMARK INTER + INTRA:          -6.707
REMARK INTER:                  -6.355
REMARK INTRA:                  -0.351
REMARK UNBOUND:                -0.513
REMARK  Name = 
REMARK  4 active torsions:
REMARK  status: ('A' for Active; 'I' for Inactive)
REMARK    1  A    between atoms: C_2  and  C_4
REMARK    2  A    between atoms: C_7  and  N_8
REMARK    3  A    between atoms: N_8  and  C_9
REMARK    4  A    between atoms: C_9  and  C_10
REMARK                            x       y       z     vdW  Elec       q    Type
REMARK                         _______ _______ _______ _____ _____    ______ ____
ROOT
ATOM      1  C   UNL     1      44.877   4.689  11.306  0.00  0.00    +0.000 A 
ATOM      2  C   UNL     1      45.253   4.094  12.500  0.00  0.00    +0.000 A 
ATOM      3  C   UNL     1      46.036   4.834  13.383  0.00  0.00    +0.000 A 
ATOM      4  C   UNL     1      46.395   6.151  13.082  0.00  0.00    +0.000 A 
ATOM      5  C   UNL     1      45.978   6.641  11.844  0.00  0.00    +0.000 A 
ATOM      6  N   UNL     1      45.235   5.953  10.943  0.00  0.00    +0.000 NA
ENDROOT
BRANCH   1   8
ATOM      7  N   UNL     1      44.009   4.438   9.060  0.00  0.00    +0.000 N 
ATOM      8  C   UNL     1      44.044   3.922  10.325  0.00  0.00    +0.000 C 
ATOM      9  O   UNL     1      43.439   2.901  10.626  0.00  0.00    +0.000 OA
ATOM     10  H   UNL     1      43.482   3.965   8.343  0.00  0.00    +0.000 HD
ATOM     11  H   UNL     1      44.537   5.278   8.849  0.00  0.00    +0.000 HD
ENDBRANCH   1   8
BRANCH   4  12
ATOM     12  N   UNL     1      47.170   6.843  14.010  0.00  0.00    +0.000 N 
ATOM     13  H   UNL     1      46.613   7.170  14.797  0.00  0.00    +0.000 HD
BRANCH  12  14
ATOM     14  C   UNL     1      48.446   6.287  14.443  0.00  0.00    +0.000 C 
BRANCH  14  15
ATOM     15  C   UNL     1      48.378   5.989  15.922  0.00  0.00    +0.000 A 
ATOM     16  C   UNL     1      48.818   6.921  16.872  0.00  0.00    +0.000 A 
ATOM     17  C   UNL     1      48.720   6.639  18.236  0.00  0.00    +0.000 A 
ATOM     18  C   UNL     1      48.182   5.428  18.667  0.00  0.00    +0.000 A 
ATOM     19  C   UNL     1      47.737   4.493  17.734  0.00  0.00    +0.000 A 
ATOM     20  C   UNL     1      47.833   4.773  16.370  0.00  0.00    +0.000 A 
ENDBRANCH  14  15
ENDBRANCH  12  14
ENDBRANCH   4  12
TORSDOF 4
ENDMDL
