MODEL 1
REMARK VINA RESULT:    -8.816      0.000      0.000
REMARK INTER + INTRA:         -12.395
REMARK INTER:                 -11.393
REMARK INTRA:                  -1.001
REMARK UNBOUND:                -1.001
REMARK  Name = 
REMARK  5 active torsions:
REMARK  status: ('A' for Active; 'I' for Inactive)
REMARK    1  A    between atoms: C_2  and  C_4
REMARK    2  A    between atoms: C_7  and  N_8
REMARK    3  A    between atoms: N_8  and  C_9
REMARK    4  A    between atoms: C_9  and  C_10
REMARK    5  A    between atoms: C_14  and  C_15
REMARK                            x       y       z     vdW  Elec       q    Type
REMARK                         _______ _______ _______ _____ _____    ______ ____
ROOT
ATOM      1  C   UNL     1      43.706   4.711  11.472  0.00  0.00    +0.000 C 
ENDROOT
BRANCH   1   2
ATOM      2  C   UNL     1      45.068   4.891  12.089  0.00  0.00    +0.000 A 
ATOM      3  C   UNL     1      45.551   3.999  13.048  0.00  0.00    +0.000 A 
ATOM      4  C   UNL     1      46.783   4.250  13.627  0.00  0.00    +0.000 A 
ATOM      5  N   UNL     1      47.549   5.325  13.333  0.00  0.00    +0.000 NA
ATOM      6  C   UNL     1      47.077   6.207  12.417  0.00  0.00    +0.000 A 
ATOM      7  C   UNL     1      45.858   6.001  11.767  0.00  0.00    +0.000 A 
BRANCH   6   8
ATOM      8  C   UNL     1      47.910   7.404  12.184  0.00  0.00    +0.000 A 
ATOM      9  C   UNL     1      47.335   8.685  12.079  0.00  0.00    +0.000 A 
ATOM     10  C   UNL     1      48.118   9.825  11.854  0.00  0.00    +0.000 A 
ATOM     11  C   UNL     1      49.498   9.701  11.727  0.00  0.00    +0.000 A 
ATOM     12  C   UNL     1      50.077   8.447  11.816  0.00  0.00    +0.000 A 
ATOM     13  F   UNL     1      51.407   8.320  11.686  0.00  0.00    +0.000 F 
ATOM     14  C   UNL     1      49.307   7.312  12.037  0.00  0.00    +0.000 A 
ENDBRANCH   6   8
ENDBRANCH   1   2
BRANCH   1  15
ATOM     15  N   UNL     1      43.779   4.826  10.025  0.00  0.00    +0.000 N 
ATOM     16  H   UNL     1      42.879   4.994   9.582  0.00  0.00    +0.000 HD
BRANCH  15  20
ATOM     17  C   UNL     1      46.332   2.272   7.830  0.00  0.00    +0.000 A 
ATOM     18  C   UNL     1      45.438   1.721   8.751  0.00  0.00    +0.000 A 
ATOM     19  C   UNL     1      44.579   2.554   9.481  0.00  0.00    +0.000 A 
ATOM     20  C   UNL     1      44.568   3.941   9.286  0.00  0.00    +0.000 A 
ATOM     21  C   UNL     1      45.484   4.477   8.368  0.00  0.00    +0.000 A 
ATOM     22  C   UNL     1      46.363   3.656   7.651  0.00  0.00    +0.000 A 
BRANCH  17  24
ATOM     23  N   UNL     1      48.390   2.050   6.547  0.00  0.00    +0.000 N 
ATOM     24  C   UNL     1      47.293   1.428   7.074  0.00  0.00    +0.000 C 
ATOM     25  O   UNL     1      47.132   0.220   6.951  0.00  0.00    +0.000 OA
ATOM     26  H   UNL     1      49.083   1.448   6.118  0.00  0.00    +0.000 HD
ATOM     27  H   UNL     1      48.683   2.970   6.839  0.00  0.00    +0.000 HD
ENDBRANCH  17  24
ENDBRANCH  15  20
ENDBRANCH   1  15
TORSDOF 5
ENDMDL
MODEL 2
REMARK VINA RESULT:    -8.614      2.561      3.782
REMARK INTER + INTRA:         -12.133
REMARK INTER:                 -11.399
REMARK INTRA:                  -0.734
REMARK UNBOUND:                -1.001
REMARK  Name = 
REMARK  5 active torsions:
REMARK  status: ('A' for Active; 'I' for Inactive)
REMARK    1  A    between atoms: C_2  and  C_4
REMARK    2  A    between atoms: C_7  and  N_8
REMARK    3  A    between atoms: N_8  and  C_9
REMARK    4  A    between atoms: C_9  and  C_10
REMARK    5  A    between atoms: C_14  and  C_15
REMARK                            x       y       z     vdW  Elec       q    Type
REMARK                         _______ _______ _______ _____ _____    ______ ____
ROOT
ATOM      1  C   UNL     1      43.884   4.724  11.504  0.00  0.00    +0.000 C 
ENDROOT
BRANCH   1   2
ATOM      2  C   UNL     1      45.106   5.389  12.082  0.00  0.00    +0.000 A 
ATOM      3  C   UNL     1      45.814   6.352  11.361  0.00  0.00    +0.000 A 
ATOM      4  C   UNL     1      46.965   6.883  11.917  0.00  0.00    +0.000 A 
ATOM      5  N   UNL     1      47.462   6.512  13.118  0.00  0.00    +0.000 NA
ATOM      6  C   UNL     1      46.791   5.562  13.815  0.00  0.00    +0.000 A 
ATOM      7  C   UNL     1      45.604   5.006  13.333  0.00  0.00    +0.000 A 
BRANCH   6   8
ATOM      8  C   UNL     1      47.411   5.132  15.085  0.00  0.00    +0.000 A 
ATOM      9  C   UNL     1      48.443   5.881  15.685  0.00  0.00    +0.000 A 
ATOM     10  C   UNL     1      49.039   5.477  16.886  0.00  0.00    +0.000 A 
ATOM     11  C   UNL     1      48.613   4.310  17.512  0.00  0.00    +0.000 A 
ATOM     12  C   UNL     1      47.607   3.557  16.928  0.00  0.00    +0.000 A 
ATOM     13  F   UNL     1      47.198   2.425  17.522  0.00  0.00    +0.000 F 
ATOM     14  C   UNL     1      47.013   3.949  15.735  0.00  0.00    +0.000 A 
ENDBRANCH   6   8
ENDBRANCH   1   2
BRANCH   1  15
ATOM     15  N   UNL     1      43.885   4.819  10.054  0.00  0.00    +0.000 N 
ATOM     16  H   UNL     1      42.962   4.968   9.652  0.00  0.00    +0.000 HD
BRANCH  15  20
ATOM     17  C   UNL     1      46.369   2.268   7.778  0.00  0.00    +0.000 A 
ATOM     18  C   UNL     1      45.494   1.715   8.716  0.00  0.00    +0.000 A 
ATOM     19  C   UNL     1      44.659   2.547   9.473  0.00  0.00    +0.000 A 
ATOM     20  C   UNL     1      44.651   3.935   9.289  0.00  0.00    +0.000 A 
ATOM     21  C   UNL     1      45.547   4.473   8.352  0.00  0.00    +0.000 A 
ATOM     22  C   UNL     1      46.403   3.653   7.608  0.00  0.00    +0.000 A 
BRANCH  17  24
ATOM     23  N   UNL     1      48.424   2.031   6.492  0.00  0.00    +0.000 N 
ATOM     24  C   UNL     1      47.306   1.424   6.992  0.00  0.00    +0.000 C 
ATOM     25  O   UNL     1      47.107   0.228   6.821  0.00  0.00    +0.000 OA
ATOM     26  H   UNL     1      49.099   1.425   6.043  0.00  0.00    +0.000 HD
ATOM     27  H   UNL     1      48.745   2.930   6.821  0.00  0.00    +0.000 HD
ENDBRANCH  17  24
ENDBRANCH  15  20
ENDBRANCH   1  15
TORSDOF 5
ENDMDL
MODEL 3
REMARK VINA RESULT:    -8.377      3.636      6.869
REMARK INTER + INTRA:         -11.827
REMARK INTER:                 -10.876
REMARK INTRA:                  -0.951
REMARK UNBOUND:                -1.001
REMARK  Name = 
REMARK  5 active torsions:
REMARK  status: ('A' for Active; 'I' for Inactive)
REMARK    1  A    between atoms: C_2  and  C_4
REMARK    2  A    between atoms: C_7  and  N_8
REMARK    3  A    between atoms: N_8  and  C_9
REMARK    4  A    between atoms: C_9  and  C_10
REMARK    5  A    between atoms: C_14  and  C_15
REMARK                            x       y       z     vdW  Elec       q    Type
REMARK                         _______ _______ _______ _____ _____    ______ ____
ROOT
ATOM      1  C   UNL     1      43.562   6.549  11.372  0.00  0.00    +0.000 C 
ENDROOT
BRANCH   1   2
ATOM      2  C   UNL     1      43.667   5.087  11.024  0.00  0.00    +0.000 A 
ATOM      3  C   UNL     1      43.058   4.110  11.813  0.00  0.00    +0.000 A 
ATOM      4  C   UNL     1      43.242   2.779  11.480  0.00  0.00    +0.000 A 
ATOM      5  N   UNL     1      43.996   2.359  10.440  0.00  0.00    +0.000 NA
ATOM      6  C   UNL     1      44.608   3.302   9.681  0.00  0.00    +0.000 A 
ATOM      7  C   UNL     1      44.441   4.665   9.935  0.00  0.00    +0.000 A 
BRANCH   6   8
ATOM      8  C   UNL     1      45.484   2.797   8.603  0.00  0.00    +0.000 A 
ATOM      9  C   UNL     1      45.971   3.652   7.596  0.00  0.00    +0.000 A 
ATOM     10  C   UNL     1      46.798   3.179   6.569  0.00  0.00    +0.000 A 
ATOM     11  C   UNL     1      47.152   1.834   6.530  0.00  0.00    +0.000 A 
ATOM     12  C   UNL     1      46.671   0.978   7.507  0.00  0.00    +0.000 A 
ATOM     13  F   UNL     1      47.002  -0.322   7.470  0.00  0.00    +0.000 F 
ATOM     14  C   UNL     1      45.848   1.439   8.527  0.00  0.00    +0.000 A 
ENDBRANCH   6   8
ENDBRANCH   1   2
BRANCH   1  15
ATOM     15  N   UNL     1      44.309   6.843  12.583  0.00  0.00    +0.000 N 
ATOM     16  H   UNL     1      43.771   7.349  13.284  0.00  0.00    +0.000 HD
BRANCH  15  20
ATOM     17  C   UNL     1      48.336   8.071  12.215  0.00  0.00    +0.000 A 
ATOM     18  C   UNL     1      47.318   9.021  12.113  0.00  0.00    +0.000 A 
ATOM     19  C   UNL     1      45.978   8.631  12.240  0.00  0.00    +0.000 A 
ATOM     20  C   UNL     1      45.627   7.301  12.505  0.00  0.00    +0.000 A 
ATOM     21  C   UNL     1      46.663   6.359  12.591  0.00  0.00    +0.000 A 
ATOM     22  C   UNL     1      48.004   6.734  12.441  0.00  0.00    +0.000 A 
BRANCH  17  24
ATOM     23  N   UNL     1      50.648   7.415  11.818  0.00  0.00    +0.000 N 
ATOM     24  C   UNL     1      49.765   8.436  12.036  0.00  0.00    +0.000 C 
ATOM     25  O   UNL     1      50.139   9.602  12.052  0.00  0.00    +0.000 OA
ATOM     26  H   UNL     1      51.600   7.686  11.602  0.00  0.00    +0.000 HD
ATOM     27  H   UNL     1      50.349   6.490  11.548  0.00  0.00    +0.000 HD
ENDBRANCH  17  24
ENDBRANCH  15  20
ENDBRANCH   1  15
TORSDOF 5
ENDMDL
MODEL 4
REMARK VINA RESULT:    -8.152      2.248      2.831
REMARK INTER + INTRA:         -11.537
REMARK INTER:                 -10.610
REMARK INTRA:                  -0.927
REMARK UNBOUND:                -1.001
REMARK  Name = 
REMARK  5 active torsions:
REMARK  status: ('A' for Active; 'I' for Inactive)
REMARK    1  A    between atoms: C_2  and  C_4
REMARK    2  A    between atoms: C_7  and  N_8
REMARK    3  A    between atoms: N_8  and  C_9
REMARK    4  A    between atoms: C_9  and  C_10
REMARK    5  A    between atoms: C_14  and  C_15
REMARK                            x       y       z     vdW  Elec       q    Type
REMARK                         _______ _______ _______ _____ _____    ______ ____
ROOT
ATOM      1  C   UNL     1      43.689   3.763  11.815  0.00  0.00    +0.000 C 
ENDROOT
BRANCH   1   2
ATOM      2  C   UNL     1      44.751   4.726  12.278  0.00  0.00    +0.000 A 
ATOM      3  C   UNL     1      45.724   4.340  13.202  0.00  0.00    +0.000 A 
ATOM      4  C   UNL     1      46.636   5.285  13.639  0.00  0.00    +0.000 A 
ATOM      5  N   UNL     1      46.634   6.576  13.237  0.00  0.00    +0.000 NA
ATOM      6  C   UNL     1      45.680   6.964  12.355  0.00  0.00    +0.000 A 
ATOM      7  C   UNL     1      44.747   6.058  11.844  0.00  0.00    +0.000 A 
BRANCH   6   8
ATOM      8  C   UNL     1      45.668   8.399  12.004  0.00  0.00    +0.000 A 
ATOM      9  C   UNL     1      46.762   9.233  12.301  0.00  0.00    +0.000 A 
ATOM     10  C   UNL     1      46.757  10.595  11.974  0.00  0.00    +0.000 A 
ATOM     11  C   UNL     1      45.648  11.150  11.344  0.00  0.00    +0.000 A 
ATOM     12  C   UNL     1      44.559  10.345  11.055  0.00  0.00    +0.000 A 
ATOM     13  F   UNL     1      43.483  10.877  10.455  0.00  0.00    +0.000 F 
ATOM     14  C   UNL     1      44.556   8.994  11.378  0.00  0.00    +0.000 A 
ENDBRANCH   6   8
ENDBRANCH   1   2
BRANCH   1  15
ATOM     15  N   UNL     1      43.503   3.856  10.377  0.00  0.00    +0.000 N 
ATOM     16  H   UNL     1      42.585   3.549  10.062  0.00  0.00    +0.000 HD
BRANCH  15  20
ATOM     17  C   UNL     1      46.446   2.471   7.679  0.00  0.00    +0.000 A 
ATOM     18  C   UNL     1      46.140   3.833   7.721  0.00  0.00    +0.000 A 
ATOM     19  C   UNL     1      45.172   4.309   8.615  0.00  0.00    +0.000 A 
ATOM     20  C   UNL     1      44.517   3.450   9.507  0.00  0.00    +0.000 A 
ATOM     21  C   UNL     1      44.827   2.084   9.440  0.00  0.00    +0.000 A 
ATOM     22  C   UNL     1      45.775   1.594   8.533  0.00  0.00    +0.000 A 
BRANCH  17  24
ATOM     23  N   UNL     1      48.495   2.712   6.386  0.00  0.00    +0.000 N 
ATOM     24  C   UNL     1      47.429   1.921   6.711  0.00  0.00    +0.000 C 
ATOM     25  O   UNL     1      47.312   0.796   6.243  0.00  0.00    +0.000 OA
ATOM     26  H   UNL     1      49.205   2.288   5.801  0.00  0.00    +0.000 HD
ATOM     27  H   UNL     1      48.757   3.520   6.932  0.00  0.00    +0.000 HD
ENDBRANCH  17  24
ENDBRANCH  15  20
ENDBRANCH   1  15
TORSDOF 5
ENDMDL
MODEL 5
REMARK VINA RESULT:    -8.054      3.592      7.092
REMARK INTER + INTRA:         -11.410
REMARK INTER:                 -10.745
REMARK INTRA:                  -0.665
REMARK UNBOUND:                -1.001
REMARK  Name = 
REMARK  5 active torsions:
REMARK  status: ('A' for Active; 'I' for Inactive)
REMARK    1  A    between atoms: C_2  and  C_4
REMARK    2  A    between atoms: C_7  and  N_8
REMARK    3  A    between atoms: N_8  and  C_9
REMARK    4  A    between atoms: C_9  and  C_10
REMARK    5  A    between atoms: C_14  and  C_15
REMARK                            x       y       z     vdW  Elec       q    Type
REMARK                         _______ _______ _______ _____ _____    ______ ____
ROOT
ATOM      1  C   UNL     1      43.496   6.417  11.232  0.00  0.00    +0.000 C 
ENDROOT
BRANCH   1   2
ATOM      2  C   UNL     1      43.637   4.956  10.891  0.00  0.00    +0.000 A 
ATOM      3  C   UNL     1      43.080   3.967  11.702  0.00  0.00    +0.000 A 
ATOM      4  C   UNL     1      43.297   2.640  11.373  0.00  0.00    +0.000 A 
ATOM      5  N   UNL     1      44.036   2.236  10.316  0.00  0.00    +0.000 NA
ATOM      6  C   UNL     1      44.599   3.192   9.535  0.00  0.00    +0.000 A 
ATOM      7  C   UNL     1      44.396   4.551   9.785  0.00  0.00    +0.000 A 
BRANCH   6   8
ATOM      8  C   UNL     1      45.461   2.706   8.438  0.00  0.00    +0.000 A 
ATOM      9  C   UNL     1      46.023   1.415   8.467  0.00  0.00    +0.000 A 
ATOM     10  C   UNL     1      46.845   0.949   7.433  0.00  0.00    +0.000 A 
ATOM     11  C   UNL     1      47.122   1.772   6.347  0.00  0.00    +0.000 A 
ATOM     12  C   UNL     1      46.587   3.049   6.309  0.00  0.00    +0.000 A 
ATOM     13  F   UNL     1      46.859   3.851   5.268  0.00  0.00    +0.000 F 
ATOM     14  C   UNL     1      45.773   3.519   7.332  0.00  0.00    +0.000 A 
ENDBRANCH   6   8
ENDBRANCH   1   2
BRANCH   1  15
ATOM     15  N   UNL     1      44.756   7.113  11.042  0.00  0.00    +0.000 N 
ATOM     16  H   UNL     1      45.188   6.939  10.137  0.00  0.00    +0.000 HD
BRANCH  15  20
ATOM     17  C   UNL     1      47.740   7.134  14.034  0.00  0.00    +0.000 A 
ATOM     18  C   UNL     1      47.112   8.331  13.684  0.00  0.00    +0.000 A 
ATOM     19  C   UNL     1      46.115   8.339  12.699  0.00  0.00    +0.000 A 
ATOM     20  C   UNL     1      45.700   7.159  12.070  0.00  0.00    +0.000 A 
ATOM     21  C   UNL     1      46.354   5.969  12.425  0.00  0.00    +0.000 A 
ATOM     22  C   UNL     1      47.367   5.953  13.391  0.00  0.00    +0.000 A 
BRANCH  17  24
ATOM     23  N   UNL     1      48.483   7.204  16.352  0.00  0.00    +0.000 N 
ATOM     24  C   UNL     1      48.836   7.092  15.036  0.00  0.00    +0.000 C 
ATOM     25  O   UNL     1      50.004   6.933  14.708  0.00  0.00    +0.000 OA
ATOM     26  H   UNL     1      49.227   7.078  17.028  0.00  0.00    +0.000 HD
ATOM     27  H   UNL     1      47.533   7.081  16.671  0.00  0.00    +0.000 HD
ENDBRANCH  17  24
ENDBRANCH  15  20
ENDBRANCH   1  15
TORSDOF 5
ENDMDL
MODEL 6
REMARK VINA RESULT:    -7.924      1.417      2.155
REMARK INTER + INTRA:         -11.241
REMARK INTER:                 -10.366
REMARK INTRA:                  -0.875
REMARK UNBOUND:                -1.001
REMARK  Name = 
REMARK  5 active torsions:
REMARK  status: ('A' for Active; 'I' for Inactive)
REMARK    1  A    between atoms: C_2  and  C_4
REMARK    2  A    between atoms: C_7  and  N_8
REMARK    3  A    between atoms: N_8  and  C_9
REMARK    4  A    between atoms: C_9  and  C_10
REMARK    5  A    between atoms: C_14  and  C_15
REMARK                            x       y       z     vdW  Elec       q    Type
REMARK                         _______ _______ _______ _____ _____    ______ ____
ROOT
ATOM      1  C   UNL     1      44.018   3.896  11.803  0.00  0.00    +0.000 C 
ENDROOT
BRANCH   1   2
ATOM      2  C   UNL     1      44.530   5.312  11.858  0.00  0.00    +0.000 A 
ATOM      3  C   UNL     1      43.745   6.382  11.426  0.00  0.00    +0.000 A 
ATOM      4  C   UNL     1      44.291   7.654  11.440  0.00  0.00    +0.000 A 
ATOM      5  N   UNL     1      45.556   7.926  11.832  0.00  0.00    +0.000 NA
ATOM      6  C   UNL     1      46.332   6.889  12.234  0.00  0.00    +0.000 A 
ATOM      7  C   UNL     1      45.839   5.583  12.279  0.00  0.00    +0.000 A 
BRANCH   6   8
ATOM      8  C   UNL     1      47.729   7.222  12.579  0.00  0.00    +0.000 A 
ATOM      9  C   UNL     1      48.206   7.096  13.898  0.00  0.00    +0.000 A 
ATOM     10  C   UNL     1      49.528   7.414  14.234  0.00  0.00    +0.000 A 
ATOM     11  C   UNL     1      50.401   7.869  13.252  0.00  0.00    +0.000 A 
ATOM     12  C   UNL     1      49.944   8.010  11.952  0.00  0.00    +0.000 A 
ATOM     13  F   UNL     1      50.779   8.456  11.001  0.00  0.00    +0.000 F 
ATOM     14  C   UNL     1      48.633   7.698  11.611  0.00  0.00    +0.000 A 
ENDBRANCH   6   8
ENDBRANCH   1   2
BRANCH   1  15
ATOM     15  N   UNL     1      43.643   3.538  10.446  0.00  0.00    +0.000 N 
ATOM     16  H   UNL     1      42.889   2.856  10.396  0.00  0.00    +0.000 HD
BRANCH  15  20
ATOM     17  C   UNL     1      46.497   2.664   7.455  0.00  0.00    +0.000 A 
ATOM     18  C   UNL     1      46.084   3.984   7.643  0.00  0.00    +0.000 A 
ATOM     19  C   UNL     1      45.144   4.291   8.636  0.00  0.00    +0.000 A 
ATOM     20  C   UNL     1      44.625   3.302   9.481  0.00  0.00    +0.000 A 
ATOM     21  C   UNL     1      45.042   1.979   9.267  0.00  0.00    +0.000 A 
ATOM     22  C   UNL     1      45.962   1.658   8.262  0.00  0.00    +0.000 A 
BRANCH  17  24
ATOM     23  N   UNL     1      47.451   3.057   5.249  0.00  0.00    +0.000 N 
ATOM     24  C   UNL     1      47.453   2.291   6.381  0.00  0.00    +0.000 C 
ATOM     25  O   UNL     1      48.235   1.357   6.509  0.00  0.00    +0.000 OA
ATOM     26  H   UNL     1      48.171   2.851   4.568  0.00  0.00    +0.000 HD
ATOM     27  H   UNL     1      47.014   3.967   5.212  0.00  0.00    +0.000 HD
ENDBRANCH  17  24
ENDBRANCH  15  20
ENDBRANCH   1  15
TORSDOF 5
ENDMDL
MODEL 7
REMARK VINA RESULT:    -7.854      3.765      7.307
REMARK INTER + INTRA:         -11.151
REMARK INTER:                 -10.461
REMARK INTRA:                  -0.690
REMARK UNBOUND:                -1.001
REMARK  Name = 
REMARK  5 active torsions:
REMARK  status: ('A' for Active; 'I' for Inactive)
REMARK    1  A    between atoms: C_2  and  C_4
REMARK    2  A    between atoms: C_7  and  N_8
REMARK    3  A    between atoms: N_8  and  C_9
REMARK    4  A    between atoms: C_9  and  C_10
REMARK    5  A    between atoms: C_14  and  C_15
REMARK                            x       y       z     vdW  Elec       q    Type
REMARK                         _______ _______ _______ _____ _____    ______ ____
ROOT
ATOM      1  C   UNL     1      44.564   6.520  11.811  0.00  0.00    +0.000 C 
ENDROOT
BRANCH   1   2
ATOM      2  C   UNL     1      44.307   5.143  11.256  0.00  0.00    +0.000 A 
ATOM      3  C   UNL     1      43.410   4.270  11.874  0.00  0.00    +0.000 A 
ATOM      4  C   UNL     1      43.262   2.995  11.357  0.00  0.00    +0.000 A 
ATOM      5  N   UNL     1      43.950   2.529  10.290  0.00  0.00    +0.000 NA
ATOM      6  C   UNL     1      44.838   3.365   9.696  0.00  0.00    +0.000 A 
ATOM      7  C   UNL     1      45.016   4.677  10.142  0.00  0.00    +0.000 A 
BRANCH   6   8
ATOM      8  C   UNL     1      45.623   2.791   8.584  0.00  0.00    +0.000 A 
ATOM      9  C   UNL     1      46.071   3.592   7.516  0.00  0.00    +0.000 A 
ATOM     10  C   UNL     1      46.812   3.053   6.456  0.00  0.00    +0.000 A 
ATOM     11  C   UNL     1      47.117   1.696   6.445  0.00  0.00    +0.000 A 
ATOM     12  C   UNL     1      46.672   0.893   7.482  0.00  0.00    +0.000 A 
ATOM     13  F   UNL     1      46.956  -0.419   7.472  0.00  0.00    +0.000 F 
ATOM     14  C   UNL     1      45.935   1.419   8.535  0.00  0.00    +0.000 A 
ENDBRANCH   6   8
ENDBRANCH   1   2
BRANCH   1  15
ATOM     15  N   UNL     1      45.990   6.783  11.890  0.00  0.00    +0.000 N 
ATOM     16  H   UNL     1      46.493   6.578  11.029  0.00  0.00    +0.000 HD
BRANCH  15  20
ATOM     17  C   UNL     1      48.150   5.827  15.394  0.00  0.00    +0.000 A 
ATOM     18  C   UNL     1      47.206   4.924  14.904  0.00  0.00    +0.000 A 
ATOM     19  C   UNL     1      46.487   5.223  13.738  0.00  0.00    +0.000 A 
ATOM     20  C   UNL     1      46.716   6.404  13.022  0.00  0.00    +0.000 A 
ATOM     21  C   UNL     1      47.659   7.305  13.539  0.00  0.00    +0.000 A 
ATOM     22  C   UNL     1      48.365   7.027  14.715  0.00  0.00    +0.000 A 
BRANCH  17  24
ATOM     23  N   UNL     1      48.416   6.151  17.794  0.00  0.00    +0.000 N 
ATOM     24  C   UNL     1      48.896   5.570  16.653  0.00  0.00    +0.000 C 
ATOM     25  O   UNL     1      49.882   4.844  16.682  0.00  0.00    +0.000 OA
ATOM     26  H   UNL     1      48.877   5.890  18.657  0.00  0.00    +0.000 HD
ATOM     27  H   UNL     1      47.485   6.535  17.855  0.00  0.00    +0.000 HD
ENDBRANCH  17  24
ENDBRANCH  15  20
ENDBRANCH   1  15
TORSDOF 5
ENDMDL
MODEL 8
REMARK VINA RESULT:    -7.744      1.995      2.491
REMARK INTER + INTRA:         -11.009
REMARK INTER:                 -10.191
REMARK INTRA:                  -0.817
REMARK UNBOUND:                -1.001
REMARK  Name = 
REMARK  5 active torsions:
REMARK  status: ('A' for Active; 'I' for Inactive)
REMARK    1  A    between atoms: C_2  and  C_4
REMARK    2  A    between atoms: C_7  and  N_8
REMARK    3  A    between atoms: N_8  and  C_9
REMARK    4  A    between atoms: C_9  and  C_10
REMARK    5  A    between atoms: C_14  and  C_15
REMARK                            x       y       z     vdW  Elec       q    Type
REMARK                         _______ _______ _______ _____ _____    ______ ____
ROOT
ATOM      1  C   UNL     1      44.217   4.792  11.677  0.00  0.00    +0.000 C 
ENDROOT
BRANCH   1   2
ATOM      2  C   UNL     1      44.923   6.088  11.980  0.00  0.00    +0.000 A 
ATOM      3  C   UNL     1      44.458   7.301  11.469  0.00  0.00    +0.000 A 
ATOM      4  C   UNL     1      45.183   8.452  11.728  0.00  0.00    +0.000 A 
ATOM      5  N   UNL     1      46.333   8.474  12.437  0.00  0.00    +0.000 NA
ATOM      6  C   UNL     1      46.802   7.296  12.920  0.00  0.00    +0.000 A 
ATOM      7  C   UNL     1      46.107   6.100  12.728  0.00  0.00    +0.000 A 
BRANCH   6   8
ATOM      8  C   UNL     1      48.101   7.356  13.622  0.00  0.00    +0.000 A 
ATOM      9  C   UNL     1      49.171   8.118  13.116  0.00  0.00    +0.000 A 
ATOM     10  C   UNL     1      50.406   8.177  13.773  0.00  0.00    +0.000 A 
ATOM     11  C   UNL     1      50.594   7.467  14.955  0.00  0.00    +0.000 A 
ATOM     12  C   UNL     1      49.555   6.702  15.459  0.00  0.00    +0.000 A 
ATOM     13  F   UNL     1      49.734   6.009  16.594  0.00  0.00    +0.000 F 
ATOM     14  C   UNL     1      48.328   6.638  14.811  0.00  0.00    +0.000 A 
ENDBRANCH   6   8
ENDBRANCH   1   2
BRANCH   1  15
ATOM     15  N   UNL     1      43.896   4.701  10.263  0.00  0.00    +0.000 N 
ATOM     16  H   UNL     1      42.902   4.584  10.076  0.00  0.00    +0.000 HD
BRANCH  15  20
ATOM     17  C   UNL     1      46.441   2.483   7.722  0.00  0.00    +0.000 A 
ATOM     18  C   UNL     1      45.622   1.809   8.629  0.00  0.00    +0.000 A 
ATOM     19  C   UNL     1      44.766   2.530   9.474  0.00  0.00    +0.000 A 
ATOM     20  C   UNL     1      44.683   3.926   9.408  0.00  0.00    +0.000 A 
ATOM     21  C   UNL     1      45.525   4.586   8.500  0.00  0.00    +0.000 A 
ATOM     22  C   UNL     1      46.400   3.877   7.669  0.00  0.00    +0.000 A 
BRANCH  17  24
ATOM     23  N   UNL     1      48.491   2.450   6.408  0.00  0.00    +0.000 N 
ATOM     24  C   UNL     1      47.397   1.758   6.845  0.00  0.00    +0.000 C 
ATOM     25  O   UNL     1      47.234   0.581   6.548  0.00  0.00    +0.000 OA
ATOM     26  H   UNL     1      49.181   1.917   5.892  0.00  0.00    +0.000 HD
ATOM     27  H   UNL     1      48.786   3.318   6.829  0.00  0.00    +0.000 HD
ENDBRANCH  17  24
ENDBRANCH  15  20
ENDBRANCH   1  15
TORSDOF 5
ENDMDL
MODEL 9
REMARK VINA RESULT:    -7.536      2.196      3.489
REMARK INTER + INTRA:         -10.740
REMARK INTER:                 -10.014
REMARK INTRA:                  -0.727
REMARK UNBOUND:                -1.001
REMARK  Name = 
REMARK  5 active torsions:
REMARK  status: ('A' for Active; 'I' for Inactive)
REMARK    1  A    between atoms: C_2  and  C_4
REMARK    2  A    between atoms: C_7  and  N_8
REMARK    3  A    between atoms: N_8  and  C_9
REMARK    4  A    between atoms: C_9  and  C_10
REMARK    5  A    between atoms: C_14  and  C_15
REMARK                            x       y       z     vdW  Elec       q    Type
REMARK                         _______ _______ _______ _____ _____    ______ ____
ROOT
ATOM      1  C   UNL     1      43.588   5.275  10.960  0.00  0.00    +0.000 C 
ENDROOT
BRANCH   1   2
ATOM      2  C   UNL     1      44.676   5.977  11.731  0.00  0.00    +0.000 A 
ATOM      3  C   UNL     1      45.149   7.229  11.337  0.00  0.00    +0.000 A 
ATOM      4  C   UNL     1      46.194   7.797  12.045  0.00  0.00    +0.000 A 
ATOM      5  N   UNL     1      46.803   7.202  13.096  0.00  0.00    +0.000 NA
ATOM      6  C   UNL     1      46.362   5.976  13.472  0.00  0.00    +0.000 A 
ATOM      7  C   UNL     1      45.291   5.356  12.826  0.00  0.00    +0.000 A 
BRANCH   6   8
ATOM      8  C   UNL     1      47.107   5.331  14.573  0.00  0.00    +0.000 A 
ATOM      9  C   UNL     1      46.935   3.966  14.870  0.00  0.00    +0.000 A 
ATOM     10  C   UNL     1      47.634   3.349  15.916  0.00  0.00    +0.000 A 
ATOM     11  C   UNL     1      48.521   4.092  16.688  0.00  0.00    +0.000 A 
ATOM     12  C   UNL     1      48.692   5.439  16.416  0.00  0.00    +0.000 A 
ATOM     13  F   UNL     1      49.539   6.163  17.163  0.00  0.00    +0.000 F 
ATOM     14  C   UNL     1      48.000   6.059  15.382  0.00  0.00    +0.000 A 
ENDBRANCH   6   8
ENDBRANCH   1   2
BRANCH   1  15
ATOM     15  N   UNL     1      43.907   3.868  10.789  0.00  0.00    +0.000 N 
ATOM     16  H   UNL     1      44.166   3.398  11.654  0.00  0.00    +0.000 HD
BRANCH  15  20
ATOM     17  C   UNL     1      46.422   2.736   7.587  0.00  0.00    +0.000 A 
ATOM     18  C   UNL     1      45.836   1.748   8.381  0.00  0.00    +0.000 A 
ATOM     19  C   UNL     1      44.993   2.107   9.441  0.00  0.00    +0.000 A 
ATOM     20  C   UNL     1      44.690   3.447   9.711  0.00  0.00    +0.000 A 
ATOM     21  C   UNL     1      45.300   4.426   8.912  0.00  0.00    +0.000 A 
ATOM     22  C   UNL     1      46.162   4.079   7.865  0.00  0.00    +0.000 A 
BRANCH  17  24
ATOM     23  N   UNL     1      47.177   3.038   5.291  0.00  0.00    +0.000 N 
ATOM     24  C   UNL     1      47.360   2.398   6.486  0.00  0.00    +0.000 C 
ATOM     25  O   UNL     1      48.279   1.605   6.642  0.00  0.00    +0.000 OA
ATOM     26  H   UNL     1      47.880   2.870   4.582  0.00  0.00    +0.000 HD
ATOM     27  H   UNL     1      46.607   3.867   5.203  0.00  0.00    +0.000 HD
ENDBRANCH  17  24
ENDBRANCH  15  20
ENDBRANCH   1  15
TORSDOF 5
ENDMDL
