MODEL 1
REMARK VINA RESULT:    -7.864      0.000      0.000
REMARK INTER + INTRA:         -10.231
REMARK INTER:                  -9.933
REMARK INTRA:                  -0.299
REMARK UNBOUND:                -0.299
REMARK  Name = 
REMARK  5 active torsions:
REMARK  status: ('A' for Active; 'I' for Inactive)
REMARK    1  A    between atoms: N_1  and  C_2
REMARK    2  A    between atoms: C_2  and  C_3
REMARK    3  A    between atoms: C_3  and  C_4
REMARK    4  A    between atoms: C_7  and  C_8
REMARK    5  A    between atoms: C_8  and  N_9
REMARK                            x       y       z     vdW  Elec       q    Type
REMARK                         _______ _______ _______ _____ _____    ______ ____
ROOT
ATOM      1  C   UNL     1      46.114   2.230   7.794  0.00  0.00    +0.000 A 
ATOM      2  C   UNL     1      45.301   1.597   8.742  0.00  0.00    +0.000 A 
ATOM      3  C   UNL     1      44.526   2.347   9.636  0.00  0.00    +0.000 A 
ATOM      4  C   UNL     1      44.548   3.748   9.602  0.00  0.00    +0.000 A 
ATOM      5  C   UNL     1      45.340   4.379   8.632  0.00  0.00    +0.000 A 
ATOM      6  C   UNL     1      46.108   3.628   7.734  0.00  0.00    +0.000 A 
ENDROOT
BRANCH   1   7
ATOM      7  C   UNL     1      47.001   1.425   6.870  0.00  0.00    +0.000 C 
BRANCH   7   8
ATOM      8  C   UNL     1      48.276   2.170   6.459  0.00  0.00    +0.000 C 
BRANCH   8   9
ATOM      9  N   UNL     1      48.272   2.478   5.027  0.00  0.00    +0.000 NA
ATOM     10  H   UNL     1      49.113   3.005   4.794  0.00  0.00    +0.000 HD
ATOM     11  H   UNL     1      47.485   3.090   4.807  0.00  0.00    +0.000 HD
ENDBRANCH   8   9
ENDBRANCH   7   8
ENDBRANCH   1   7
BRANCH   4  12
ATOM     12  C   UNL     1      43.745   4.564  10.586  0.00  0.00    +0.000 C 
BRANCH  12  13
ATOM     13  N   UNL     1      44.583   5.286  11.541  0.00  0.00    +0.000 N 
ATOM     14  C   UNL     1      44.515   6.646  11.761  0.00  0.00    +0.000 A 
ATOM     15  C   UNL     1      45.356   6.956  12.810  0.00  0.00    +0.000 A 
ATOM     16  C   UNL     1      45.937   5.747  13.253  0.00  0.00    +0.000 A 
ATOM     17  N   UNL     1      46.800   5.546  14.273  0.00  0.00    +0.000 NA
ATOM     18  C   UNL     1      47.135   4.260  14.436  0.00  0.00    +0.000 A 
ATOM     19  N   UNL     1      46.720   3.198  13.716  0.00  0.00    +0.000 NA
ATOM     20  C   UNL     1      45.861   3.423  12.700  0.00  0.00    +0.000 A 
ATOM     21  C   UNL     1      45.448   4.718  12.455  0.00  0.00    +0.000 A 
ENDBRANCH  12  13
ENDBRANCH   4  12
TORSDOF 5
ENDMDL
MODEL 2
REMARK VINA RESULT:    -7.533      1.212      2.438
REMARK INTER + INTRA:          -9.813
REMARK INTER:                  -9.330
REMARK INTRA:                  -0.483
REMARK UNBOUND:                -0.299
REMARK  Name = 
REMARK  5 active torsions:
REMARK  status: ('A' for Active; 'I' for Inactive)
REMARK    1  A    between atoms: N_1  and  C_2
REMARK    2  A    between atoms: C_2  and  C_3
REMARK    3  A    between atoms: C_3  and  C_4
REMARK    4  A    between atoms: C_7  and  C_8
REMARK    5  A    between atoms: C_8  and  N_9
REMARK                            x       y       z     vdW  Elec       q    Type
REMARK                         _______ _______ _______ _____ _____    ______ ____
ROOT
ATOM      1  C   UNL     1      46.088   2.358   7.889  0.00  0.00    +0.000 A 
ATOM      2  C   UNL     1      45.282   1.740   8.853  0.00  0.00    +0.000 A 
ATOM      3  C   UNL     1      44.530   2.505   9.754  0.00  0.00    +0.000 A 
ATOM      4  C   UNL     1      44.568   3.906   9.711  0.00  0.00    +0.000 A 
ATOM      5  C   UNL     1      45.352   4.521   8.725  0.00  0.00    +0.000 A 
ATOM      6  C   UNL     1      46.097   3.756   7.820  0.00  0.00    +0.000 A 
ENDROOT
BRANCH   1   7
ATOM      7  C   UNL     1      46.950   1.537   6.956  0.00  0.00    +0.000 C 
BRANCH   7   8
ATOM      8  C   UNL     1      48.247   2.247   6.553  0.00  0.00    +0.000 C 
BRANCH   8   9
ATOM      9  N   UNL     1      48.280   2.514   5.113  0.00  0.00    +0.000 NA
ATOM     10  H   UNL     1      48.376   3.518   4.959  0.00  0.00    +0.000 HD
ATOM     11  H   UNL     1      47.390   2.248   4.692  0.00  0.00    +0.000 HD
ENDBRANCH   8   9
ENDBRANCH   7   8
ENDBRANCH   1   7
BRANCH   4  12
ATOM     12  C   UNL     1      43.790   4.737  10.703  0.00  0.00    +0.000 C 
BRANCH  12  13
ATOM     13  N   UNL     1      44.637   5.321  11.741  0.00  0.00    +0.000 N 
ATOM     14  C   UNL     1      45.401   4.587  12.625  0.00  0.00    +0.000 A 
ATOM     15  C   UNL     1      46.159   5.464  13.371  0.00  0.00    +0.000 A 
ATOM     16  C   UNL     1      45.864   6.769  12.915  0.00  0.00    +0.000 A 
ATOM     17  N   UNL     1      46.383   7.947  13.324  0.00  0.00    +0.000 NA
ATOM     18  C   UNL     1      45.893   8.999  12.656  0.00  0.00    +0.000 A 
ATOM     19  N   UNL     1      44.977   9.000  11.669  0.00  0.00    +0.000 NA
ATOM     20  C   UNL     1      44.468   7.813  11.279  0.00  0.00    +0.000 A 
ATOM     21  C   UNL     1      44.916   6.663  11.902  0.00  0.00    +0.000 A 
ENDBRANCH  12  13
ENDBRANCH   4  12
TORSDOF 5
ENDMDL
MODEL 3
REMARK VINA RESULT:    -7.372      1.506      2.110
REMARK INTER + INTRA:          -9.610
REMARK INTER:                  -9.116
REMARK INTRA:                  -0.493
REMARK UNBOUND:                -0.299
REMARK  Name = 
REMARK  5 active torsions:
REMARK  status: ('A' for Active; 'I' for Inactive)
REMARK    1  A    between atoms: N_1  and  C_2
REMARK    2  A    between atoms: C_2  and  C_3
REMARK    3  A    between atoms: C_3  and  C_4
REMARK    4  A    between atoms: C_7  and  C_8
REMARK    5  A    between atoms: C_8  and  N_9
REMARK                            x       y       z     vdW  Elec       q    Type
REMARK                         _______ _______ _______ _____ _____    ______ ____
ROOT
ATOM      1  C   UNL     1      45.986   2.655   7.922  0.00  0.00    +0.000 A 
ATOM      2  C   UNL     1      45.296   2.126   9.020  0.00  0.00    +0.000 A 
ATOM      3  C   UNL     1      44.821   2.962  10.038  0.00  0.00    +0.000 A 
ATOM      4  C   UNL     1      45.027   4.348   9.981  0.00  0.00    +0.000 A 
ATOM      5  C   UNL     1      45.692   4.878   8.867  0.00  0.00    +0.000 A 
ATOM      6  C   UNL     1      46.160   4.042   7.846  0.00  0.00    +0.000 A 
ENDROOT
BRANCH   1   7
ATOM      7  C   UNL     1      46.556   1.749   6.854  0.00  0.00    +0.000 C 
BRANCH   7   8
ATOM      8  C   UNL     1      47.090   2.514   5.637  0.00  0.00    +0.000 C 
BRANCH   8   9
ATOM      9  N   UNL     1      48.487   2.166   5.364  0.00  0.00    +0.000 NA
ATOM     10  H   UNL     1      48.810   2.688   4.550  0.00  0.00    +0.000 HD
ATOM     11  H   UNL     1      48.555   1.180   5.113  0.00  0.00    +0.000 HD
ENDBRANCH   8   9
ENDBRANCH   7   8
ENDBRANCH   1   7
BRANCH   4  12
ATOM     12  C   UNL     1      44.552   5.252  11.093  0.00  0.00    +0.000 C 
BRANCH  12  13
ATOM     13  N   UNL     1      45.456   5.262  12.241  0.00  0.00    +0.000 N 
ATOM     14  C   UNL     1      45.342   4.420  13.328  0.00  0.00    +0.000 A 
ATOM     15  C   UNL     1      46.430   4.626  14.150  0.00  0.00    +0.000 A 
ATOM     16  C   UNL     1      47.240   5.607  13.536  0.00  0.00    +0.000 A 
ATOM     17  N   UNL     1      48.422   6.111  13.952  0.00  0.00    +0.000 NA
ATOM     18  C   UNL     1      48.936   7.017  13.110  0.00  0.00    +0.000 A 
ATOM     19  N   UNL     1      48.414   7.457  11.948  0.00  0.00    +0.000 NA
ATOM     20  C   UNL     1      47.230   6.944  11.554  0.00  0.00    +0.000 A 
ATOM     21  C   UNL     1      46.621   5.993  12.351  0.00  0.00    +0.000 A 
ENDBRANCH  12  13
ENDBRANCH   4  12
TORSDOF 5
ENDMDL
MODEL 4
REMARK VINA RESULT:    -6.168      1.709      6.381
REMARK INTER + INTRA:          -8.090
REMARK INTER:                  -7.626
REMARK INTRA:                  -0.464
REMARK UNBOUND:                -0.299
REMARK  Name = 
REMARK  5 active torsions:
REMARK  status: ('A' for Active; 'I' for Inactive)
REMARK    1  A    between atoms: N_1  and  C_2
REMARK    2  A    between atoms: C_2  and  C_3
REMARK    3  A    between atoms: C_3  and  C_4
REMARK    4  A    between atoms: C_7  and  C_8
REMARK    5  A    between atoms: C_8  and  N_9
REMARK                            x       y       z     vdW  Elec       q    Type
REMARK                         _______ _______ _______ _____ _____    ______ ____
ROOT
ATOM      1  C   UNL     1      46.597   4.893  13.637  0.00  0.00    +0.000 A 
ATOM      2  C   UNL     1      46.233   5.931  12.770  0.00  0.00    +0.000 A 
ATOM      3  C   UNL     1      45.522   5.664  11.593  0.00  0.00    +0.000 A 
ATOM      4  C   UNL     1      45.158   4.352  11.257  0.00  0.00    +0.000 A 
ATOM      5  C   UNL     1      45.498   3.319  12.142  0.00  0.00    +0.000 A 
ATOM      6  C   UNL     1      46.202   3.588  13.322  0.00  0.00    +0.000 A 
ENDROOT
BRANCH   1   7
ATOM      7  C   UNL     1      47.420   5.169  14.875  0.00  0.00    +0.000 C 
BRANCH   7   8
ATOM      8  C   UNL     1      47.153   4.174  16.011  0.00  0.00    +0.000 C 
BRANCH   8   9
ATOM      9  N   UNL     1      48.325   3.332  16.265  0.00  0.00    +0.000 NA
ATOM     10  H   UNL     1      48.993   3.448  15.503  0.00  0.00    +0.000 HD
ATOM     11  H   UNL     1      48.053   2.349  16.255  0.00  0.00    +0.000 HD
ENDBRANCH   8   9
ENDBRANCH   7   8
ENDBRANCH   1   7
BRANCH   4  12
ATOM     12  C   UNL     1      44.424   4.052   9.973  0.00  0.00    +0.000 C 
BRANCH  12  13
ATOM     13  N   UNL     1      45.325   3.843   8.841  0.00  0.00    +0.000 N 
ATOM     14  C   UNL     1      45.954   4.858   8.151  0.00  0.00    +0.000 A 
ATOM     15  C   UNL     1      46.816   4.289   7.237  0.00  0.00    +0.000 A 
ATOM     16  C   UNL     1      46.723   2.887   7.388  0.00  0.00    +0.000 A 
ATOM     17  N   UNL     1      47.400   1.918   6.734  0.00  0.00    +0.000 NA
ATOM     18  C   UNL     1      47.082   0.684   7.145  0.00  0.00    +0.000 A 
ATOM     19  N   UNL     1      46.197   0.330   8.098  0.00  0.00    +0.000 NA
ATOM     20  C   UNL     1      45.529   1.314   8.735  0.00  0.00    +0.000 A 
ATOM     21  C   UNL     1      45.792   2.625   8.388  0.00  0.00    +0.000 A 
ENDBRANCH  12  13
ENDBRANCH   4  12
TORSDOF 5
ENDMDL
MODEL 5
REMARK VINA RESULT:    -6.061      1.664      2.449
REMARK INTER + INTRA:          -7.954
REMARK INTER:                  -7.569
REMARK INTRA:                  -0.385
REMARK UNBOUND:                -0.299
REMARK  Name = 
REMARK  5 active torsions:
REMARK  status: ('A' for Active; 'I' for Inactive)
REMARK    1  A    between atoms: N_1  and  C_2
REMARK    2  A    between atoms: C_2  and  C_3
REMARK    3  A    between atoms: C_3  and  C_4
REMARK    4  A    between atoms: C_7  and  C_8
REMARK    5  A    between atoms: C_8  and  N_9
REMARK                            x       y       z     vdW  Elec       q    Type
REMARK                         _______ _______ _______ _____ _____    ______ ____
ROOT
ATOM      1  C   UNL     1      45.350   3.462   8.686  0.00  0.00    +0.000 A 
ATOM      2  C   UNL     1      45.840   4.765   8.838  0.00  0.00    +0.000 A 
ATOM      3  C   UNL     1      45.536   5.515   9.981  0.00  0.00    +0.000 A 
ATOM      4  C   UNL     1      44.735   4.978  10.998  0.00  0.00    +0.000 A 
ATOM      5  C   UNL     1      44.271   3.663  10.857  0.00  0.00    +0.000 A 
ATOM      6  C   UNL     1      44.581   2.911   9.718  0.00  0.00    +0.000 A 
ENDROOT
BRANCH   1   7
ATOM      7  C   UNL     1      45.622   2.672   7.425  0.00  0.00    +0.000 C 
BRANCH   7   8
ATOM      8  C   UNL     1      47.072   2.792   6.940  0.00  0.00    +0.000 C 
BRANCH   8   9
ATOM      9  N   UNL     1      47.145   3.496   5.658  0.00  0.00    +0.000 NA
ATOM     10  H   UNL     1      48.110   3.777   5.483  0.00  0.00    +0.000 HD
ATOM     11  H   UNL     1      46.604   4.359   5.705  0.00  0.00    +0.000 HD
ENDBRANCH   8   9
ENDBRANCH   7   8
ENDBRANCH   1   7
BRANCH   4  12
ATOM     12  C   UNL     1      44.372   5.794  12.216  0.00  0.00    +0.000 C 
BRANCH  12  13
ATOM     13  N   UNL     1      45.351   6.838  12.511  0.00  0.00    +0.000 N 
ATOM     14  C   UNL     1      45.160   8.179  12.249  0.00  0.00    +0.000 A 
ATOM     15  C   UNL     1      46.229   8.877  12.770  0.00  0.00    +0.000 A 
ATOM     16  C   UNL     1      47.086   7.936  13.384  0.00  0.00    +0.000 A 
ATOM     17  N   UNL     1      48.240   8.152  14.052  0.00  0.00    +0.000 NA
ATOM     18  C   UNL     1      48.790   7.029  14.532  0.00  0.00    +0.000 A 
ATOM     19  N   UNL     1      48.330   5.767  14.417  0.00  0.00    +0.000 NA
ATOM     20  C   UNL     1      47.177   5.575  13.743  0.00  0.00    +0.000 A 
ATOM     21  C   UNL     1      46.527   6.674  13.215  0.00  0.00    +0.000 A 
ENDBRANCH  12  13
ENDBRANCH   4  12
TORSDOF 5
ENDMDL
MODEL 6
REMARK VINA RESULT:    -5.961      2.726      5.848
REMARK INTER + INTRA:          -7.827
REMARK INTER:                  -7.418
REMARK INTRA:                  -0.409
REMARK UNBOUND:                -0.299
REMARK  Name = 
REMARK  5 active torsions:
REMARK  status: ('A' for Active; 'I' for Inactive)
REMARK    1  A    between atoms: N_1  and  C_2
REMARK    2  A    between atoms: C_2  and  C_3
REMARK    3  A    between atoms: C_3  and  C_4
REMARK    4  A    between atoms: C_7  and  C_8
REMARK    5  A    between atoms: C_8  and  N_9
REMARK                            x       y       z     vdW  Elec       q    Type
REMARK                         _______ _______ _______ _____ _____    ______ ____
ROOT
ATOM      1  C   UNL     1      48.339   7.471  12.888  0.00  0.00    +0.000 A 
ATOM      2  C   UNL     1      47.947   6.199  13.325  0.00  0.00    +0.000 A 
ATOM      3  C   UNL     1      46.637   5.745  13.126  0.00  0.00    +0.000 A 
ATOM      4  C   UNL     1      45.688   6.555  12.486  0.00  0.00    +0.000 A 
ATOM      5  C   UNL     1      46.090   7.815  12.023  0.00  0.00    +0.000 A 
ATOM      6  C   UNL     1      47.402   8.265  12.216  0.00  0.00    +0.000 A 
ENDROOT
BRANCH   1   7
ATOM      7  C   UNL     1      49.733   7.989  13.157  0.00  0.00    +0.000 C 
BRANCH   7   8
ATOM      8  C   UNL     1      50.476   8.410  11.884  0.00  0.00    +0.000 C 
BRANCH   8   9
ATOM      9  N   UNL     1      51.099   7.258  11.228  0.00  0.00    +0.000 NA
ATOM     10  H   UNL     1      50.806   6.403  11.700  0.00  0.00    +0.000 HD
ATOM     11  H   UNL     1      52.112   7.306  11.335  0.00  0.00    +0.000 HD
ENDBRANCH   8   9
ENDBRANCH   7   8
ENDBRANCH   1   7
BRANCH   4  12
ATOM     12  C   UNL     1      44.264   6.088  12.302  0.00  0.00    +0.000 C 
BRANCH  12  13
ATOM     13  N   UNL     1      44.176   4.758  11.705  0.00  0.00    +0.000 N 
ATOM     14  C   UNL     1      43.507   3.693  12.273  0.00  0.00    +0.000 A 
ATOM     15  C   UNL     1      43.528   2.643  11.379  0.00  0.00    +0.000 A 
ATOM     16  C   UNL     1      44.213   3.087  10.225  0.00  0.00    +0.000 A 
ATOM     17  N   UNL     1      44.455   2.422   9.075  0.00  0.00    +0.000 NA
ATOM     18  C   UNL     1      45.115   3.155   8.170  0.00  0.00    +0.000 A 
ATOM     19  N   UNL     1      45.543   4.427   8.288  0.00  0.00    +0.000 NA
ATOM     20  C   UNL     1      45.294   5.072   9.446  0.00  0.00    +0.000 A 
ATOM     21  C   UNL     1      44.610   4.403  10.443  0.00  0.00    +0.000 A 
ENDBRANCH  12  13
ENDBRANCH   4  12
TORSDOF 5
ENDMDL
MODEL 7
REMARK VINA RESULT:    -5.887      2.318      6.561
REMARK INTER + INTRA:          -7.734
REMARK INTER:                  -7.457
REMARK INTRA:                  -0.277
REMARK UNBOUND:                -0.299
REMARK  Name = 
REMARK  5 active torsions:
REMARK  status: ('A' for Active; 'I' for Inactive)
REMARK    1  A    between atoms: N_1  and  C_2
REMARK    2  A    between atoms: C_2  and  C_3
REMARK    3  A    between atoms: C_3  and  C_4
REMARK    4  A    between atoms: C_7  and  C_8
REMARK    5  A    between atoms: C_8  and  N_9
REMARK                            x       y       z     vdW  Elec       q    Type
REMARK                         _______ _______ _______ _____ _____    ______ ____
ROOT
ATOM      1  C   UNL     1      48.016   7.253  13.844  0.00  0.00    +0.000 A 
ATOM      2  C   UNL     1      47.092   8.272  13.580  0.00  0.00    +0.000 A 
ATOM      3  C   UNL     1      45.890   7.993  12.916  0.00  0.00    +0.000 A 
ATOM      4  C   UNL     1      45.587   6.689  12.501  0.00  0.00    +0.000 A 
ATOM      5  C   UNL     1      46.500   5.667  12.793  0.00  0.00    +0.000 A 
ATOM      6  C   UNL     1      47.698   5.945  13.463  0.00  0.00    +0.000 A 
ENDROOT
BRANCH   1   7
ATOM      7  C   UNL     1      49.342   7.560  14.503  0.00  0.00    +0.000 C 
BRANCH   7   8
ATOM      8  C   UNL     1      49.360   7.236  16.001  0.00  0.00    +0.000 C 
BRANCH   8   9
ATOM      9  N   UNL     1      49.888   5.892  16.247  0.00  0.00    +0.000 NA
ATOM     10  H   UNL     1      49.248   5.202  15.855  0.00  0.00    +0.000 HD
ATOM     11  H   UNL     1      49.920   5.711  17.250  0.00  0.00    +0.000 HD
ENDBRANCH   8   9
ENDBRANCH   7   8
ENDBRANCH   1   7
BRANCH   4  12
ATOM     12  C   UNL     1      44.311   6.388  11.751  0.00  0.00    +0.000 C 
BRANCH  12  13
ATOM     13  N   UNL     1      44.223   4.994  11.320  0.00  0.00    +0.000 N 
ATOM     14  C   UNL     1      43.484   4.026  11.968  0.00  0.00    +0.000 A 
ATOM     15  C   UNL     1      43.533   2.870  11.216  0.00  0.00    +0.000 A 
ATOM     16  C   UNL     1      44.308   3.150  10.068  0.00  0.00    +0.000 A 
ATOM     17  N   UNL     1      44.607   2.338   9.030  0.00  0.00    +0.000 NA
ATOM     18  C   UNL     1      45.350   2.936   8.090  0.00  0.00    +0.000 A 
ATOM     19  N   UNL     1      45.808   4.203   8.077  0.00  0.00    +0.000 NA
ATOM     20  C   UNL     1      45.501   4.995   9.126  0.00  0.00    +0.000 A 
ATOM     21  C   UNL     1      44.730   4.473  10.147  0.00  0.00    +0.000 A 
ENDBRANCH  12  13
ENDBRANCH   4  12
TORSDOF 5
ENDMDL
MODEL 8
REMARK VINA RESULT:    -5.834      1.920      6.475
REMARK INTER + INTRA:          -7.667
REMARK INTER:                  -7.205
REMARK INTRA:                  -0.462
REMARK UNBOUND:                -0.299
REMARK  Name = 
REMARK  5 active torsions:
REMARK  status: ('A' for Active; 'I' for Inactive)
REMARK    1  A    between atoms: N_1  and  C_2
REMARK    2  A    between atoms: C_2  and  C_3
REMARK    3  A    between atoms: C_3  and  C_4
REMARK    4  A    between atoms: C_7  and  C_8
REMARK    5  A    between atoms: C_8  and  N_9
REMARK                            x       y       z     vdW  Elec       q    Type
REMARK                         _______ _______ _______ _____ _____    ______ ____
ROOT
ATOM      1  C   UNL     1      46.545   5.893  12.734  0.00  0.00    +0.000 A 
ATOM      2  C   UNL     1      46.611   6.515  11.481  0.00  0.00    +0.000 A 
ATOM      3  C   UNL     1      45.932   5.980  10.380  0.00  0.00    +0.000 A 
ATOM      4  C   UNL     1      45.172   4.809  10.506  0.00  0.00    +0.000 A 
ATOM      5  C   UNL     1      45.082   4.206  11.769  0.00  0.00    +0.000 A 
ATOM      6  C   UNL     1      45.755   4.746  12.871  0.00  0.00    +0.000 A 
ENDROOT
BRANCH   1   7
ATOM      7  C   UNL     1      47.327   6.432  13.911  0.00  0.00    +0.000 C 
BRANCH   7   8
ATOM      8  C   UNL     1      48.564   7.237  13.494  0.00  0.00    +0.000 C 
BRANCH   8   9
ATOM      9  N   UNL     1      49.749   6.815  14.245  0.00  0.00    +0.000 NA
ATOM     10  H   UNL     1      49.685   7.165  15.200  0.00  0.00    +0.000 HD
ATOM     11  H   UNL     1      50.583   7.242  13.843  0.00  0.00    +0.000 HD
ENDBRANCH   8   9
ENDBRANCH   7   8
ENDBRANCH   1   7
BRANCH   4  12
ATOM     12  C   UNL     1      44.468   4.204   9.315  0.00  0.00    +0.000 C 
BRANCH  12  13
ATOM     13  N   UNL     1      45.114   2.986   8.833  0.00  0.00    +0.000 N 
ATOM     14  C   UNL     1      44.689   1.709   9.135  0.00  0.00    +0.000 A 
ATOM     15  C   UNL     1      45.453   0.816   8.412  0.00  0.00    +0.000 A 
ATOM     16  C   UNL     1      46.356   1.573   7.633  0.00  0.00    +0.000 A 
ATOM     17  N   UNL     1      47.279   1.140   6.746  0.00  0.00    +0.000 NA
ATOM     18  C   UNL     1      47.955   2.135   6.159  0.00  0.00    +0.000 A 
ATOM     19  N   UNL     1      47.816   3.461   6.358  0.00  0.00    +0.000 NA
ATOM     20  C   UNL     1      46.892   3.871   7.251  0.00  0.00    +0.000 A 
ATOM     21  C   UNL     1      46.134   2.919   7.905  0.00  0.00    +0.000 A 
ENDBRANCH  12  13
ENDBRANCH   4  12
TORSDOF 5
ENDMDL
MODEL 9
REMARK VINA RESULT:    -5.248      2.952      4.223
REMARK INTER + INTRA:          -6.927
REMARK INTER:                  -6.562
REMARK INTRA:                  -0.365
REMARK UNBOUND:                -0.299
REMARK  Name = 
REMARK  5 active torsions:
REMARK  status: ('A' for Active; 'I' for Inactive)
REMARK    1  A    between atoms: N_1  and  C_2
REMARK    2  A    between atoms: C_2  and  C_3
REMARK    3  A    between atoms: C_3  and  C_4
REMARK    4  A    between atoms: C_7  and  C_8
REMARK    5  A    between atoms: C_8  and  N_9
REMARK                            x       y       z     vdW  Elec       q    Type
REMARK                         _______ _______ _______ _____ _____    ______ ____
ROOT
ATOM      1  C   UNL     1      44.922   3.732  10.779  0.00  0.00    +0.000 A 
ATOM      2  C   UNL     1      45.291   3.607  12.124  0.00  0.00    +0.000 A 
ATOM      3  C   UNL     1      45.718   4.722  12.857  0.00  0.00    +0.000 A 
ATOM      4  C   UNL     1      45.787   5.988  12.259  0.00  0.00    +0.000 A 
ATOM      5  C   UNL     1      45.389   6.116  10.921  0.00  0.00    +0.000 A 
ATOM      6  C   UNL     1      44.955   5.002  10.192  0.00  0.00    +0.000 A 
ENDROOT
BRANCH   1   7
ATOM      7  C   UNL     1      44.522   2.521   9.968  0.00  0.00    +0.000 C 
BRANCH   7   8
ATOM      8  C   UNL     1      45.227   2.445   8.609  0.00  0.00    +0.000 C 
BRANCH   8   9
ATOM      9  N   UNL     1      46.002   1.209   8.482  0.00  0.00    +0.000 NA
ATOM     10  H   UNL     1      46.996   1.426   8.553  0.00  0.00    +0.000 HD
ATOM     11  H   UNL     1      45.867   0.810   7.553  0.00  0.00    +0.000 HD
ENDBRANCH   8   9
ENDBRANCH   7   8
ENDBRANCH   1   7
BRANCH   4  12
ATOM     12  C   UNL     1      46.282   7.188  13.030  0.00  0.00    +0.000 C 
BRANCH  12  13
ATOM     13  N   UNL     1      47.722   7.395  12.893  0.00  0.00    +0.000 N 
ATOM     14  C   UNL     1      48.336   7.852  11.745  0.00  0.00    +0.000 A 
ATOM     15  C   UNL     1      49.675   8.043  12.018  0.00  0.00    +0.000 A 
ATOM     16  C   UNL     1      49.878   7.712  13.377  0.00  0.00    +0.000 A 
ATOM     17  N   UNL     1      51.016   7.771  14.102  0.00  0.00    +0.000 NA
ATOM     18  C   UNL     1      50.848   7.405  15.379  0.00  0.00    +0.000 A 
ATOM     19  N   UNL     1      49.712   6.999  15.981  0.00  0.00    +0.000 NA
ATOM     20  C   UNL     1      48.589   6.943  15.237  0.00  0.00    +0.000 A 
ATOM     21  C   UNL     1      48.656   7.310  13.907  0.00  0.00    +0.000 A 
ENDBRANCH  12  13
ENDBRANCH   4  12
TORSDOF 5
ENDMDL
