MODEL 1
REMARK VINA RESULT:    -7.320      0.000      0.000
REMARK INTER + INTRA:         -12.516
REMARK INTER:                 -10.743
REMARK INTRA:                  -1.773
REMARK UNBOUND:                -1.773
REMARK  Name = 
REMARK  10 active torsions:
REMARK  status: ('A' for Active; 'I' for Inactive)
REMARK    1  A    between atoms: C_1  and  C_2
REMARK    2  A    between atoms: C_2  and  N_3
REMARK    3  A    between atoms: N_3  and  C_4
REMARK    4  A    between atoms: N_3  and  C_25
REMARK    5  A    between atoms: C_4  and  C_5
REMARK    6  A    between atoms: C_8  and  C_9
REMARK    7  A    between atoms: C_9  and  N_10
REMARK    8  A    between atoms: C_11  and  C_13
REMARK    9  A    between atoms: C_25  and  C_26
REMARK   10  A    between atoms: C_25  and  C_27
REMARK                            x       y       z     vdW  Elec       q    Type
REMARK                         _______ _______ _______ _____ _____    ______ ____
ROOT
ATOM      1  C   UNL     1      49.018   7.627  16.130  0.00  0.00    +0.000 A 
ATOM      2  C   UNL     1      49.113   6.556  15.229  0.00  0.00    +0.000 A 
ATOM      3  C   UNL     1      48.587   6.650  13.936  0.00  0.00    +0.000 A 
ATOM      4  C   UNL     1      47.937   7.818  13.519  0.00  0.00    +0.000 A 
ATOM      5  C   UNL     1      47.853   8.894  14.406  0.00  0.00    +0.000 A 
ATOM      6  C   UNL     1      48.394   8.802  15.690  0.00  0.00    +0.000 A 
ENDROOT
BRANCH   1   7
ATOM      7  C   UNL     1      49.423   7.474  17.583  0.00  0.00    +0.000 C 
BRANCH   7   8
ATOM      8  N   UNL     1      48.737   6.476  18.430  0.00  0.00    +0.000 NA
BRANCH   8  10
ATOM      9  C   UNL     1      47.365   8.421  19.371  0.00  0.00    +0.000 C 
ATOM     10  C   UNL     1      48.056   7.076  19.597  0.00  0.00    +0.000 C 
ENDBRANCH   8  10
BRANCH   8  11
ATOM     11  C   UNL     1      49.571   5.302  18.825  0.00  0.00    +0.000 C 
ATOM     12  C   UNL     1      49.252   4.800  20.251  0.00  0.00    +0.000 C 
BRANCH  11  13
ATOM     13  C   UNL     1      49.470   4.071  17.921  0.00  0.00    +0.000 A 
ATOM     14  C   UNL     1      50.602   3.258  17.749  0.00  0.00    +0.000 A 
ATOM     15  C   UNL     1      50.523   2.153  16.916  0.00  0.00    +0.000 A 
ATOM     16  N   UNL     1      49.406   1.794  16.254  0.00  0.00    +0.000 NA
ATOM     17  C   UNL     1      48.311   2.558  16.461  0.00  0.00    +0.000 A 
ATOM     18  C   UNL     1      48.288   3.676  17.287  0.00  0.00    +0.000 A 
ENDBRANCH  11  13
ENDBRANCH   8  11
ENDBRANCH   7   8
ENDBRANCH   1   7
BRANCH   4  19
ATOM     19  C   UNL     1      47.222   7.883  12.195  0.00  0.00    +0.000 C 
BRANCH  19  20
ATOM     20  N   UNL     1      46.610   6.611  11.896  0.00  0.00    +0.000 N 
ATOM     21  C   UNL     1      45.262   6.495  11.687  0.00  0.00    +0.000 C 
ATOM     22  O   UNL     1      44.518   7.473  11.692  0.00  0.00    +0.000 OA
ATOM     23  H   UNL     1      47.159   5.780  12.096  0.00  0.00    +0.000 HD
BRANCH  21  24
ATOM     24  C   UNL     1      44.756   5.148  11.393  0.00  0.00    +0.000 A 
ATOM     25  C   UNL     1      44.005   4.474  12.346  0.00  0.00    +0.000 A 
ATOM     26  S   UNL     1      43.446   2.950  11.828  0.00  0.00    +0.000 S 
ATOM     27  C   UNL     1      44.232   3.113  10.328  0.00  0.00    +0.000 A 
ATOM     28  N   UNL     1      44.166   2.123   9.394  0.00  0.00    +0.000 NA
ATOM     29  C   UNL     1      44.828   2.366   8.313  0.00  0.00    +0.000 A 
ATOM     30  N   UNL     1      45.551   3.507   8.079  0.00  0.00    +0.000 N 
ATOM     31  C   UNL     1      45.629   4.541   8.982  0.00  0.00    +0.000 A 
ATOM     32  O   UNL     1      46.267   5.557   8.732  0.00  0.00    +0.000 OA
ATOM     33  C   UNL     1      44.901   4.317  10.218  0.00  0.00    +0.000 A 
ATOM     34  H   UNL     1      46.049   3.633   7.212  0.00  0.00    +0.000 HD
ENDBRANCH  21  24
ENDBRANCH  19  20
ENDBRANCH   4  19
TORSDOF 8
ENDMDL
MODEL 2
REMARK VINA RESULT:    -7.228      1.487      2.241
REMARK INTER + INTRA:         -12.381
REMARK INTER:                 -10.638
REMARK INTRA:                  -1.744
REMARK UNBOUND:                -1.773
REMARK  Name = 
REMARK  10 active torsions:
REMARK  status: ('A' for Active; 'I' for Inactive)
REMARK    1  A    between atoms: C_1  and  C_2
REMARK    2  A    between atoms: C_2  and  N_3
REMARK    3  A    between atoms: N_3  and  C_4
REMARK    4  A    between atoms: N_3  and  C_25
REMARK    5  A    between atoms: C_4  and  C_5
REMARK    6  A    between atoms: C_8  and  C_9
REMARK    7  A    between atoms: C_9  and  N_10
REMARK    8  A    between atoms: C_11  and  C_13
REMARK    9  A    between atoms: C_25  and  C_26
REMARK   10  A    between atoms: C_25  and  C_27
REMARK                            x       y       z     vdW  Elec       q    Type
REMARK                         _______ _______ _______ _____ _____    ______ ____
ROOT
ATOM      1  C   UNL     1      49.853   7.079  15.951  0.00  0.00    +0.000 A 
ATOM      2  C   UNL     1      48.684   6.484  15.456  0.00  0.00    +0.000 A 
ATOM      3  C   UNL     1      48.247   6.724  14.148  0.00  0.00    +0.000 A 
ATOM      4  C   UNL     1      48.965   7.584  13.309  0.00  0.00    +0.000 A 
ATOM      5  C   UNL     1      50.140   8.168  13.791  0.00  0.00    +0.000 A 
ATOM      6  C   UNL     1      50.581   7.912  15.090  0.00  0.00    +0.000 A 
ENDROOT
BRANCH   1   7
ATOM      7  C   UNL     1      50.237   6.968  17.414  0.00  0.00    +0.000 C 
BRANCH   7   8
ATOM      8  N   UNL     1      49.288   6.368  18.374  0.00  0.00    +0.000 NA
BRANCH   8  10
ATOM      9  C   UNL     1      47.641   8.200  19.071  0.00  0.00    +0.000 C 
ATOM     10  C   UNL     1      48.840   7.316  19.416  0.00  0.00    +0.000 C 
ENDBRANCH   8  10
BRANCH   8  11
ATOM     11  C   UNL     1      49.724   5.068  18.965  0.00  0.00    +0.000 C 
ATOM     12  C   UNL     1      48.876   4.659  20.189  0.00  0.00    +0.000 C 
BRANCH  11  13
ATOM     13  C   UNL     1      49.700   3.860  18.024  0.00  0.00    +0.000 A 
ATOM     14  C   UNL     1      48.502   3.530  17.370  0.00  0.00    +0.000 A 
ATOM     15  C   UNL     1      48.469   2.426  16.533  0.00  0.00    +0.000 A 
ATOM     16  N   UNL     1      49.534   1.639  16.290  0.00  0.00    +0.000 NA
ATOM     17  C   UNL     1      50.692   1.992  16.891  0.00  0.00    +0.000 A 
ATOM     18  C   UNL     1      50.829   3.086  17.735  0.00  0.00    +0.000 A 
ENDBRANCH  11  13
ENDBRANCH   8  11
ENDBRANCH   7   8
ENDBRANCH   1   7
BRANCH   4  19
ATOM     19  C   UNL     1      48.430   7.986  11.960  0.00  0.00    +0.000 C 
BRANCH  19  20
ATOM     20  N   UNL     1      47.670   6.903  11.384  0.00  0.00    +0.000 N 
ATOM     21  C   UNL     1      46.301   6.907  11.384  0.00  0.00    +0.000 C 
ATOM     22  O   UNL     1      45.655   7.855  11.826  0.00  0.00    +0.000 OA
ATOM     23  H   UNL     1      48.167   6.034  11.213  0.00  0.00    +0.000 HD
BRANCH  21  24
ATOM     24  C   UNL     1      45.640   5.749  10.770  0.00  0.00    +0.000 A 
ATOM     25  C   UNL     1      45.733   5.551   9.400  0.00  0.00    +0.000 A 
ATOM     26  S   UNL     1      44.961   4.132   8.856  0.00  0.00    +0.000 S 
ATOM     27  C   UNL     1      44.426   3.758  10.426  0.00  0.00    +0.000 A 
ATOM     28  N   UNL     1      43.675   2.647  10.663  0.00  0.00    +0.000 NA
ATOM     29  C   UNL     1      43.316   2.497  11.893  0.00  0.00    +0.000 A 
ATOM     30  N   UNL     1      43.638   3.357  12.911  0.00  0.00    +0.000 N 
ATOM     31  C   UNL     1      44.412   4.479  12.726  0.00  0.00    +0.000 A 
ATOM     32  O   UNL     1      44.700   5.215  13.662  0.00  0.00    +0.000 OA
ATOM     33  C   UNL     1      44.841   4.694  11.356  0.00  0.00    +0.000 A 
ATOM     34  H   UNL     1      43.324   3.182  13.853  0.00  0.00    +0.000 HD
ENDBRANCH  21  24
ENDBRANCH  19  20
ENDBRANCH   4  19
TORSDOF 8
ENDMDL
MODEL 3
REMARK VINA RESULT:    -6.364      5.147      8.222
REMARK INTER + INTRA:         -11.114
REMARK INTER:                  -9.678
REMARK INTRA:                  -1.436
REMARK UNBOUND:                -1.773
REMARK  Name = 
REMARK  10 active torsions:
REMARK  status: ('A' for Active; 'I' for Inactive)
REMARK    1  A    between atoms: C_1  and  C_2
REMARK    2  A    between atoms: C_2  and  N_3
REMARK    3  A    between atoms: N_3  and  C_4
REMARK    4  A    between atoms: N_3  and  C_25
REMARK    5  A    between atoms: C_4  and  C_5
REMARK    6  A    between atoms: C_8  and  C_9
REMARK    7  A    between atoms: C_9  and  N_10
REMARK    8  A    between atoms: C_11  and  C_13
REMARK    9  A    between atoms: C_25  and  C_26
REMARK   10  A    between atoms: C_25  and  C_27
REMARK                            x       y       z     vdW  Elec       q    Type
REMARK                         _______ _______ _______ _____ _____    ______ ____
ROOT
ATOM      1  C   UNL     1      46.845   6.071  13.053  0.00  0.00    +0.000 A 
ATOM      2  C   UNL     1      47.796   6.236  14.070  0.00  0.00    +0.000 A 
ATOM      3  C   UNL     1      48.973   6.962  13.850  0.00  0.00    +0.000 A 
ATOM      4  C   UNL     1      49.231   7.527  12.596  0.00  0.00    +0.000 A 
ATOM      5  C   UNL     1      48.281   7.380  11.583  0.00  0.00    +0.000 A 
ATOM      6  C   UNL     1      47.101   6.669  11.812  0.00  0.00    +0.000 A 
ENDROOT
BRANCH   1   7
ATOM      7  C   UNL     1      45.659   5.142  13.225  0.00  0.00    +0.000 C 
BRANCH   7   8
ATOM      8  N   UNL     1      44.732   4.926  12.095  0.00  0.00    +0.000 NA
BRANCH   8  10
ATOM      9  C   UNL     1      42.708   6.332  11.399  0.00  0.00    +0.000 C 
ATOM     10  C   UNL     1      43.349   5.358  12.389  0.00  0.00    +0.000 C 
ENDBRANCH   8  10
BRANCH   8  11
ATOM     11  C   UNL     1      44.765   3.556  11.504  0.00  0.00    +0.000 C 
ATOM     12  C   UNL     1      43.398   2.841  11.587  0.00  0.00    +0.000 C 
BRANCH  11  13
ATOM     13  C   UNL     1      45.189   3.468  10.035  0.00  0.00    +0.000 A 
ATOM     14  C   UNL     1      45.245   2.208   9.417  0.00  0.00    +0.000 A 
ATOM     15  C   UNL     1      45.647   2.119   8.094  0.00  0.00    +0.000 A 
ATOM     16  N   UNL     1      45.985   3.185   7.342  0.00  0.00    +0.000 NA
ATOM     17  C   UNL     1      45.885   4.395   7.934  0.00  0.00    +0.000 A 
ATOM     18  C   UNL     1      45.480   4.587   9.248  0.00  0.00    +0.000 A 
ENDBRANCH  11  13
ENDBRANCH   8  11
ENDBRANCH   7   8
ENDBRANCH   1   7
BRANCH   4  19
ATOM     19  C   UNL     1      50.558   8.169  12.288  0.00  0.00    +0.000 C 
BRANCH  19  20
ATOM     20  N   UNL     1      51.136   7.576  11.106  0.00  0.00    +0.000 N 
ATOM     21  C   UNL     1      52.329   8.012  10.595  0.00  0.00    +0.000 C 
ATOM     22  O   UNL     1      52.989   8.891  11.146  0.00  0.00    +0.000 OA
ATOM     23  H   UNL     1      50.520   7.013  10.529  0.00  0.00    +0.000 HD
BRANCH  21  24
ATOM     24  C   UNL     1      52.814   7.332   9.388  0.00  0.00    +0.000 A 
ATOM     25  C   UNL     1      53.167   5.991   9.449  0.00  0.00    +0.000 A 
ATOM     26  S   UNL     1      53.654   5.339   7.952  0.00  0.00    +0.000 S 
ATOM     27  C   UNL     1      53.461   6.840   7.176  0.00  0.00    +0.000 A 
ATOM     28  N   UNL     1      53.734   6.980   5.849  0.00  0.00    +0.000 NA
ATOM     29  C   UNL     1      53.569   8.176   5.394  0.00  0.00    +0.000 A 
ATOM     30  N   UNL     1      53.157   9.247   6.144  0.00  0.00    +0.000 N 
ATOM     31  C   UNL     1      52.849   9.150   7.481  0.00  0.00    +0.000 A 
ATOM     32  O   UNL     1      52.462  10.124   8.117  0.00  0.00    +0.000 OA
ATOM     33  C   UNL     1      53.019   7.823   8.042  0.00  0.00    +0.000 A 
ATOM     34  H   UNL     1      53.050  10.159   5.727  0.00  0.00    +0.000 HD
ENDBRANCH  21  24
ENDBRANCH  19  20
ENDBRANCH   4  19
TORSDOF 8
ENDMDL
MODEL 4
REMARK VINA RESULT:    -6.320      3.074      8.233
REMARK INTER + INTRA:         -11.048
REMARK INTER:                 -10.421
REMARK INTRA:                  -0.627
REMARK UNBOUND:                -1.773
REMARK  Name = 
REMARK  10 active torsions:
REMARK  status: ('A' for Active; 'I' for Inactive)
REMARK    1  A    between atoms: C_1  and  C_2
REMARK    2  A    between atoms: C_2  and  N_3
REMARK    3  A    between atoms: N_3  and  C_4
REMARK    4  A    between atoms: N_3  and  C_25
REMARK    5  A    between atoms: C_4  and  C_5
REMARK    6  A    between atoms: C_8  and  C_9
REMARK    7  A    between atoms: C_9  and  N_10
REMARK    8  A    between atoms: C_11  and  C_13
REMARK    9  A    between atoms: C_25  and  C_26
REMARK   10  A    between atoms: C_25  and  C_27
REMARK                            x       y       z     vdW  Elec       q    Type
REMARK                         _______ _______ _______ _____ _____    ______ ____
ROOT
ATOM      1  C   UNL     1      45.226   6.828  11.477  0.00  0.00    +0.000 A 
ATOM      2  C   UNL     1      46.469   6.230  11.730  0.00  0.00    +0.000 A 
ATOM      3  C   UNL     1      47.380   6.806  12.623  0.00  0.00    +0.000 A 
ATOM      4  C   UNL     1      47.072   8.006  13.274  0.00  0.00    +0.000 A 
ATOM      5  C   UNL     1      45.829   8.598  13.038  0.00  0.00    +0.000 A 
ATOM      6  C   UNL     1      44.916   8.012  12.159  0.00  0.00    +0.000 A 
ENDROOT
BRANCH   1   7
ATOM      7  C   UNL     1      44.311   6.313  10.384  0.00  0.00    +0.000 C 
BRANCH   7   8
ATOM      8  N   UNL     1      43.530   5.078  10.607  0.00  0.00    +0.000 NA
BRANCH   8  10
ATOM      9  C   UNL     1      43.067   4.981  13.123  0.00  0.00    +0.000 C 
ATOM     10  C   UNL     1      42.546   5.205  11.702  0.00  0.00    +0.000 C 
ENDBRANCH   8  10
BRANCH   8  11
ATOM     11  C   UNL     1      44.341   3.832  10.739  0.00  0.00    +0.000 C 
ATOM     12  C   UNL     1      43.492   2.614  11.166  0.00  0.00    +0.000 C 
BRANCH  11  13
ATOM     13  C   UNL     1      45.100   3.388   9.485  0.00  0.00    +0.000 A 
ATOM     14  C   UNL     1      45.300   2.017   9.261  0.00  0.00    +0.000 A 
ATOM     15  C   UNL     1      46.004   1.609   8.139  0.00  0.00    +0.000 A 
ATOM     16  N   UNL     1      46.510   2.458   7.224  0.00  0.00    +0.000 NA
ATOM     17  C   UNL     1      46.274   3.773   7.427  0.00  0.00    +0.000 A 
ATOM     18  C   UNL     1      45.569   4.278   8.513  0.00  0.00    +0.000 A 
ENDBRANCH  11  13
ENDBRANCH   8  11
ENDBRANCH   7   8
ENDBRANCH   1   7
BRANCH   4  19
ATOM     19  C   UNL     1      48.097   8.726  14.109  0.00  0.00    +0.000 C 
BRANCH  19  20
ATOM     20  N   UNL     1      48.376   7.977  15.310  0.00  0.00    +0.000 N 
ATOM     21  C   UNL     1      49.607   7.425  15.542  0.00  0.00    +0.000 C 
ATOM     22  O   UNL     1      50.547   7.585  14.765  0.00  0.00    +0.000 OA
ATOM     23  H   UNL     1      47.576   7.658  15.847  0.00  0.00    +0.000 HD
BRANCH  21  24
ATOM     24  C   UNL     1      49.770   6.683  16.798  0.00  0.00    +0.000 A 
ATOM     25  C   UNL     1      50.641   7.158  17.769  0.00  0.00    +0.000 A 
ATOM     26  S   UNL     1      50.670   6.214  19.187  0.00  0.00    +0.000 S 
ATOM     27  C   UNL     1      49.558   5.105  18.535  0.00  0.00    +0.000 A 
ATOM     28  N   UNL     1      49.156   4.017  19.249  0.00  0.00    +0.000 NA
ATOM     29  C   UNL     1      48.330   3.245  18.627  0.00  0.00    +0.000 A 
ATOM     30  N   UNL     1      47.869   3.460  17.354  0.00  0.00    +0.000 N 
ATOM     31  C   UNL     1      48.228   4.555  16.603  0.00  0.00    +0.000 A 
ATOM     32  O   UNL     1      47.780   4.728  15.475  0.00  0.00    +0.000 OA
ATOM     33  C   UNL     1      49.159   5.455  17.258  0.00  0.00    +0.000 A 
ATOM     34  H   UNL     1      47.224   2.816  16.923  0.00  0.00    +0.000 HD
ENDBRANCH  21  24
ENDBRANCH  19  20
ENDBRANCH   4  19
TORSDOF 8
ENDMDL
MODEL 5
REMARK VINA RESULT:    -6.202      2.202      2.689
REMARK INTER + INTRA:         -10.876
REMARK INTER:                  -8.790
REMARK INTRA:                  -2.085
REMARK UNBOUND:                -1.773
REMARK  Name = 
REMARK  10 active torsions:
REMARK  status: ('A' for Active; 'I' for Inactive)
REMARK    1  A    between atoms: C_1  and  C_2
REMARK    2  A    between atoms: C_2  and  N_3
REMARK    3  A    between atoms: N_3  and  C_4
REMARK    4  A    between atoms: N_3  and  C_25
REMARK    5  A    between atoms: C_4  and  C_5
REMARK    6  A    between atoms: C_8  and  C_9
REMARK    7  A    between atoms: C_9  and  N_10
REMARK    8  A    between atoms: C_11  and  C_13
REMARK    9  A    between atoms: C_25  and  C_26
REMARK   10  A    between atoms: C_25  and  C_27
REMARK                            x       y       z     vdW  Elec       q    Type
REMARK                         _______ _______ _______ _____ _____    ______ ____
ROOT
ATOM      1  C   UNL     1      49.859   8.156  17.434  0.00  0.00    +0.000 A 
ATOM      2  C   UNL     1      50.656   7.958  16.298  0.00  0.00    +0.000 A 
ATOM      3  C   UNL     1      50.220   8.358  15.029  0.00  0.00    +0.000 A 
ATOM      4  C   UNL     1      48.964   8.952  14.867  0.00  0.00    +0.000 A 
ATOM      5  C   UNL     1      48.171   9.166  15.998  0.00  0.00    +0.000 A 
ATOM      6  C   UNL     1      48.616   8.781  17.263  0.00  0.00    +0.000 A 
ENDROOT
BRANCH   1   7
ATOM      7  C   UNL     1      50.242   7.569  18.778  0.00  0.00    +0.000 C 
BRANCH   7   8
ATOM      8  N   UNL     1      49.944   6.150  19.067  0.00  0.00    +0.000 NA
BRANCH   8  10
ATOM      9  C   UNL     1      48.313   5.359  20.875  0.00  0.00    +0.000 C 
ATOM     10  C   UNL     1      49.698   5.890  20.501  0.00  0.00    +0.000 C 
ENDBRANCH   8  10
BRANCH   8  11
ATOM     11  C   UNL     1      50.911   5.171  18.489  0.00  0.00    +0.000 C 
ATOM     12  C   UNL     1      51.827   4.539  19.560  0.00  0.00    +0.000 C 
BRANCH  11  13
ATOM     13  C   UNL     1      50.300   3.996  17.721  0.00  0.00    +0.000 A 
ATOM     14  C   UNL     1      51.073   2.842  17.516  0.00  0.00    +0.000 A 
ATOM     15  C   UNL     1      50.534   1.782  16.804  0.00  0.00    +0.000 A 
ATOM     16  N   UNL     1      49.286   1.781  16.295  0.00  0.00    +0.000 NA
ATOM     17  C   UNL     1      48.537   2.879  16.536  0.00  0.00    +0.000 A 
ATOM     18  C   UNL     1      48.984   3.985  17.249  0.00  0.00    +0.000 A 
ENDBRANCH  11  13
ENDBRANCH   8  11
ENDBRANCH   7   8
ENDBRANCH   1   7
BRANCH   4  19
ATOM     19  C   UNL     1      48.407   9.240  13.498  0.00  0.00    +0.000 C 
BRANCH  19  20
ATOM     20  N   UNL     1      47.625   8.120  13.033  0.00  0.00    +0.000 N 
ATOM     21  C   UNL     1      46.266   8.201  12.896  0.00  0.00    +0.000 C 
ATOM     22  O   UNL     1      45.653   9.244  13.112  0.00  0.00    +0.000 OA
ATOM     23  H   UNL     1      48.072   7.208  13.056  0.00  0.00    +0.000 HD
BRANCH  21  24
ATOM     24  C   UNL     1      45.580   6.995  12.417  0.00  0.00    +0.000 A 
ATOM     25  C   UNL     1      44.503   7.116  11.548  0.00  0.00    +0.000 A 
ATOM     26  S   UNL     1      43.858   5.622  11.042  0.00  0.00    +0.000 S 
ATOM     27  C   UNL     1      44.960   4.758  12.006  0.00  0.00    +0.000 A 
ATOM     28  N   UNL     1      44.937   3.397  12.046  0.00  0.00    +0.000 NA
ATOM     29  C   UNL     1      45.810   2.871  12.836  0.00  0.00    +0.000 A 
ATOM     30  N   UNL     1      46.706   3.580  13.594  0.00  0.00    +0.000 N 
ATOM     31  C   UNL     1      46.782   4.953  13.571  0.00  0.00    +0.000 A 
ATOM     32  O   UNL     1      47.610   5.556  14.244  0.00  0.00    +0.000 OA
ATOM     33  C   UNL     1      45.818   5.595  12.696  0.00  0.00    +0.000 A 
ATOM     34  H   UNL     1      47.363   3.107  14.195  0.00  0.00    +0.000 HD
ENDBRANCH  21  24
ENDBRANCH  19  20
ENDBRANCH   4  19
TORSDOF 8
ENDMDL
MODEL 6
REMARK VINA RESULT:    -6.194      3.518      8.649
REMARK INTER + INTRA:         -10.863
REMARK INTER:                  -9.629
REMARK INTRA:                  -1.235
REMARK UNBOUND:                -1.773
REMARK  Name = 
REMARK  10 active torsions:
REMARK  status: ('A' for Active; 'I' for Inactive)
REMARK    1  A    between atoms: C_1  and  C_2
REMARK    2  A    between atoms: C_2  and  N_3
REMARK    3  A    between atoms: N_3  and  C_4
REMARK    4  A    between atoms: N_3  and  C_25
REMARK    5  A    between atoms: C_4  and  C_5
REMARK    6  A    between atoms: C_8  and  C_9
REMARK    7  A    between atoms: C_9  and  N_10
REMARK    8  A    between atoms: C_11  and  C_13
REMARK    9  A    between atoms: C_25  and  C_26
REMARK   10  A    between atoms: C_25  and  C_27
REMARK                            x       y       z     vdW  Elec       q    Type
REMARK                         _______ _______ _______ _____ _____    ______ ____
ROOT
ATOM      1  C   UNL     1      47.563   6.812  12.909  0.00  0.00    +0.000 A 
ATOM      2  C   UNL     1      47.577   5.925  13.994  0.00  0.00    +0.000 A 
ATOM      3  C   UNL     1      48.252   6.241  15.179  0.00  0.00    +0.000 A 
ATOM      4  C   UNL     1      48.945   7.452  15.297  0.00  0.00    +0.000 A 
ATOM      5  C   UNL     1      48.922   8.347  14.225  0.00  0.00    +0.000 A 
ATOM      6  C   UNL     1      48.234   8.035  13.052  0.00  0.00    +0.000 A 
ENDROOT
BRANCH   1   7
ATOM      7  C   UNL     1      46.990   6.407  11.565  0.00  0.00    +0.000 C 
BRANCH   7   8
ATOM      8  N   UNL     1      45.545   6.577  11.307  0.00  0.00    +0.000 NA
BRANCH   8  10
ATOM      9  C   UNL     1      44.925   9.045  11.587  0.00  0.00    +0.000 C 
ATOM     10  C   UNL     1      44.924   7.622  12.148  0.00  0.00    +0.000 C 
ENDBRANCH   8  10
BRANCH   8  11
ATOM     11  C   UNL     1      44.747   5.315  11.321  0.00  0.00    +0.000 C 
ATOM     12  C   UNL     1      43.224   5.577  11.333  0.00  0.00    +0.000 C 
BRANCH  11  13
ATOM     13  C   UNL     1      44.992   4.351  10.157  0.00  0.00    +0.000 A 
ATOM     14  C   UNL     1      44.582   3.014  10.282  0.00  0.00    +0.000 A 
ATOM     15  C   UNL     1      44.820   2.132   9.241  0.00  0.00    +0.000 A 
ATOM     16  N   UNL     1      45.421   2.481   8.087  0.00  0.00    +0.000 NA
ATOM     17  C   UNL     1      45.772   3.779   7.960  0.00  0.00    +0.000 A 
ATOM     18  C   UNL     1      45.565   4.741   8.942  0.00  0.00    +0.000 A 
ENDBRANCH  11  13
ENDBRANCH   8  11
ENDBRANCH   7   8
ENDBRANCH   1   7
BRANCH   4  19
ATOM     19  C   UNL     1      49.811   7.742  16.494  0.00  0.00    +0.000 C 
BRANCH  19  20
ATOM     20  N   UNL     1      50.649   6.604  16.790  0.00  0.00    +0.000 N 
ATOM     21  C   UNL     1      50.936   6.241  18.078  0.00  0.00    +0.000 C 
ATOM     22  O   UNL     1      50.455   6.832  19.042  0.00  0.00    +0.000 OA
ATOM     23  H   UNL     1      51.217   6.243  16.030  0.00  0.00    +0.000 HD
BRANCH  21  24
ATOM     24  C   UNL     1      51.801   5.067  18.253  0.00  0.00    +0.000 A 
ATOM     25  C   UNL     1      53.068   5.222  18.800  0.00  0.00    +0.000 A 
ATOM     26  S   UNL     1      53.919   3.758  18.988  0.00  0.00    +0.000 S 
ATOM     27  C   UNL     1      52.646   2.868  18.296  0.00  0.00    +0.000 A 
ATOM     28  N   UNL     1      52.741   1.518  18.142  0.00  0.00    +0.000 NA
ATOM     29  C   UNL     1      51.716   0.971  17.580  0.00  0.00    +0.000 A 
ATOM     30  N   UNL     1      50.603   1.651  17.157  0.00  0.00    +0.000 N 
ATOM     31  C   UNL     1      50.452   3.009  17.311  0.00  0.00    +0.000 A 
ATOM     32  O   UNL     1      49.434   3.582  16.940  0.00  0.00    +0.000 OA
ATOM     33  C   UNL     1      51.580   3.673  17.937  0.00  0.00    +0.000 A 
ATOM     34  H   UNL     1      49.834   1.163  16.722  0.00  0.00    +0.000 HD
ENDBRANCH  21  24
ENDBRANCH  19  20
ENDBRANCH   4  19
TORSDOF 8
ENDMDL
MODEL 7
REMARK VINA RESULT:    -6.118      5.435      8.124
REMARK INTER + INTRA:         -10.752
REMARK INTER:                  -9.168
REMARK INTRA:                  -1.584
REMARK UNBOUND:                -1.773
REMARK  Name = 
REMARK  10 active torsions:
REMARK  status: ('A' for Active; 'I' for Inactive)
REMARK    1  A    between atoms: C_1  and  C_2
REMARK    2  A    between atoms: C_2  and  N_3
REMARK    3  A    between atoms: N_3  and  C_4
REMARK    4  A    between atoms: N_3  and  C_25
REMARK    5  A    between atoms: C_4  and  C_5
REMARK    6  A    between atoms: C_8  and  C_9
REMARK    7  A    between atoms: C_9  and  N_10
REMARK    8  A    between atoms: C_11  and  C_13
REMARK    9  A    between atoms: C_25  and  C_26
REMARK   10  A    between atoms: C_25  and  C_27
REMARK                            x       y       z     vdW  Elec       q    Type
REMARK                         _______ _______ _______ _____ _____    ______ ____
ROOT
ATOM      1  C   UNL     1      47.935   6.943  13.027  0.00  0.00    +0.000 A 
ATOM      2  C   UNL     1      48.944   7.124  13.985  0.00  0.00    +0.000 A 
ATOM      3  C   UNL     1      50.167   7.713  13.645  0.00  0.00    +0.000 A 
ATOM      4  C   UNL     1      50.415   8.120  12.329  0.00  0.00    +0.000 A 
ATOM      5  C   UNL     1      49.409   7.956  11.373  0.00  0.00    +0.000 A 
ATOM      6  C   UNL     1      48.184   7.384  11.720  0.00  0.00    +0.000 A 
ENDROOT
BRANCH   1   7
ATOM      7  C   UNL     1      46.682   6.149  13.341  0.00  0.00    +0.000 C 
BRANCH   7   8
ATOM      8  N   UNL     1      45.615   6.037  12.325  0.00  0.00    +0.000 NA
BRANCH   8  10
ATOM      9  C   UNL     1      44.504   8.144  11.386  0.00  0.00    +0.000 C 
ATOM     10  C   UNL     1      44.566   7.068  12.471  0.00  0.00    +0.000 C 
ENDBRANCH   8  10
BRANCH   8  11
ATOM     11  C   UNL     1      45.028   4.673  12.173  0.00  0.00    +0.000 C 
ATOM     12  C   UNL     1      43.566   4.599  12.666  0.00  0.00    +0.000 C 
BRANCH  11  13
ATOM     13  C   UNL     1      45.016   4.102  10.752  0.00  0.00    +0.000 A 
ATOM     14  C   UNL     1      45.573   4.859   9.709  0.00  0.00    +0.000 A 
ATOM     15  C   UNL     1      45.546   4.357   8.418  0.00  0.00    +0.000 A 
ATOM     16  N   UNL     1      45.020   3.160   8.091  0.00  0.00    +0.000 NA
ATOM     17  C   UNL     1      44.526   2.422   9.109  0.00  0.00    +0.000 A 
ATOM     18  C   UNL     1      44.519   2.833  10.436  0.00  0.00    +0.000 A 
ENDBRANCH  11  13
ENDBRANCH   8  11
ENDBRANCH   7   8
ENDBRANCH   1   7
BRANCH   4  19
ATOM     19  C   UNL     1      51.777   8.603  11.905  0.00  0.00    +0.000 C 
BRANCH  19  20
ATOM     20  N   UNL     1      52.054   8.188  10.551  0.00  0.00    +0.000 N 
ATOM     21  C   UNL     1      53.109   8.699   9.844  0.00  0.00    +0.000 C 
ATOM     22  O   UNL     1      53.900   9.496  10.346  0.00  0.00    +0.000 OA
ATOM     23  H   UNL     1      51.307   7.707  10.057  0.00  0.00    +0.000 HD
BRANCH  21  24
ATOM     24  C   UNL     1      53.287   8.201   8.475  0.00  0.00    +0.000 A 
ATOM     25  C   UNL     1      53.234   9.089   7.409  0.00  0.00    +0.000 A 
ATOM     26  S   UNL     1      53.518   8.362   5.894  0.00  0.00    +0.000 S 
ATOM     27  C   UNL     1      53.668   6.823   6.602  0.00  0.00    +0.000 A 
ATOM     28  N   UNL     1      53.906   5.722   5.836  0.00  0.00    +0.000 NA
ATOM     29  C   UNL     1      53.973   4.616   6.498  0.00  0.00    +0.000 A 
ATOM     30  N   UNL     1      53.822   4.508   7.856  0.00  0.00    +0.000 N 
ATOM     31  C   UNL     1      53.602   5.593   8.673  0.00  0.00    +0.000 A 
ATOM     32  O   UNL     1      53.494   5.464   9.887  0.00  0.00    +0.000 OA
ATOM     33  C   UNL     1      53.518   6.863   7.976  0.00  0.00    +0.000 A 
ATOM     34  H   UNL     1      53.883   3.611   8.313  0.00  0.00    +0.000 HD
ENDBRANCH  21  24
ENDBRANCH  19  20
ENDBRANCH   4  19
TORSDOF 8
ENDMDL
MODEL 8
REMARK VINA RESULT:    -6.086      4.846      8.248
REMARK INTER + INTRA:         -10.706
REMARK INTER:                  -9.125
REMARK INTRA:                  -1.581
REMARK UNBOUND:                -1.773
REMARK  Name = 
REMARK  10 active torsions:
REMARK  status: ('A' for Active; 'I' for Inactive)
REMARK    1  A    between atoms: C_1  and  C_2
REMARK    2  A    between atoms: C_2  and  N_3
REMARK    3  A    between atoms: N_3  and  C_4
REMARK    4  A    between atoms: N_3  and  C_25
REMARK    5  A    between atoms: C_4  and  C_5
REMARK    6  A    between atoms: C_8  and  C_9
REMARK    7  A    between atoms: C_9  and  N_10
REMARK    8  A    between atoms: C_11  and  C_13
REMARK    9  A    between atoms: C_25  and  C_26
REMARK   10  A    between atoms: C_25  and  C_27
REMARK                            x       y       z     vdW  Elec       q    Type
REMARK                         _______ _______ _______ _____ _____    ______ ____
ROOT
ATOM      1  C   UNL     1      46.528   6.088  13.085  0.00  0.00    +0.000 A 
ATOM      2  C   UNL     1      47.797   6.063  13.682  0.00  0.00    +0.000 A 
ATOM      3  C   UNL     1      48.783   6.991  13.325  0.00  0.00    +0.000 A 
ATOM      4  C   UNL     1      48.525   7.957  12.347  0.00  0.00    +0.000 A 
ATOM      5  C   UNL     1      47.258   7.997  11.759  0.00  0.00    +0.000 A 
ATOM      6  C   UNL     1      46.272   7.081  12.129  0.00  0.00    +0.000 A 
ENDROOT
BRANCH   1   7
ATOM      7  C   UNL     1      45.518   4.985  13.331  0.00  0.00    +0.000 C 
BRANCH   7   8
ATOM      8  N   UNL     1      44.499   4.685  12.304  0.00  0.00    +0.000 NA
BRANCH   8  10
ATOM      9  C   UNL     1      42.234   5.810  11.905  0.00  0.00    +0.000 C 
ATOM     10  C   UNL     1      43.117   4.914  12.775  0.00  0.00    +0.000 C 
ENDBRANCH   8  10
BRANCH   8  11
ATOM     11  C   UNL     1      44.640   3.355  11.643  0.00  0.00    +0.000 C 
ATOM     12  C   UNL     1      43.333   2.533  11.679  0.00  0.00    +0.000 C 
BRANCH  11  13
ATOM     13  C   UNL     1      45.074   3.377  10.175  0.00  0.00    +0.000 A 
ATOM     14  C   UNL     1      45.159   2.164   9.472  0.00  0.00    +0.000 A 
ATOM     15  C   UNL     1      45.571   2.175   8.148  0.00  0.00    +0.000 A 
ATOM     16  N   UNL     1      45.892   3.296   7.474  0.00  0.00    +0.000 NA
ATOM     17  C   UNL     1      45.766   4.460   8.148  0.00  0.00    +0.000 A 
ATOM     18  C   UNL     1      45.349   4.553   9.470  0.00  0.00    +0.000 A 
ENDBRANCH  11  13
ENDBRANCH   8  11
ENDBRANCH   7   8
ENDBRANCH   1   7
BRANCH   4  19
ATOM     19  C   UNL     1      49.617   8.857  11.831  0.00  0.00    +0.000 C 
BRANCH  19  20
ATOM     20  N   UNL     1      50.876   8.152  11.815  0.00  0.00    +0.000 N 
ATOM     21  C   UNL     1      52.067   8.814  11.685  0.00  0.00    +0.000 C 
ATOM     22  O   UNL     1      52.125  10.041  11.630  0.00  0.00    +0.000 OA
ATOM     23  H   UNL     1      50.839   7.152  11.646  0.00  0.00    +0.000 HD
BRANCH  21  24
ATOM     24  C   UNL     1      53.281   7.989  11.680  0.00  0.00    +0.000 A 
ATOM     25  C   UNL     1      54.204   8.118  12.709  0.00  0.00    +0.000 A 
ATOM     26  S   UNL     1      55.525   7.049  12.584  0.00  0.00    +0.000 S 
ATOM     27  C   UNL     1      54.940   6.411  11.121  0.00  0.00    +0.000 A 
ATOM     28  N   UNL     1      55.626   5.439  10.458  0.00  0.00    +0.000 NA
ATOM     29  C   UNL     1      55.083   5.064   9.349  0.00  0.00    +0.000 A 
ATOM     30  N   UNL     1      53.916   5.571   8.841  0.00  0.00    +0.000 N 
ATOM     31  C   UNL     1      53.176   6.536   9.484  0.00  0.00    +0.000 A 
ATOM     32  O   UNL     1      52.125   6.953   9.012  0.00  0.00    +0.000 OA
ATOM     33  C   UNL     1      53.746   6.995  10.737  0.00  0.00    +0.000 A 
ATOM     34  H   UNL     1      53.545   5.235   7.965  0.00  0.00    +0.000 HD
ENDBRANCH  21  24
ENDBRANCH  19  20
ENDBRANCH   4  19
TORSDOF 8
ENDMDL
MODEL 9
REMARK VINA RESULT:    -6.021      4.177      8.793
REMARK INTER + INTRA:         -10.609
REMARK INTER:                  -9.154
REMARK INTRA:                  -1.455
REMARK UNBOUND:                -1.773
REMARK  Name = 
REMARK  10 active torsions:
REMARK  status: ('A' for Active; 'I' for Inactive)
REMARK    1  A    between atoms: C_1  and  C_2
REMARK    2  A    between atoms: C_2  and  N_3
REMARK    3  A    between atoms: N_3  and  C_4
REMARK    4  A    between atoms: N_3  and  C_25
REMARK    5  A    between atoms: C_4  and  C_5
REMARK    6  A    between atoms: C_8  and  C_9
REMARK    7  A    between atoms: C_9  and  N_10
REMARK    8  A    between atoms: C_11  and  C_13
REMARK    9  A    between atoms: C_25  and  C_26
REMARK   10  A    between atoms: C_25  and  C_27
REMARK                            x       y       z     vdW  Elec       q    Type
REMARK                         _______ _______ _______ _____ _____    ______ ____
ROOT
ATOM      1  C   UNL     1      46.472   5.874  13.191  0.00  0.00    +0.000 A 
ATOM      2  C   UNL     1      47.576   5.899  14.056  0.00  0.00    +0.000 A 
ATOM      3  C   UNL     1      48.680   6.719  13.797  0.00  0.00    +0.000 A 
ATOM      4  C   UNL     1      48.711   7.524  12.652  0.00  0.00    +0.000 A 
ATOM      5  C   UNL     1      47.608   7.516  11.795  0.00  0.00    +0.000 A 
ATOM      6  C   UNL     1      46.502   6.709  12.065  0.00  0.00    +0.000 A 
ENDROOT
BRANCH   1   7
ATOM      7  C   UNL     1      45.356   4.864  13.365  0.00  0.00    +0.000 C 
BRANCH   7   8
ATOM      8  N   UNL     1      44.423   4.607  12.248  0.00  0.00    +0.000 NA
BRANCH   8  10
ATOM      9  C   UNL     1      42.257   5.879  11.753  0.00  0.00    +0.000 C 
ATOM     10  C   UNL     1      43.010   4.855  12.604  0.00  0.00    +0.000 C 
ENDBRANCH   8  10
BRANCH   8  11
ATOM     11  C   UNL     1      44.595   3.287  11.572  0.00  0.00    +0.000 C 
ATOM     12  C   UNL     1      43.294   2.454  11.558  0.00  0.00    +0.000 C 
BRANCH  11  13
ATOM     13  C   UNL     1      45.071   3.334  10.118  0.00  0.00    +0.000 A 
ATOM     14  C   UNL     1      45.255   2.128   9.422  0.00  0.00    +0.000 A 
ATOM     15  C   UNL     1      45.706   2.163   8.112  0.00  0.00    +0.000 A 
ATOM     16  N   UNL     1      45.974   3.301   7.443  0.00  0.00    +0.000 NA
ATOM     17  C   UNL     1      45.752   4.456   8.108  0.00  0.00    +0.000 A 
ATOM     18  C   UNL     1      45.290   4.525   9.417  0.00  0.00    +0.000 A 
ENDBRANCH  11  13
ENDBRANCH   8  11
ENDBRANCH   7   8
ENDBRANCH   1   7
BRANCH   4  19
ATOM     19  C   UNL     1      49.951   8.287  12.268  0.00  0.00    +0.000 C 
BRANCH  19  20
ATOM     20  N   UNL     1      51.090   7.786  12.998  0.00  0.00    +0.000 N 
ATOM     21  C   UNL     1      51.593   8.448  14.086  0.00  0.00    +0.000 C 
ATOM     22  O   UNL     1      51.068   9.471  14.523  0.00  0.00    +0.000 OA
ATOM     23  H   UNL     1      51.656   7.080  12.537  0.00  0.00    +0.000 HD
BRANCH  21  24
ATOM     24  C   UNL     1      52.755   7.842  14.745  0.00  0.00    +0.000 A 
ATOM     25  C   UNL     1      54.035   8.154  14.305  0.00  0.00    +0.000 A 
ATOM     26  S   UNL     1      55.273   7.413  15.212  0.00  0.00    +0.000 S 
ATOM     27  C   UNL     1      54.144   6.607  16.195  0.00  0.00    +0.000 A 
ATOM     28  N   UNL     1      54.553   5.772  17.190  0.00  0.00    +0.000 NA
ATOM     29  C   UNL     1      53.594   5.206  17.841  0.00  0.00    +0.000 A 
ATOM     30  N   UNL     1      52.260   5.396  17.588  0.00  0.00    +0.000 N 
ATOM     31  C   UNL     1      51.798   6.245  16.609  0.00  0.00    +0.000 A 
ATOM     32  O   UNL     1      50.597   6.408  16.424  0.00  0.00    +0.000 OA
ATOM     33  C   UNL     1      52.839   6.906  15.845  0.00  0.00    +0.000 A 
ATOM     34  H   UNL     1      51.558   4.921  18.134  0.00  0.00    +0.000 HD
ENDBRANCH  21  24
ENDBRANCH  19  20
ENDBRANCH   4  19
TORSDOF 8
ENDMDL
