MODEL 1
REMARK VINA RESULT:    -8.583      0.000      0.000
REMARK INTER + INTRA:         -11.609
REMARK INTER:                 -11.342
REMARK INTRA:                  -0.267
REMARK UNBOUND:                -0.267
REMARK  Name = 
REMARK  6 active torsions:
REMARK  status: ('A' for Active; 'I' for Inactive)
REMARK    1  A    between atoms: C_2  and  C_3
REMARK    2  A    between atoms: C_6  and  C_7
REMARK    3  A    between atoms: C_7  and  N_8
REMARK    4  A    between atoms: N_8  and  C_9
REMARK    5  A    between atoms: C_12  and  C_13
REMARK    6  A    between atoms: C_21  and  O_22
REMARK                            x       y       z     vdW  Elec       q    Type
REMARK                         _______ _______ _______ _____ _____    ______ ____
ROOT
ATOM      1  C   UNL     1      43.961   4.946  11.659  0.00  0.00    +0.000 C 
ATOM      2  C   UNL     1      42.760   5.176  12.556  0.00  0.00    +0.000 C 
ATOM      3  C   UNL     1      43.353   3.811  12.481  0.00  0.00    +0.000 C 
ENDROOT
BRANCH   1   7
ATOM      4  C   UNL     1      47.799   6.573  12.919  0.00  0.00    +0.000 A 
ATOM      5  C   UNL     1      47.127   7.117  11.820  0.00  0.00    +0.000 A 
ATOM      6  C   UNL     1      45.890   6.596  11.431  0.00  0.00    +0.000 A 
ATOM      7  C   UNL     1      45.305   5.510  12.104  0.00  0.00    +0.000 A 
ATOM      8  C   UNL     1      45.997   4.984  13.213  0.00  0.00    +0.000 A 
ATOM      9  C   UNL     1      47.223   5.518  13.620  0.00  0.00    +0.000 A 
BRANCH   4  11
ATOM     10  N   UNL     1      50.094   7.591  13.573  0.00  0.00    +0.000 NA
ATOM     11  C   UNL     1      49.061   7.126  13.306  0.00  0.00    +0.000 C 
ENDBRANCH   4  11
BRANCH   9  12
ATOM     12  O   UNL     1      47.863   5.001  14.711  0.00  0.00    +0.000 OA
ATOM     13  H   UNL     1      48.172   4.101  14.514  0.00  0.00    +0.000 HD
ENDBRANCH   9  12
ENDBRANCH   1   7
BRANCH   1  14
ATOM     14  N   UNL     1      43.864   4.770  10.204  0.00  0.00    +0.000 N 
ATOM     15  H   UNL     1      43.470   5.541   9.673  0.00  0.00    +0.000 HD
BRANCH  14  16
ATOM     16  C   UNL     1      44.636   3.901   9.418  0.00  0.00    +0.000 A 
ATOM     17  C   UNL     1      44.569   2.511   9.504  0.00  0.00    +0.000 A 
ATOM     18  C   UNL     1      45.412   1.698   8.733  0.00  0.00    +0.000 A 
ATOM     19  C   UNL     1      46.319   2.269   7.835  0.00  0.00    +0.000 A 
ATOM     20  C   UNL     1      46.305   3.656   7.657  0.00  0.00    +0.000 A 
ATOM     21  C   UNL     1      45.463   4.457   8.434  0.00  0.00    +0.000 A 
BRANCH  19  22
ATOM     22  C   UNL     1      47.336   1.482   7.082  0.00  0.00    +0.000 C 
ATOM     23  N   UNL     1      48.429   2.134   6.585  0.00  0.00    +0.000 N 
ATOM     24  O   UNL     1      47.190   0.283   6.871  0.00  0.00    +0.000 OA
ATOM     25  H   UNL     1      48.579   3.128   6.623  0.00  0.00    +0.000 HD
ATOM     26  H   UNL     1      49.056   1.586   6.010  0.00  0.00    +0.000 HD
ENDBRANCH  19  22
ENDBRANCH  14  16
ENDBRANCH   1  14
TORSDOF 6
ENDMDL
MODEL 2
REMARK VINA RESULT:    -7.857      1.741      2.229
REMARK INTER + INTRA:         -10.650
REMARK INTER:                 -10.395
REMARK INTRA:                  -0.254
REMARK UNBOUND:                -0.267
REMARK  Name = 
REMARK  6 active torsions:
REMARK  status: ('A' for Active; 'I' for Inactive)
REMARK    1  A    between atoms: C_2  and  C_3
REMARK    2  A    between atoms: C_6  and  C_7
REMARK    3  A    between atoms: C_7  and  N_8
REMARK    4  A    between atoms: N_8  and  C_9
REMARK    5  A    between atoms: C_12  and  C_13
REMARK    6  A    between atoms: C_21  and  O_22
REMARK                            x       y       z     vdW  Elec       q    Type
REMARK                         _______ _______ _______ _____ _____    ______ ____
ROOT
ATOM      1  C   UNL     1      44.050   4.982  11.557  0.00  0.00    +0.000 C 
ATOM      2  C   UNL     1      43.016   4.654  12.617  0.00  0.00    +0.000 C 
ATOM      3  C   UNL     1      44.193   3.753  12.453  0.00  0.00    +0.000 C 
ENDROOT
BRANCH   1   7
ATOM      4  C   UNL     1      46.731   8.341  12.264  0.00  0.00    +0.000 A 
ATOM      5  C   UNL     1      47.240   7.102  11.862  0.00  0.00    +0.000 A 
ATOM      6  C   UNL     1      46.371   6.034  11.626  0.00  0.00    +0.000 A 
ATOM      7  C   UNL     1      44.983   6.161  11.808  0.00  0.00    +0.000 A 
ATOM      8  C   UNL     1      44.493   7.420  12.206  0.00  0.00    +0.000 A 
ATOM      9  C   UNL     1      45.357   8.498  12.420  0.00  0.00    +0.000 A 
BRANCH   4  11
ATOM     10  N   UNL     1      48.408  10.273  12.700  0.00  0.00    +0.000 NA
ATOM     11  C   UNL     1      47.637   9.425  12.495  0.00  0.00    +0.000 C 
ENDBRANCH   4  11
BRANCH   9  12
ATOM     12  O   UNL     1      44.852   9.714  12.787  0.00  0.00    +0.000 OA
ATOM     13  H   UNL     1      43.923   9.616  13.052  0.00  0.00    +0.000 HD
ENDBRANCH   9  12
ENDBRANCH   1   7
BRANCH   1  14
ATOM     14  N   UNL     1      43.872   4.684  10.131  0.00  0.00    +0.000 N 
ATOM     15  H   UNL     1      43.204   5.255   9.621  0.00  0.00    +0.000 HD
BRANCH  14  16
ATOM     16  C   UNL     1      44.797   4.044   9.291  0.00  0.00    +0.000 A 
ATOM     17  C   UNL     1      45.706   4.721   8.479  0.00  0.00    +0.000 A 
ATOM     18  C   UNL     1      46.563   4.024   7.616  0.00  0.00    +0.000 A 
ATOM     19  C   UNL     1      46.543   2.626   7.577  0.00  0.00    +0.000 A 
ATOM     20  C   UNL     1      45.721   1.940   8.476  0.00  0.00    +0.000 A 
ATOM     21  C   UNL     1      44.867   2.645   9.329  0.00  0.00    +0.000 A 
BRANCH  19  22
ATOM     22  C   UNL     1      47.325   1.821   6.596  0.00  0.00    +0.000 C 
ATOM     23  N   UNL     1      48.076   2.479   5.662  0.00  0.00    +0.000 N 
ATOM     24  O   UNL     1      47.276   0.596   6.589  0.00  0.00    +0.000 OA
ATOM     25  H   UNL     1      48.095   3.476   5.531  0.00  0.00    +0.000 HD
ATOM     26  H   UNL     1      48.526   1.904   4.963  0.00  0.00    +0.000 HD
ENDBRANCH  19  22
ENDBRANCH  14  16
ENDBRANCH   1  14
TORSDOF 6
ENDMDL
MODEL 3
REMARK VINA RESULT:    -7.729      1.775      6.803
REMARK INTER + INTRA:         -10.480
REMARK INTER:                  -9.919
REMARK INTRA:                  -0.562
REMARK UNBOUND:                -0.267
REMARK  Name = 
REMARK  6 active torsions:
REMARK  status: ('A' for Active; 'I' for Inactive)
REMARK    1  A    between atoms: C_2  and  C_3
REMARK    2  A    between atoms: C_6  and  C_7
REMARK    3  A    between atoms: C_7  and  N_8
REMARK    4  A    between atoms: N_8  and  C_9
REMARK    5  A    between atoms: C_12  and  C_13
REMARK    6  A    between atoms: C_21  and  O_22
REMARK                            x       y       z     vdW  Elec       q    Type
REMARK                         _______ _______ _______ _____ _____    ______ ____
ROOT
ATOM      1  C   UNL     1      44.446   4.389  10.761  0.00  0.00    +0.000 C 
ATOM      2  C   UNL     1      44.230   3.522  11.986  0.00  0.00    +0.000 C 
ATOM      3  C   UNL     1      43.074   3.805  11.090  0.00  0.00    +0.000 C 
ENDROOT
BRANCH   1   7
ATOM      4  C   UNL     1      46.649   2.699   7.405  0.00  0.00    +0.000 A 
ATOM      5  C   UNL     1      46.537   4.085   7.551  0.00  0.00    +0.000 A 
ATOM      6  C   UNL     1      45.839   4.617   8.638  0.00  0.00    +0.000 A 
ATOM      7  C   UNL     1      45.214   3.791   9.587  0.00  0.00    +0.000 A 
ATOM      8  C   UNL     1      45.348   2.398   9.423  0.00  0.00    +0.000 A 
ATOM      9  C   UNL     1      46.066   1.862   8.351  0.00  0.00    +0.000 A 
BRANCH   4  11
ATOM     10  N   UNL     1      48.006   1.769   5.398  0.00  0.00    +0.000 NA
ATOM     11  C   UNL     1      47.375   2.173   6.289  0.00  0.00    +0.000 C 
ENDBRANCH   4  11
BRANCH   9  12
ATOM     12  O   UNL     1      46.195   0.506   8.228  0.00  0.00    +0.000 OA
ATOM     13  H   UNL     1      47.122   0.251   8.367  0.00  0.00    +0.000 HD
ENDBRANCH   9  12
ENDBRANCH   1   7
BRANCH   1  14
ATOM     14  N   UNL     1      44.518   5.854  10.807  0.00  0.00    +0.000 N 
ATOM     15  H   UNL     1      43.676   6.365  10.558  0.00  0.00    +0.000 HD
BRANCH  14  16
ATOM     16  C   UNL     1      45.418   6.620  11.564  0.00  0.00    +0.000 A 
ATOM     17  C   UNL     1      46.746   6.261  11.789  0.00  0.00    +0.000 A 
ATOM     18  C   UNL     1      47.578   7.039  12.606  0.00  0.00    +0.000 A 
ATOM     19  C   UNL     1      47.095   8.214  13.191  0.00  0.00    +0.000 A 
ATOM     20  C   UNL     1      45.803   8.642  12.872  0.00  0.00    +0.000 A 
ATOM     21  C   UNL     1      44.981   7.857  12.059  0.00  0.00    +0.000 A 
BRANCH  19  22
ATOM     22  C   UNL     1      47.872   9.021  14.174  0.00  0.00    +0.000 C 
ATOM     23  N   UNL     1      47.467   9.025  15.480  0.00  0.00    +0.000 N 
ATOM     24  O   UNL     1      48.832   9.701  13.829  0.00  0.00    +0.000 OA
ATOM     25  H   UNL     1      46.636   8.580  15.831  0.00  0.00    +0.000 HD
ATOM     26  H   UNL     1      47.966   9.647  16.102  0.00  0.00    +0.000 HD
ENDBRANCH  19  22
ENDBRANCH  14  16
ENDBRANCH   1  14
TORSDOF 6
ENDMDL
MODEL 4
REMARK VINA RESULT:    -7.716      1.965      6.942
REMARK INTER + INTRA:         -10.464
REMARK INTER:                  -9.761
REMARK INTRA:                  -0.703
REMARK UNBOUND:                -0.267
REMARK  Name = 
REMARK  6 active torsions:
REMARK  status: ('A' for Active; 'I' for Inactive)
REMARK    1  A    between atoms: C_2  and  C_3
REMARK    2  A    between atoms: C_6  and  C_7
REMARK    3  A    between atoms: C_7  and  N_8
REMARK    4  A    between atoms: N_8  and  C_9
REMARK    5  A    between atoms: C_12  and  C_13
REMARK    6  A    between atoms: C_21  and  O_22
REMARK                            x       y       z     vdW  Elec       q    Type
REMARK                         _______ _______ _______ _____ _____    ______ ____
ROOT
ATOM      1  C   UNL     1      44.175   5.128  10.969  0.00  0.00    +0.000 C 
ATOM      2  C   UNL     1      43.604   4.499  12.226  0.00  0.00    +0.000 C 
ATOM      3  C   UNL     1      42.668   4.985  11.173  0.00  0.00    +0.000 C 
ENDROOT
BRANCH   1   7
ATOM      4  C   UNL     1      46.086   2.499   8.071  0.00  0.00    +0.000 A 
ATOM      5  C   UNL     1      45.327   1.966   9.117  0.00  0.00    +0.000 A 
ATOM      6  C   UNL     1      44.707   2.818  10.034  0.00  0.00    +0.000 A 
ATOM      7  C   UNL     1      44.848   4.213   9.952  0.00  0.00    +0.000 A 
ATOM      8  C   UNL     1      45.611   4.728   8.886  0.00  0.00    +0.000 A 
ATOM      9  C   UNL     1      46.212   3.879   7.952  0.00  0.00    +0.000 A 
BRANCH   4  11
ATOM     10  N   UNL     1      47.241   0.869   6.415  0.00  0.00    +0.000 NA
ATOM     11  C   UNL     1      46.707   1.609   7.137  0.00  0.00    +0.000 C 
ENDBRANCH   4  11
BRANCH   9  12
ATOM     12  O   UNL     1      46.932   4.407   6.916  0.00  0.00    +0.000 OA
ATOM     13  H   UNL     1      47.868   4.473   7.167  0.00  0.00    +0.000 HD
ENDBRANCH   9  12
ENDBRANCH   1   7
BRANCH   1  14
ATOM     14  N   UNL     1      44.657   6.513  10.904  0.00  0.00    +0.000 N 
ATOM     15  H   UNL     1      44.047   7.193  10.459  0.00  0.00    +0.000 HD
BRANCH  14  16
ATOM     16  C   UNL     1      45.610   7.104  11.749  0.00  0.00    +0.000 A 
ATOM     17  C   UNL     1      46.902   6.610  11.927  0.00  0.00    +0.000 A 
ATOM     18  C   UNL     1      47.787   7.211  12.833  0.00  0.00    +0.000 A 
ATOM     19  C   UNL     1      47.398   8.342  13.556  0.00  0.00    +0.000 A 
ATOM     20  C   UNL     1      46.149   8.912  13.292  0.00  0.00    +0.000 A 
ATOM     21  C   UNL     1      45.273   8.303  12.390  0.00  0.00    +0.000 A 
BRANCH  19  22
ATOM     22  C   UNL     1      48.230   8.956  14.631  0.00  0.00    +0.000 C 
ATOM     23  N   UNL     1      47.643   9.226  15.835  0.00  0.00    +0.000 N 
ATOM     24  O   UNL     1      49.404   9.252  14.441  0.00  0.00    +0.000 OA
ATOM     25  H   UNL     1      46.666   9.110  16.044  0.00  0.00    +0.000 HD
ATOM     26  H   UNL     1      48.214   9.717  16.511  0.00  0.00    +0.000 HD
ENDBRANCH  19  22
ENDBRANCH  14  16
ENDBRANCH   1  14
TORSDOF 6
ENDMDL
MODEL 5
REMARK VINA RESULT:    -7.307      1.421      6.649
REMARK INTER + INTRA:          -9.923
REMARK INTER:                  -9.296
REMARK INTRA:                  -0.627
REMARK UNBOUND:                -0.267
REMARK  Name = 
REMARK  6 active torsions:
REMARK  status: ('A' for Active; 'I' for Inactive)
REMARK    1  A    between atoms: C_2  and  C_3
REMARK    2  A    between atoms: C_6  and  C_7
REMARK    3  A    between atoms: C_7  and  N_8
REMARK    4  A    between atoms: N_8  and  C_9
REMARK    5  A    between atoms: C_12  and  C_13
REMARK    6  A    between atoms: C_21  and  O_22
REMARK                            x       y       z     vdW  Elec       q    Type
REMARK                         _______ _______ _______ _____ _____    ______ ____
ROOT
ATOM      1  C   UNL     1      44.523   4.571  10.767  0.00  0.00    +0.000 C 
ATOM      2  C   UNL     1      43.683   3.667  11.648  0.00  0.00    +0.000 C 
ATOM      3  C   UNL     1      42.997   4.593  10.703  0.00  0.00    +0.000 C 
ENDROOT
BRANCH   1   7
ATOM      4  C   UNL     1      46.689   2.777   7.442  0.00  0.00    +0.000 A 
ATOM      5  C   UNL     1      46.623   4.167   7.575  0.00  0.00    +0.000 A 
ATOM      6  C   UNL     1      45.937   4.733   8.652  0.00  0.00    +0.000 A 
ATOM      7  C   UNL     1      45.278   3.937   9.604  0.00  0.00    +0.000 A 
ATOM      8  C   UNL     1      45.365   2.539   9.453  0.00  0.00    +0.000 A 
ATOM      9  C   UNL     1      46.071   1.969   8.391  0.00  0.00    +0.000 A 
BRANCH   4  11
ATOM     10  N   UNL     1      47.985   1.807   5.414  0.00  0.00    +0.000 NA
ATOM     11  C   UNL     1      47.404   2.217   6.335  0.00  0.00    +0.000 C 
ENDBRANCH   4  11
BRANCH   9  12
ATOM     12  O   UNL     1      46.155   0.609   8.280  0.00  0.00    +0.000 OA
ATOM     13  H   UNL     1      46.447   0.370   7.385  0.00  0.00    +0.000 HD
ENDBRANCH   9  12
ENDBRANCH   1   7
BRANCH   1  14
ATOM     14  N   UNL     1      45.136   5.819  11.237  0.00  0.00    +0.000 N 
ATOM     15  H   UNL     1      44.618   6.677  11.072  0.00  0.00    +0.000 HD
BRANCH  14  16
ATOM     16  C   UNL     1      46.091   5.945  12.258  0.00  0.00    +0.000 A 
ATOM     17  C   UNL     1      46.368   4.945  13.190  0.00  0.00    +0.000 A 
ATOM     18  C   UNL     1      47.291   5.155  14.224  0.00  0.00    +0.000 A 
ATOM     19  C   UNL     1      47.978   6.369  14.322  0.00  0.00    +0.000 A 
ATOM     20  C   UNL     1      47.794   7.328  13.321  0.00  0.00    +0.000 A 
ATOM     21  C   UNL     1      46.869   7.110  12.297  0.00  0.00    +0.000 A 
BRANCH  19  22
ATOM     22  C   UNL     1      48.871   6.718  15.463  0.00  0.00    +0.000 C 
ATOM     23  N   UNL     1      48.364   7.476  16.481  0.00  0.00    +0.000 N 
ATOM     24  O   UNL     1      50.048   6.372  15.485  0.00  0.00    +0.000 OA
ATOM     25  H   UNL     1      47.446   7.886  16.497  0.00  0.00    +0.000 HD
ATOM     26  H   UNL     1      49.019   7.762  17.196  0.00  0.00    +0.000 HD
ENDBRANCH  19  22
ENDBRANCH  14  16
ENDBRANCH   1  14
TORSDOF 6
ENDMDL
MODEL 6
REMARK VINA RESULT:    -6.409      3.145      4.608
REMARK INTER + INTRA:          -8.736
REMARK INTER:                  -8.350
REMARK INTRA:                  -0.386
REMARK UNBOUND:                -0.267
REMARK  Name = 
REMARK  6 active torsions:
REMARK  status: ('A' for Active; 'I' for Inactive)
REMARK    1  A    between atoms: C_2  and  C_3
REMARK    2  A    between atoms: C_6  and  C_7
REMARK    3  A    between atoms: C_7  and  N_8
REMARK    4  A    between atoms: N_8  and  C_9
REMARK    5  A    between atoms: C_12  and  C_13
REMARK    6  A    between atoms: C_21  and  O_22
REMARK                            x       y       z     vdW  Elec       q    Type
REMARK                         _______ _______ _______ _____ _____    ______ ____
ROOT
ATOM      1  C   UNL     1      47.651   6.420  13.773  0.00  0.00    +0.000 C 
ATOM      2  C   UNL     1      48.819   6.475  12.809  0.00  0.00    +0.000 C 
ATOM      3  C   UNL     1      48.302   7.747  13.389  0.00  0.00    +0.000 C 
ENDROOT
BRANCH   1   7
ATOM      4  C   UNL     1      48.388   4.892  17.785  0.00  0.00    +0.000 A 
ATOM      5  C   UNL     1      49.134   5.966  17.289  0.00  0.00    +0.000 A 
ATOM      6  C   UNL     1      48.881   6.457  16.005  0.00  0.00    +0.000 A 
ATOM      7  C   UNL     1      47.905   5.879  15.176  0.00  0.00    +0.000 A 
ATOM      8  C   UNL     1      47.162   4.803  15.700  0.00  0.00    +0.000 A 
ATOM      9  C   UNL     1      47.395   4.325  16.993  0.00  0.00    +0.000 A 
BRANCH   4  11
ATOM     10  N   UNL     1      48.827   4.008  20.185  0.00  0.00    +0.000 NA
ATOM     11  C   UNL     1      48.657   4.408  19.105  0.00  0.00    +0.000 C 
ENDBRANCH   4  11
BRANCH   9  12
ATOM     12  O   UNL     1      46.645   3.292  17.482  0.00  0.00    +0.000 OA
ATOM     13  H   UNL     1      46.754   3.235  18.446  0.00  0.00    +0.000 HD
ENDBRANCH   9  12
ENDBRANCH   1   7
BRANCH   1  14
ATOM     14  N   UNL     1      46.254   6.275  13.347  0.00  0.00    +0.000 N 
ATOM     15  H   UNL     1      45.632   7.056  13.532  0.00  0.00    +0.000 HD
BRANCH  14  16
ATOM     16  C   UNL     1      45.775   5.422  12.340  0.00  0.00    +0.000 A 
ATOM     17  C   UNL     1      45.306   4.130  12.576  0.00  0.00    +0.000 A 
ATOM     18  C   UNL     1      44.898   3.304  11.518  0.00  0.00    +0.000 A 
ATOM     19  C   UNL     1      44.926   3.776  10.202  0.00  0.00    +0.000 A 
ATOM     20  C   UNL     1      45.279   5.109   9.973  0.00  0.00    +0.000 A 
ATOM     21  C   UNL     1      45.688   5.922  11.034  0.00  0.00    +0.000 A 
BRANCH  19  22
ATOM     22  C   UNL     1      44.637   2.920   9.017  0.00  0.00    +0.000 C 
ATOM     23  N   UNL     1      44.308   3.528   7.837  0.00  0.00    +0.000 N 
ATOM     24  O   UNL     1      44.652   1.696   9.091  0.00  0.00    +0.000 OA
ATOM     25  H   UNL     1      44.173   4.517   7.712  0.00  0.00    +0.000 HD
ATOM     26  H   UNL     1      44.038   2.916   7.078  0.00  0.00    +0.000 HD
ENDBRANCH  19  22
ENDBRANCH  14  16
ENDBRANCH   1  14
TORSDOF 6
ENDMDL
MODEL 7
REMARK VINA RESULT:    -5.986      2.991      4.967
REMARK INTER + INTRA:          -8.178
REMARK INTER:                  -7.466
REMARK INTRA:                  -0.711
REMARK UNBOUND:                -0.267
REMARK  Name = 
REMARK  6 active torsions:
REMARK  status: ('A' for Active; 'I' for Inactive)
REMARK    1  A    between atoms: C_2  and  C_3
REMARK    2  A    between atoms: C_6  and  C_7
REMARK    3  A    between atoms: C_7  and  N_8
REMARK    4  A    between atoms: N_8  and  C_9
REMARK    5  A    between atoms: C_12  and  C_13
REMARK    6  A    between atoms: C_21  and  O_22
REMARK                            x       y       z     vdW  Elec       q    Type
REMARK                         _______ _______ _______ _____ _____    ______ ____
ROOT
ATOM      1  C   UNL     1      48.000   8.002  12.752  0.00  0.00    +0.000 C 
ATOM      2  C   UNL     1      49.107   7.793  11.737  0.00  0.00    +0.000 C 
ATOM      3  C   UNL     1      48.603   9.174  11.981  0.00  0.00    +0.000 C 
ENDROOT
BRANCH   1   7
ATOM      4  C   UNL     1      48.986   7.625  16.977  0.00  0.00    +0.000 A 
ATOM      5  C   UNL     1      48.475   8.825  16.475  0.00  0.00    +0.000 A 
ATOM      6  C   UNL     1      48.149   8.932  15.120  0.00  0.00    +0.000 A 
ATOM      7  C   UNL     1      48.349   7.864  14.230  0.00  0.00    +0.000 A 
ATOM      8  C   UNL     1      48.858   6.662  14.760  0.00  0.00    +0.000 A 
ATOM      9  C   UNL     1      49.162   6.544  16.120  0.00  0.00    +0.000 A 
BRANCH   4  11
ATOM     10  N   UNL     1      49.610   7.481  19.492  0.00  0.00    +0.000 NA
ATOM     11  C   UNL     1      49.306   7.533  18.370  0.00  0.00    +0.000 C 
ENDBRANCH   4  11
BRANCH   9  12
ATOM     12  O   UNL     1      49.637   5.360  16.611  0.00  0.00    +0.000 OA
ATOM     13  H   UNL     1      48.956   4.935  17.158  0.00  0.00    +0.000 HD
ENDBRANCH   9  12
ENDBRANCH   1   7
BRANCH   1  14
ATOM     14  N   UNL     1      46.582   7.746  12.470  0.00  0.00    +0.000 N 
ATOM     15  H   UNL     1      46.000   8.552  12.265  0.00  0.00    +0.000 HD
BRANCH  14  16
ATOM     16  C   UNL     1      46.030   6.541  12.009  0.00  0.00    +0.000 A 
ATOM     17  C   UNL     1      45.853   6.233  10.660  0.00  0.00    +0.000 A 
ATOM     18  C   UNL     1      45.238   5.037  10.266  0.00  0.00    +0.000 A 
ATOM     19  C   UNL     1      44.815   4.110  11.223  0.00  0.00    +0.000 A 
ATOM     20  C   UNL     1      45.099   4.358  12.570  0.00  0.00    +0.000 A 
ATOM     21  C   UNL     1      45.709   5.555  12.952  0.00  0.00    +0.000 A 
BRANCH  19  22
ATOM     22  C   UNL     1      44.037   2.883  10.891  0.00  0.00    +0.000 C 
ATOM     23  N   UNL     1      44.485   2.080   9.880  0.00  0.00    +0.000 N 
ATOM     24  O   UNL     1      42.996   2.607  11.476  0.00  0.00    +0.000 OA
ATOM     25  H   UNL     1      45.269   2.282   9.283  0.00  0.00    +0.000 HD
ATOM     26  H   UNL     1      43.889   1.302   9.627  0.00  0.00    +0.000 HD
ENDBRANCH  19  22
ENDBRANCH  14  16
ENDBRANCH   1  14
TORSDOF 6
ENDMDL
MODEL 8
REMARK VINA RESULT:    -5.844      3.901      8.468
REMARK INTER + INTRA:          -7.990
REMARK INTER:                  -7.248
REMARK INTRA:                  -0.742
REMARK UNBOUND:                -0.267
REMARK  Name = 
REMARK  6 active torsions:
REMARK  status: ('A' for Active; 'I' for Inactive)
REMARK    1  A    between atoms: C_2  and  C_3
REMARK    2  A    between atoms: C_6  and  C_7
REMARK    3  A    between atoms: C_7  and  N_8
REMARK    4  A    between atoms: N_8  and  C_9
REMARK    5  A    between atoms: C_12  and  C_13
REMARK    6  A    between atoms: C_21  and  O_22
REMARK                            x       y       z     vdW  Elec       q    Type
REMARK                         _______ _______ _______ _____ _____    ______ ____
ROOT
ATOM      1  C   UNL     1      47.613   7.138  13.752  0.00  0.00    +0.000 C 
ATOM      2  C   UNL     1      47.174   8.588  13.833  0.00  0.00    +0.000 C 
ATOM      3  C   UNL     1      48.079   8.169  12.725  0.00  0.00    +0.000 C 
ENDROOT
BRANCH   1   7
ATOM      4  C   UNL     1      44.688   4.167  12.494  0.00  0.00    +0.000 A 
ATOM      5  C   UNL     1      46.005   3.788  12.775  0.00  0.00    +0.000 A 
ATOM      6  C   UNL     1      46.932   4.747  13.190  0.00  0.00    +0.000 A 
ATOM      7  C   UNL     1      46.585   6.103  13.309  0.00  0.00    +0.000 A 
ATOM      8  C   UNL     1      45.251   6.459  13.028  0.00  0.00    +0.000 A 
ATOM      9  C   UNL     1      44.314   5.499  12.636  0.00  0.00    +0.000 A 
BRANCH   4  11
ATOM     10  N   UNL     1      42.979   2.383  11.698  0.00  0.00    +0.000 NA
ATOM     11  C   UNL     1      43.751   3.168  12.077  0.00  0.00    +0.000 C 
ENDBRANCH   4  11
BRANCH   9  12
ATOM     12  O   UNL     1      43.021   5.870  12.389  0.00  0.00    +0.000 OA
ATOM     13  H   UNL     1      42.631   6.253  13.191  0.00  0.00    +0.000 HD
ENDBRANCH   9  12
ENDBRANCH   1   7
BRANCH   1  14
ATOM     14  N   UNL     1      48.683   6.568  14.578  0.00  0.00    +0.000 N 
ATOM     15  H   UNL     1      49.632   6.650  14.225  0.00  0.00    +0.000 HD
BRANCH  14  16
ATOM     16  C   UNL     1      48.634   6.336  15.962  0.00  0.00    +0.000 A 
ATOM     17  C   UNL     1      48.823   7.329  16.923  0.00  0.00    +0.000 A 
ATOM     18  C   UNL     1      48.822   7.020  18.290  0.00  0.00    +0.000 A 
ATOM     19  C   UNL     1      48.599   5.709  18.719  0.00  0.00    +0.000 A 
ATOM     20  C   UNL     1      48.288   4.733  17.767  0.00  0.00    +0.000 A 
ATOM     21  C   UNL     1      48.296   5.050  16.406  0.00  0.00    +0.000 A 
BRANCH  19  22
ATOM     22  C   UNL     1      48.714   5.279  20.142  0.00  0.00    +0.000 C 
ATOM     23  N   UNL     1      48.510   3.962  20.444  0.00  0.00    +0.000 N 
ATOM     24  O   UNL     1      48.948   6.083  21.037  0.00  0.00    +0.000 OA
ATOM     25  H   UNL     1      48.216   3.255  19.792  0.00  0.00    +0.000 HD
ATOM     26  H   UNL     1      48.515   3.721  21.427  0.00  0.00    +0.000 HD
ENDBRANCH  19  22
ENDBRANCH  14  16
ENDBRANCH   1  14
TORSDOF 6
ENDMDL
MODEL 9
REMARK VINA RESULT:    -5.785      3.477      7.823
REMARK INTER + INTRA:          -7.912
REMARK INTER:                  -7.673
REMARK INTRA:                  -0.239
REMARK UNBOUND:                -0.267
REMARK  Name = 
REMARK  6 active torsions:
REMARK  status: ('A' for Active; 'I' for Inactive)
REMARK    1  A    between atoms: C_2  and  C_3
REMARK    2  A    between atoms: C_6  and  C_7
REMARK    3  A    between atoms: C_7  and  N_8
REMARK    4  A    between atoms: N_8  and  C_9
REMARK    5  A    between atoms: C_12  and  C_13
REMARK    6  A    between atoms: C_21  and  O_22
REMARK                            x       y       z     vdW  Elec       q    Type
REMARK                         _______ _______ _______ _____ _____    ______ ____
ROOT
ATOM      1  C   UNL     1      47.988   7.315  13.616  0.00  0.00    +0.000 C 
ATOM      2  C   UNL     1      48.406   8.457  12.711  0.00  0.00    +0.000 C 
ATOM      3  C   UNL     1      49.321   7.291  12.869  0.00  0.00    +0.000 C 
ENDROOT
BRANCH   1   7
ATOM      4  C   UNL     1      44.818   4.675  12.218  0.00  0.00    +0.000 A 
ATOM      5  C   UNL     1      44.737   6.055  12.001  0.00  0.00    +0.000 A 
ATOM      6  C   UNL     1      45.766   6.891  12.442  0.00  0.00    +0.000 A 
ATOM      7  C   UNL     1      46.881   6.385  13.131  0.00  0.00    +0.000 A 
ATOM      8  C   UNL     1      46.944   4.993  13.330  0.00  0.00    +0.000 A 
ATOM      9  C   UNL     1      45.929   4.149  12.869  0.00  0.00    +0.000 A 
BRANCH   4  11
ATOM     10  N   UNL     1      42.930   3.117  11.356  0.00  0.00    +0.000 NA
ATOM     11  C   UNL     1      43.758   3.834  11.751  0.00  0.00    +0.000 C 
ENDBRANCH   4  11
BRANCH   9  12
ATOM     12  O   UNL     1      46.026   2.799  13.059  0.00  0.00    +0.000 OA
ATOM     13  H   UNL     1      45.878   2.337  12.218  0.00  0.00    +0.000 HD
ENDBRANCH   9  12
ENDBRANCH   1   7
BRANCH   1  14
ATOM     14  N   UNL     1      48.104   7.355  15.078  0.00  0.00    +0.000 N 
ATOM     15  H   UNL     1      47.325   7.755  15.592  0.00  0.00    +0.000 HD
BRANCH  14  16
ATOM     16  C   UNL     1      48.916   6.529  15.872  0.00  0.00    +0.000 A 
ATOM     17  C   UNL     1      50.261   6.785  16.137  0.00  0.00    +0.000 A 
ATOM     18  C   UNL     1      51.033   5.888  16.887  0.00  0.00    +0.000 A 
ATOM     19  C   UNL     1      50.457   4.728  17.414  0.00  0.00    +0.000 A 
ATOM     20  C   UNL     1      49.083   4.528  17.255  0.00  0.00    +0.000 A 
ATOM     21  C   UNL     1      48.323   5.426  16.501  0.00  0.00    +0.000 A 
BRANCH  19  22
ATOM     22  C   UNL     1      51.239   3.663  18.106  0.00  0.00    +0.000 C 
ATOM     23  N   UNL     1      51.885   3.979  19.268  0.00  0.00    +0.000 N 
ATOM     24  O   UNL     1      51.342   2.536  17.635  0.00  0.00    +0.000 OA
ATOM     25  H   UNL     1      51.938   4.900  19.671  0.00  0.00    +0.000 HD
ATOM     26  H   UNL     1      52.472   3.257  19.665  0.00  0.00    +0.000 HD
ENDBRANCH  19  22
ENDBRANCH  14  16
ENDBRANCH   1  14
TORSDOF 6
ENDMDL
