MODEL 1
REMARK VINA RESULT:    -8.003      0.000      0.000
REMARK INTER + INTRA:         -10.607
REMARK INTER:                  -9.875
REMARK INTRA:                  -0.732
REMARK UNBOUND:                -0.732
REMARK  Name = 
REMARK  7 active torsions:
REMARK  status: ('A' for Active; 'I' for Inactive)
REMARK    1  A    between atoms: C_1  and  C_2
REMARK    2  A    between atoms: C_2  and  C_3
REMARK    3  A    between atoms: C_2  and  C_4
REMARK    4  A    between atoms: C_2  and  C_5
REMARK    5  A    between atoms: C_8  and  C_9
REMARK    6  A    between atoms: C_9  and  N_10
REMARK    7  A    between atoms: C_15  and  C_16
REMARK                            x       y       z     vdW  Elec       q    Type
REMARK                         _______ _______ _______ _____ _____    ______ ____
ROOT
ATOM      1  N   UNL     1      44.425   5.735  11.578  0.00  0.00    +0.000 N 
ATOM      2  C   UNL     1      44.139   7.047  11.250  0.00  0.00    +0.000 A 
ATOM      3  C   UNL     1      45.059   7.864  11.868  0.00  0.00    +0.000 A 
ATOM      4  C   UNL     1      45.879   7.044  12.679  0.00  0.00    +0.000 A 
ATOM      5  C   UNL     1      46.953   7.280  13.557  0.00  0.00    +0.000 A 
ATOM      6  C   UNL     1      47.535   6.196  14.233  0.00  0.00    +0.000 A 
ATOM      7  C   UNL     1      47.046   4.920  14.011  0.00  0.00    +0.000 A 
ATOM      8  N   UNL     1      45.998   4.710  13.139  0.00  0.00    +0.000 N 
ATOM      9  O   UNL     1      45.575   3.519  12.988  0.00  0.00    +0.000 OA
ATOM     10  C   UNL     1      45.448   5.729  12.502  0.00  0.00    +0.000 A 
ENDROOT
BRANCH   6  11
ATOM     11  C   UNL     1      48.646   6.472  15.181  0.00  0.00    +0.000 C 
ATOM     12  N   UNL     1      48.378   6.466  16.524  0.00  0.00    +0.000 N 
ATOM     13  O   UNL     1      49.777   6.711  14.781  0.00  0.00    +0.000 OA
ATOM     14  H   UNL     1      47.489   6.301  16.956  0.00  0.00    +0.000 HD
ATOM     15  H   UNL     1      49.162   6.675  17.133  0.00  0.00    +0.000 HD
ENDBRANCH   6  11
BRANCH   1  16
ATOM     16  C   UNL     1      43.711   4.595  11.003  0.00  0.00    +0.000 C 
BRANCH  16  20
ATOM     17  C   UNL     1      46.093   2.652   7.906  0.00  0.00    +0.000 A 
ATOM     18  C   UNL     1      45.311   1.910   8.803  0.00  0.00    +0.000 A 
ATOM     19  C   UNL     1      44.530   2.519   9.790  0.00  0.00    +0.000 A 
ATOM     20  C   UNL     1      44.516   3.909   9.924  0.00  0.00    +0.000 A 
ATOM     21  C   UNL     1      45.278   4.664   9.026  0.00  0.00    +0.000 A 
ATOM     22  C   UNL     1      46.046   4.050   8.025  0.00  0.00    +0.000 A 
BRANCH  17  24
ATOM     23  C   UNL     1      48.413   2.456   6.813  0.00  0.00    +0.000 C 
ATOM     24  C   UNL     1      46.947   1.959   6.832  0.00  0.00    +0.000 C 
ATOM     25  C   UNL     1      46.361   2.232   5.432  0.00  0.00    +0.000 C 
ATOM     26  C   UNL     1      46.970   0.441   7.095  0.00  0.00    +0.000 C 
ENDBRANCH  17  24
ENDBRANCH  16  20
ENDBRANCH   1  16
TORSDOF 4
ENDMDL
MODEL 2
REMARK VINA RESULT:    -7.844      2.677      7.169
REMARK INTER + INTRA:         -10.410
REMARK INTER:                  -9.692
REMARK INTRA:                  -0.719
REMARK UNBOUND:                -0.732
REMARK  Name = 
REMARK  7 active torsions:
REMARK  status: ('A' for Active; 'I' for Inactive)
REMARK    1  A    between atoms: C_1  and  C_2
REMARK    2  A    between atoms: C_2  and  C_3
REMARK    3  A    between atoms: C_2  and  C_4
REMARK    4  A    between atoms: C_2  and  C_5
REMARK    5  A    between atoms: C_8  and  C_9
REMARK    6  A    between atoms: C_9  and  N_10
REMARK    7  A    between atoms: C_15  and  C_16
REMARK                            x       y       z     vdW  Elec       q    Type
REMARK                         _______ _______ _______ _____ _____    ______ ____
ROOT
ATOM      1  N   UNL     1      44.205   4.378  10.556  0.00  0.00    +0.000 N 
ATOM      2  C   UNL     1      43.503   3.326  11.113  0.00  0.00    +0.000 A 
ATOM      3  C   UNL     1      43.954   2.152  10.550  0.00  0.00    +0.000 A 
ATOM      4  C   UNL     1      44.892   2.494   9.547  0.00  0.00    +0.000 A 
ATOM      5  C   UNL     1      45.662   1.763   8.623  0.00  0.00    +0.000 A 
ATOM      6  C   UNL     1      46.499   2.453   7.733  0.00  0.00    +0.000 A 
ATOM      7  C   UNL     1      46.557   3.835   7.793  0.00  0.00    +0.000 A 
ATOM      8  N   UNL     1      45.801   4.531   8.713  0.00  0.00    +0.000 N 
ATOM      9  O   UNL     1      45.878   5.801   8.712  0.00  0.00    +0.000 OA
ATOM     10  C   UNL     1      45.012   3.883   9.552  0.00  0.00    +0.000 A 
ENDROOT
BRANCH   6  11
ATOM     11  C   UNL     1      47.277   1.663   6.743  0.00  0.00    +0.000 C 
ATOM     12  N   UNL     1      48.248   2.297   6.016  0.00  0.00    +0.000 N 
ATOM     13  O   UNL     1      47.058   0.472   6.567  0.00  0.00    +0.000 OA
ATOM     14  H   UNL     1      48.496   3.267   6.067  0.00  0.00    +0.000 HD
ATOM     15  H   UNL     1      48.743   1.724   5.342  0.00  0.00    +0.000 HD
ENDBRANCH   6  11
BRANCH   1  16
ATOM     16  C   UNL     1      44.058   5.762  11.005  0.00  0.00    +0.000 C 
BRANCH  16  20
ATOM     17  C   UNL     1      47.384   7.101  13.492  0.00  0.00    +0.000 A 
ATOM     18  C   UNL     1      46.987   5.756  13.462  0.00  0.00    +0.000 A 
ATOM     19  C   UNL     1      45.934   5.309  12.657  0.00  0.00    +0.000 A 
ATOM     20  C   UNL     1      45.224   6.207  11.857  0.00  0.00    +0.000 A 
ATOM     21  C   UNL     1      45.619   7.549  11.864  0.00  0.00    +0.000 A 
ATOM     22  C   UNL     1      46.688   7.991  12.658  0.00  0.00    +0.000 A 
BRANCH  17  24
ATOM     23  C   UNL     1      48.812   6.614  15.575  0.00  0.00    +0.000 C 
ATOM     24  C   UNL     1      48.542   7.569  14.389  0.00  0.00    +0.000 C 
ATOM     25  C   UNL     1      48.220   8.952  14.989  0.00  0.00    +0.000 C 
ATOM     26  C   UNL     1      49.834   7.657  13.554  0.00  0.00    +0.000 C 
ENDBRANCH  17  24
ENDBRANCH  16  20
ENDBRANCH   1  16
TORSDOF 4
ENDMDL
MODEL 3
REMARK VINA RESULT:    -6.439      1.768      2.357
REMARK INTER + INTRA:          -8.677
REMARK INTER:                  -7.866
REMARK INTRA:                  -0.810
REMARK UNBOUND:                -0.732
REMARK  Name = 
REMARK  7 active torsions:
REMARK  status: ('A' for Active; 'I' for Inactive)
REMARK    1  A    between atoms: C_1  and  C_2
REMARK    2  A    between atoms: C_2  and  C_3
REMARK    3  A    between atoms: C_2  and  C_4
REMARK    4  A    between atoms: C_2  and  C_5
REMARK    5  A    between atoms: C_8  and  C_9
REMARK    6  A    between atoms: C_9  and  N_10
REMARK    7  A    between atoms: C_15  and  C_16
REMARK                            x       y       z     vdW  Elec       q    Type
REMARK                         _______ _______ _______ _____ _____    ______ ____
ROOT
ATOM      1  N   UNL     1      45.502   5.128  12.379  0.00  0.00    +0.000 N 
ATOM      2  C   UNL     1      45.987   4.162  13.241  0.00  0.00    +0.000 A 
ATOM      3  C   UNL     1      46.832   4.766  14.145  0.00  0.00    +0.000 A 
ATOM      4  C   UNL     1      46.951   6.126  13.774  0.00  0.00    +0.000 A 
ATOM      5  C   UNL     1      47.673   7.227  14.271  0.00  0.00    +0.000 A 
ATOM      6  C   UNL     1      47.564   8.466  13.620  0.00  0.00    +0.000 A 
ATOM      7  C   UNL     1      46.741   8.578  12.513  0.00  0.00    +0.000 A 
ATOM      8  N   UNL     1      46.035   7.488  12.048  0.00  0.00    +0.000 N 
ATOM      9  O   UNL     1      45.308   7.642  11.015  0.00  0.00    +0.000 OA
ATOM     10  C   UNL     1      46.136   6.321  12.659  0.00  0.00    +0.000 A 
ENDROOT
BRANCH   6  11
ATOM     11  C   UNL     1      48.362   9.607  14.141  0.00  0.00    +0.000 C 
ATOM     12  N   UNL     1      48.212   9.966  15.454  0.00  0.00    +0.000 N 
ATOM     13  O   UNL     1      49.133  10.226  13.420  0.00  0.00    +0.000 OA
ATOM     14  H   UNL     1      47.599   9.541  16.124  0.00  0.00    +0.000 HD
ATOM     15  H   UNL     1      48.764  10.758  15.763  0.00  0.00    +0.000 HD
ENDBRANCH   6  11
BRANCH   1  16
ATOM     16  C   UNL     1      44.489   4.853  11.361  0.00  0.00    +0.000 C 
BRANCH  16  20
ATOM     17  C   UNL     1      46.220   2.783   7.932  0.00  0.00    +0.000 A 
ATOM     18  C   UNL     1      45.557   2.084   8.952  0.00  0.00    +0.000 A 
ATOM     19  C   UNL     1      44.983   2.735  10.048  0.00  0.00    +0.000 A 
ATOM     20  C   UNL     1      45.067   4.124  10.170  0.00  0.00    +0.000 A 
ATOM     21  C   UNL     1      45.711   4.836   9.153  0.00  0.00    +0.000 A 
ATOM     22  C   UNL     1      46.270   4.182   8.045  0.00  0.00    +0.000 A 
BRANCH  17  24
ATOM     23  C   UNL     1      48.337   2.402   6.522  0.00  0.00    +0.000 C 
ATOM     24  C   UNL     1      46.847   2.044   6.738  0.00  0.00    +0.000 C 
ATOM     25  C   UNL     1      46.104   2.412   5.439  0.00  0.00    +0.000 C 
ATOM     26  C   UNL     1      46.759   0.524   6.971  0.00  0.00    +0.000 C 
ENDBRANCH  17  24
ENDBRANCH  16  20
ENDBRANCH   1  16
TORSDOF 4
ENDMDL
MODEL 4
REMARK VINA RESULT:    -6.241      3.679      6.903
REMARK INTER + INTRA:          -8.432
REMARK INTER:                  -7.558
REMARK INTRA:                  -0.874
REMARK UNBOUND:                -0.732
REMARK  Name = 
REMARK  7 active torsions:
REMARK  status: ('A' for Active; 'I' for Inactive)
REMARK    1  A    between atoms: C_1  and  C_2
REMARK    2  A    between atoms: C_2  and  C_3
REMARK    3  A    between atoms: C_2  and  C_4
REMARK    4  A    between atoms: C_2  and  C_5
REMARK    5  A    between atoms: C_8  and  C_9
REMARK    6  A    between atoms: C_9  and  N_10
REMARK    7  A    between atoms: C_15  and  C_16
REMARK                            x       y       z     vdW  Elec       q    Type
REMARK                         _______ _______ _______ _____ _____    ______ ____
ROOT
ATOM      1  N   UNL     1      46.407   7.450  12.788  0.00  0.00    +0.000 N 
ATOM      2  C   UNL     1      45.677   8.394  12.091  0.00  0.00    +0.000 A 
ATOM      3  C   UNL     1      44.659   7.753  11.421  0.00  0.00    +0.000 A 
ATOM      4  C   UNL     1      44.821   6.363  11.631  0.00  0.00    +0.000 A 
ATOM      5  C   UNL     1      44.137   5.211  11.197  0.00  0.00    +0.000 A 
ATOM      6  C   UNL     1      44.602   3.949  11.597  0.00  0.00    +0.000 A 
ATOM      7  C   UNL     1      45.715   3.867  12.416  0.00  0.00    +0.000 A 
ATOM      8  N   UNL     1      46.364   5.009  12.837  0.00  0.00    +0.000 N 
ATOM      9  O   UNL     1      47.394   4.875  13.573  0.00  0.00    +0.000 OA
ATOM     10  C   UNL     1      45.928   6.198  12.462  0.00  0.00    +0.000 A 
ENDROOT
BRANCH   6  11
ATOM     11  C   UNL     1      43.885   2.745  11.099  0.00  0.00    +0.000 C 
ATOM     12  N   UNL     1      44.339   2.136   9.961  0.00  0.00    +0.000 N 
ATOM     13  O   UNL     1      42.903   2.305  11.682  0.00  0.00    +0.000 OA
ATOM     14  H   UNL     1      45.118   2.422   9.399  0.00  0.00    +0.000 HD
ATOM     15  H   UNL     1      43.811   1.328   9.650  0.00  0.00    +0.000 HD
ENDBRANCH   6  11
BRANCH   1  16
ATOM     16  C   UNL     1      47.497   7.798  13.699  0.00  0.00    +0.000 C 
BRANCH  16  20
ATOM     17  C   UNL     1      51.045   9.056  11.493  0.00  0.00    +0.000 A 
ATOM     18  C   UNL     1      50.404   9.913  12.400  0.00  0.00    +0.000 A 
ATOM     19  C   UNL     1      49.277   9.517  13.127  0.00  0.00    +0.000 A 
ATOM     20  C   UNL     1      48.736   8.241  12.957  0.00  0.00    +0.000 A 
ATOM     21  C   UNL     1      49.374   7.370  12.067  0.00  0.00    +0.000 A 
ATOM     22  C   UNL     1      50.516   7.763  11.354  0.00  0.00    +0.000 A 
BRANCH  17  24
ATOM     23  C   UNL     1      52.815   8.432   9.734  0.00  0.00    +0.000 C 
ATOM     24  C   UNL     1      52.281   9.515  10.702  0.00  0.00    +0.000 C 
ATOM     25  C   UNL     1      53.431   9.858  11.670  0.00  0.00    +0.000 C 
ATOM     26  C   UNL     1      51.923  10.757   9.864  0.00  0.00    +0.000 C 
ENDBRANCH  17  24
ENDBRANCH  16  20
ENDBRANCH   1  16
TORSDOF 4
ENDMDL
MODEL 5
REMARK VINA RESULT:    -6.219      3.659      6.932
REMARK INTER + INTRA:          -8.405
REMARK INTER:                  -7.504
REMARK INTRA:                  -0.901
REMARK UNBOUND:                -0.732
REMARK  Name = 
REMARK  7 active torsions:
REMARK  status: ('A' for Active; 'I' for Inactive)
REMARK    1  A    between atoms: C_1  and  C_2
REMARK    2  A    between atoms: C_2  and  C_3
REMARK    3  A    between atoms: C_2  and  C_4
REMARK    4  A    between atoms: C_2  and  C_5
REMARK    5  A    between atoms: C_8  and  C_9
REMARK    6  A    between atoms: C_9  and  N_10
REMARK    7  A    between atoms: C_15  and  C_16
REMARK                            x       y       z     vdW  Elec       q    Type
REMARK                         _______ _______ _______ _____ _____    ______ ____
ROOT
ATOM      1  N   UNL     1      47.159   6.432  13.705  0.00  0.00    +0.000 N 
ATOM      2  C   UNL     1      47.604   5.640  14.746  0.00  0.00    +0.000 A 
ATOM      3  C   UNL     1      47.150   4.355  14.544  0.00  0.00    +0.000 A 
ATOM      4  C   UNL     1      46.320   4.373  13.398  0.00  0.00    +0.000 A 
ATOM      5  C   UNL     1      45.557   3.407  12.714  0.00  0.00    +0.000 A 
ATOM      6  C   UNL     1      44.814   3.794  11.588  0.00  0.00    +0.000 A 
ATOM      7  C   UNL     1      44.859   5.113  11.169  0.00  0.00    +0.000 A 
ATOM      8  N   UNL     1      45.620   6.041  11.849  0.00  0.00    +0.000 N 
ATOM      9  O   UNL     1      45.610   7.243  11.432  0.00  0.00    +0.000 OA
ATOM     10  C   UNL     1      46.320   5.679  12.910  0.00  0.00    +0.000 A 
ENDROOT
BRANCH   6  11
ATOM     11  C   UNL     1      43.990   2.765  10.902  0.00  0.00    +0.000 C 
ATOM     12  N   UNL     1      44.442   2.245   9.719  0.00  0.00    +0.000 N 
ATOM     13  O   UNL     1      42.923   2.389  11.370  0.00  0.00    +0.000 OA
ATOM     14  H   UNL     1      45.286   2.493   9.240  0.00  0.00    +0.000 HD
ATOM     15  H   UNL     1      43.840   1.558   9.278  0.00  0.00    +0.000 HD
ENDBRANCH   6  11
BRANCH   1  16
ATOM     16  C   UNL     1      47.551   7.832  13.543  0.00  0.00    +0.000 C 
BRANCH  16  20
ATOM     17  C   UNL     1      51.496   8.186  11.714  0.00  0.00    +0.000 A 
ATOM     18  C   UNL     1      50.376   7.788  10.969  0.00  0.00    +0.000 A 
ATOM     19  C   UNL     1      49.103   7.687  11.537  0.00  0.00    +0.000 A 
ATOM     20  C   UNL     1      48.907   7.968  12.892  0.00  0.00    +0.000 A 
ATOM     21  C   UNL     1      50.011   8.382  13.644  0.00  0.00    +0.000 A 
ATOM     22  C   UNL     1      51.284   8.502  13.066  0.00  0.00    +0.000 A 
BRANCH  17  24
ATOM     23  C   UNL     1      53.092   9.599  10.273  0.00  0.00    +0.000 C 
ATOM     24  C   UNL     1      52.888   8.287  11.067  0.00  0.00    +0.000 C 
ATOM     25  C   UNL     1      53.095   7.124  10.076  0.00  0.00    +0.000 C 
ATOM     26  C   UNL     1      53.968   8.229  12.164  0.00  0.00    +0.000 C 
ENDBRANCH  17  24
ENDBRANCH  16  20
ENDBRANCH   1  16
TORSDOF 4
ENDMDL
MODEL 6
REMARK VINA RESULT:    -6.210      3.730      8.784
REMARK INTER + INTRA:          -8.394
REMARK INTER:                  -7.612
REMARK INTRA:                  -0.782
REMARK UNBOUND:                -0.732
REMARK  Name = 
REMARK  7 active torsions:
REMARK  status: ('A' for Active; 'I' for Inactive)
REMARK    1  A    between atoms: C_1  and  C_2
REMARK    2  A    between atoms: C_2  and  C_3
REMARK    3  A    between atoms: C_2  and  C_4
REMARK    4  A    between atoms: C_2  and  C_5
REMARK    5  A    between atoms: C_8  and  C_9
REMARK    6  A    between atoms: C_9  and  N_10
REMARK    7  A    between atoms: C_15  and  C_16
REMARK                            x       y       z     vdW  Elec       q    Type
REMARK                         _______ _______ _______ _____ _____    ______ ____
ROOT
ATOM      1  N   UNL     1      47.385   7.609  13.541  0.00  0.00    +0.000 N 
ATOM      2  C   UNL     1      46.766   8.766  13.110  0.00  0.00    +0.000 A 
ATOM      3  C   UNL     1      45.515   8.443  12.633  0.00  0.00    +0.000 A 
ATOM      4  C   UNL     1      45.393   7.033  12.680  0.00  0.00    +0.000 A 
ATOM      5  C   UNL     1      44.392   6.114  12.314  0.00  0.00    +0.000 A 
ATOM      6  C   UNL     1      44.627   4.742  12.488  0.00  0.00    +0.000 A 
ATOM      7  C   UNL     1      45.833   4.325  13.026  0.00  0.00    +0.000 A 
ATOM      8  N   UNL     1      46.797   5.244  13.387  0.00  0.00    +0.000 N 
ATOM      9  O   UNL     1      47.894   4.805  13.858  0.00  0.00    +0.000 OA
ATOM     10  C   UNL     1      46.578   6.536  13.224  0.00  0.00    +0.000 A 
ENDROOT
BRANCH   6  11
ATOM     11  C   UNL     1      43.569   3.787  12.063  0.00  0.00    +0.000 C 
ATOM     12  N   UNL     1      43.643   2.492  12.499  0.00  0.00    +0.000 N 
ATOM     13  O   UNL     1      42.653   4.139  11.332  0.00  0.00    +0.000 OA
ATOM     14  H   UNL     1      44.355   2.096  13.081  0.00  0.00    +0.000 HD
ATOM     15  H   UNL     1      42.909   1.872  12.172  0.00  0.00    +0.000 HD
ENDBRANCH   6  11
BRANCH   1  16
ATOM     16  C   UNL     1      48.686   7.601  14.210  0.00  0.00    +0.000 C 
BRANCH  16  20
ATOM     17  C   UNL     1      48.240   8.088  18.523  0.00  0.00    +0.000 A 
ATOM     18  C   UNL     1      48.603   6.857  17.958  0.00  0.00    +0.000 A 
ATOM     19  C   UNL     1      48.766   6.690  16.580  0.00  0.00    +0.000 A 
ATOM     20  C   UNL     1      48.554   7.759  15.706  0.00  0.00    +0.000 A 
ATOM     21  C   UNL     1      48.206   8.998  16.256  0.00  0.00    +0.000 A 
ATOM     22  C   UNL     1      48.062   9.167  17.641  0.00  0.00    +0.000 A 
BRANCH  17  24
ATOM     23  C   UNL     1      49.386   8.569  20.775  0.00  0.00    +0.000 C 
ATOM     24  C   UNL     1      48.062   8.247  20.042  0.00  0.00    +0.000 C 
ATOM     25  C   UNL     1      47.519   6.938  20.650  0.00  0.00    +0.000 C 
ATOM     26  C   UNL     1      47.077   9.396  20.327  0.00  0.00    +0.000 C 
ENDBRANCH  17  24
ENDBRANCH  16  20
ENDBRANCH   1  16
TORSDOF 4
ENDMDL
MODEL 7
REMARK VINA RESULT:    -5.853      3.141      5.443
REMARK INTER + INTRA:          -7.954
REMARK INTER:                  -7.138
REMARK INTRA:                  -0.816
REMARK UNBOUND:                -0.732
REMARK  Name = 
REMARK  7 active torsions:
REMARK  status: ('A' for Active; 'I' for Inactive)
REMARK    1  A    between atoms: C_1  and  C_2
REMARK    2  A    between atoms: C_2  and  C_3
REMARK    3  A    between atoms: C_2  and  C_4
REMARK    4  A    between atoms: C_2  and  C_5
REMARK    5  A    between atoms: C_8  and  C_9
REMARK    6  A    between atoms: C_9  and  N_10
REMARK    7  A    between atoms: C_15  and  C_16
REMARK                            x       y       z     vdW  Elec       q    Type
REMARK                         _______ _______ _______ _____ _____    ______ ____
ROOT
ATOM      1  N   UNL     1      48.596   7.567  14.885  0.00  0.00    +0.000 N 
ATOM      2  C   UNL     1      48.247   8.894  14.717  0.00  0.00    +0.000 A 
ATOM      3  C   UNL     1      48.192   9.493  15.956  0.00  0.00    +0.000 A 
ATOM      4  C   UNL     1      48.418   8.486  16.925  0.00  0.00    +0.000 A 
ATOM      5  C   UNL     1      48.457   8.459  18.332  0.00  0.00    +0.000 A 
ATOM      6  C   UNL     1      48.696   7.240  18.986  0.00  0.00    +0.000 A 
ATOM      7  C   UNL     1      48.899   6.097  18.232  0.00  0.00    +0.000 A 
ATOM      8  N   UNL     1      48.866   6.148  16.854  0.00  0.00    +0.000 N 
ATOM      9  O   UNL     1      49.040   5.064  16.210  0.00  0.00    +0.000 OA
ATOM     10  C   UNL     1      48.641   7.294  16.236  0.00  0.00    +0.000 A 
ENDROOT
BRANCH   6  11
ATOM     11  C   UNL     1      48.699   7.228  20.472  0.00  0.00    +0.000 C 
ATOM     12  N   UNL     1      47.502   7.313  21.131  0.00  0.00    +0.000 N 
ATOM     13  O   UNL     1      49.744   7.155  21.105  0.00  0.00    +0.000 OA
ATOM     14  H   UNL     1      46.594   7.395  20.713  0.00  0.00    +0.000 HD
ATOM     15  H   UNL     1      47.552   7.317  22.143  0.00  0.00    +0.000 HD
ENDBRANCH   6  11
BRANCH   1  16
ATOM     16  C   UNL     1      48.853   6.662  13.765  0.00  0.00    +0.000 C 
BRANCH  16  20
ATOM     17  C   UNL     1      45.194   5.206  11.886  0.00  0.00    +0.000 A 
ATOM     18  C   UNL     1      45.631   4.710  13.124  0.00  0.00    +0.000 A 
ATOM     19  C   UNL     1      46.791   5.179  13.746  0.00  0.00    +0.000 A 
ATOM     20  C   UNL     1      47.574   6.162  13.136  0.00  0.00    +0.000 A 
ATOM     21  C   UNL     1      47.144   6.678  11.909  0.00  0.00    +0.000 A 
ATOM     22  C   UNL     1      45.968   6.219  11.297  0.00  0.00    +0.000 A 
BRANCH  17  24
ATOM     23  C   UNL     1      43.418   3.346  11.844  0.00  0.00    +0.000 C 
ATOM     24  C   UNL     1      43.916   4.672  11.219  0.00  0.00    +0.000 C 
ATOM     25  C   UNL     1      44.176   4.394   9.725  0.00  0.00    +0.000 C 
ATOM     26  C   UNL     1      42.789   5.711  11.363  0.00  0.00    +0.000 C 
ENDBRANCH  17  24
ENDBRANCH  16  20
ENDBRANCH   1  16
TORSDOF 4
ENDMDL
MODEL 8
REMARK VINA RESULT:    -5.576      4.163      6.978
REMARK INTER + INTRA:          -7.611
REMARK INTER:                  -6.885
REMARK INTRA:                  -0.726
REMARK UNBOUND:                -0.732
REMARK  Name = 
REMARK  7 active torsions:
REMARK  status: ('A' for Active; 'I' for Inactive)
REMARK    1  A    between atoms: C_1  and  C_2
REMARK    2  A    between atoms: C_2  and  C_3
REMARK    3  A    between atoms: C_2  and  C_4
REMARK    4  A    between atoms: C_2  and  C_5
REMARK    5  A    between atoms: C_8  and  C_9
REMARK    6  A    between atoms: C_9  and  N_10
REMARK    7  A    between atoms: C_15  and  C_16
REMARK                            x       y       z     vdW  Elec       q    Type
REMARK                         _______ _______ _______ _____ _____    ______ ____
ROOT
ATOM      1  N   UNL     1      47.908   7.385  13.852  0.00  0.00    +0.000 N 
ATOM      2  C   UNL     1      48.183   6.236  14.570  0.00  0.00    +0.000 A 
ATOM      3  C   UNL     1      47.255   5.276  14.232  0.00  0.00    +0.000 A 
ATOM      4  C   UNL     1      46.321   5.878  13.354  0.00  0.00    +0.000 A 
ATOM      5  C   UNL     1      45.155   5.439  12.700  0.00  0.00    +0.000 A 
ATOM      6  C   UNL     1      44.443   6.341  11.894  0.00  0.00    +0.000 A 
ATOM      7  C   UNL     1      44.912   7.636  11.752  0.00  0.00    +0.000 A 
ATOM      8  N   UNL     1      46.063   8.042  12.394  0.00  0.00    +0.000 N 
ATOM      9  O   UNL     1      46.438   9.249  12.244  0.00  0.00    +0.000 OA
ATOM     10  C   UNL     1      46.734   7.195  13.154  0.00  0.00    +0.000 A 
ENDROOT
BRANCH   6  11
ATOM     11  C   UNL     1      43.195   5.866  11.240  0.00  0.00    +0.000 C 
ATOM     12  N   UNL     1      41.999   6.387  11.655  0.00  0.00    +0.000 N 
ATOM     13  O   UNL     1      43.223   5.022  10.355  0.00  0.00    +0.000 OA
ATOM     14  H   UNL     1      41.861   7.066  12.380  0.00  0.00    +0.000 HD
ATOM     15  H   UNL     1      41.173   6.024  11.193  0.00  0.00    +0.000 HD
ENDBRANCH   6  11
BRANCH   1  16
ATOM     16  C   UNL     1      48.766   8.569  13.884  0.00  0.00    +0.000 C 
BRANCH  16  20
ATOM     17  C   UNL     1      51.928   8.352  10.885  0.00  0.00    +0.000 A 
ATOM     18  C   UNL     1      52.018   9.219  11.985  0.00  0.00    +0.000 A 
ATOM     19  C   UNL     1      51.021   9.287  12.962  0.00  0.00    +0.000 A 
ATOM     20  C   UNL     1      49.877   8.492  12.864  0.00  0.00    +0.000 A 
ATOM     21  C   UNL     1      49.780   7.611  11.781  0.00  0.00    +0.000 A 
ATOM     22  C   UNL     1      50.791   7.531  10.813  0.00  0.00    +0.000 A 
BRANCH  17  24
ATOM     23  C   UNL     1      53.014   9.515   8.864  0.00  0.00    +0.000 C 
ATOM     24  C   UNL     1      53.036   8.298   9.820  0.00  0.00    +0.000 C 
ATOM     25  C   UNL     1      52.869   7.038   8.948  0.00  0.00    +0.000 C 
ATOM     26  C   UNL     1      54.412   8.269  10.512  0.00  0.00    +0.000 C 
ENDBRANCH  17  24
ENDBRANCH  16  20
ENDBRANCH   1  16
TORSDOF 4
ENDMDL
MODEL 9
REMARK VINA RESULT:    -5.503      4.274      6.459
REMARK INTER + INTRA:          -7.521
REMARK INTER:                  -6.870
REMARK INTRA:                  -0.651
REMARK UNBOUND:                -0.732
REMARK  Name = 
REMARK  7 active torsions:
REMARK  status: ('A' for Active; 'I' for Inactive)
REMARK    1  A    between atoms: C_1  and  C_2
REMARK    2  A    between atoms: C_2  and  C_3
REMARK    3  A    between atoms: C_2  and  C_4
REMARK    4  A    between atoms: C_2  and  C_5
REMARK    5  A    between atoms: C_8  and  C_9
REMARK    6  A    between atoms: C_9  and  N_10
REMARK    7  A    between atoms: C_15  and  C_16
REMARK                            x       y       z     vdW  Elec       q    Type
REMARK                         _______ _______ _______ _____ _____    ______ ____
ROOT
ATOM      1  N   UNL     1      47.358   7.407  12.745  0.00  0.00    +0.000 N 
ATOM      2  C   UNL     1      46.596   6.788  11.773  0.00  0.00    +0.000 A 
ATOM      3  C   UNL     1      46.183   5.565  12.252  0.00  0.00    +0.000 A 
ATOM      4  C   UNL     1      46.786   5.379  13.519  0.00  0.00    +0.000 A 
ATOM      5  C   UNL     1      46.779   4.346  14.475  0.00  0.00    +0.000 A 
ATOM      6  C   UNL     1      47.534   4.496  15.648  0.00  0.00    +0.000 A 
ATOM      7  C   UNL     1      48.256   5.660  15.844  0.00  0.00    +0.000 A 
ATOM      8  N   UNL     1      48.241   6.664  14.898  0.00  0.00    +0.000 N 
ATOM      9  O   UNL     1      48.939   7.705  15.119  0.00  0.00    +0.000 OA
ATOM     10  C   UNL     1      47.532   6.525  13.791  0.00  0.00    +0.000 A 
ENDROOT
BRANCH   6  11
ATOM     11  C   UNL     1      47.540   3.378  16.629  0.00  0.00    +0.000 C 
ATOM     12  N   UNL     1      48.637   2.562  16.685  0.00  0.00    +0.000 N 
ATOM     13  O   UNL     1      46.586   3.176  17.367  0.00  0.00    +0.000 OA
ATOM     14  H   UNL     1      49.460   2.626  16.117  0.00  0.00    +0.000 HD
ATOM     15  H   UNL     1      48.592   1.803  17.357  0.00  0.00    +0.000 HD
ENDBRANCH   6  11
BRANCH   1  16
ATOM     16  C   UNL     1      47.866   8.772  12.613  0.00  0.00    +0.000 C 
BRANCH  16  20
ATOM     17  C   UNL     1      51.744   8.940  10.618  0.00  0.00    +0.000 A 
ATOM     18  C   UNL     1      51.179   7.721  11.021  0.00  0.00    +0.000 A 
ATOM     19  C   UNL     1      49.930   7.650  11.646  0.00  0.00    +0.000 A 
ATOM     20  C   UNL     1      49.201   8.813  11.906  0.00  0.00    +0.000 A 
ATOM     21  C   UNL     1      49.744  10.035  11.495  0.00  0.00    +0.000 A 
ATOM     22  C   UNL     1      50.988  10.101  10.851  0.00  0.00    +0.000 A 
BRANCH  17  24
ATOM     23  C   UNL     1      54.225   8.274  10.748  0.00  0.00    +0.000 C 
ATOM     24  C   UNL     1      53.121   8.993   9.936  0.00  0.00    +0.000 C 
ATOM     25  C   UNL     1      53.570  10.458   9.767  0.00  0.00    +0.000 C 
ATOM     26  C   UNL     1      53.037   8.316   8.555  0.00  0.00    +0.000 C 
ENDBRANCH  17  24
ENDBRANCH  16  20
ENDBRANCH   1  16
TORSDOF 4
ENDMDL
