MODEL 1
REMARK VINA RESULT:    -9.856      0.000      0.000
REMARK INTER + INTRA:         -13.087
REMARK INTER:                 -13.025
REMARK INTRA:                  -0.062
REMARK UNBOUND:                -0.062
REMARK  Name = 
REMARK  6 active torsions:
REMARK  status: ('A' for Active; 'I' for Inactive)
REMARK    1  A    between atoms: C_2  and  C_4
REMARK    2  A    between atoms: C_7  and  O_8
REMARK    3  A    between atoms: O_8  and  C_9
REMARK    4  A    between atoms: C_9  and  C_10
REMARK    5  A    between atoms: C_14  and  C_15
REMARK    6  A    between atoms: C_19  and  O_20
REMARK                            x       y       z     vdW  Elec       q    Type
REMARK                         _______ _______ _______ _____ _____    ______ ____
ROOT
ATOM      1  C   UNL     1      43.983   4.842  11.500  0.00  0.00    +0.000 C 
ATOM      2  C   UNL     1      43.369   3.617  12.164  0.00  0.00    +0.000 C 
ATOM      3  C   UNL     1      42.747   4.957  12.372  0.00  0.00    +0.000 C 
ENDROOT
BRANCH   1   4
ATOM      4  C   UNL     1      45.327   5.346  11.995  0.00  0.00    +0.000 A 
ATOM      5  C   UNL     1      46.044   6.311  11.275  0.00  0.00    +0.000 A 
ATOM      6  C   UNL     1      47.237   6.839  11.766  0.00  0.00    +0.000 A 
ATOM      7  C   UNL     1      47.733   6.419  13.003  0.00  0.00    +0.000 A 
ATOM      8  C   UNL     1      47.051   5.467  13.776  0.00  0.00    +0.000 A 
ATOM      9  C   UNL     1      45.868   4.932  13.229  0.00  0.00    +0.000 A 
BRANCH   8  10
ATOM     10  C   UNL     1      47.498   5.092  15.139  0.00  0.00    +0.000 A 
ATOM     11  C   UNL     1      48.468   5.853  15.820  0.00  0.00    +0.000 A 
ATOM     12  C   UNL     1      48.846   5.557  17.138  0.00  0.00    +0.000 A 
ATOM     13  C   UNL     1      48.249   4.502  17.809  0.00  0.00    +0.000 A 
ATOM     14  C   UNL     1      47.292   3.739  17.156  0.00  0.00    +0.000 A 
ATOM     15  C   UNL     1      46.930   4.011  15.835  0.00  0.00    +0.000 A 
BRANCH  14  16
ATOM     16  O   UNL     1      46.657   2.711  17.791  0.00  0.00    +0.000 OA
ATOM     17  H   UNL     1      47.211   2.412  18.531  0.00  0.00    +0.000 HD
ENDBRANCH  14  16
ENDBRANCH   8  10
ENDBRANCH   1   4
BRANCH   1  18
ATOM     18  O   UNL     1      43.823   4.774  10.060  0.00  0.00    +0.000 OA
BRANCH  18  22
ATOM     19  C   UNL     1      46.337   2.318   7.821  0.00  0.00    +0.000 A 
ATOM     20  C   UNL     1      45.472   1.722   8.745  0.00  0.00    +0.000 A 
ATOM     21  C   UNL     1      44.591   2.509   9.494  0.00  0.00    +0.000 A 
ATOM     22  C   UNL     1      44.573   3.892   9.329  0.00  0.00    +0.000 A 
ATOM     23  C   UNL     1      45.411   4.482   8.379  0.00  0.00    +0.000 A 
ATOM     24  C   UNL     1      46.298   3.703   7.633  0.00  0.00    +0.000 A 
BRANCH  19  26
ATOM     25  N   UNL     1      48.429   2.199   6.579  0.00  0.00    +0.000 N 
ATOM     26  C   UNL     1      47.350   1.524   7.081  0.00  0.00    +0.000 C 
ATOM     27  O   UNL     1      47.233   0.314   6.927  0.00  0.00    +0.000 OA
ATOM     28  H   UNL     1      49.141   1.636   6.129  0.00  0.00    +0.000 HD
ATOM     29  H   UNL     1      48.683   3.125   6.887  0.00  0.00    +0.000 HD
ENDBRANCH  19  26
ENDBRANCH  18  22
ENDBRANCH   1  18
TORSDOF 6
ENDMDL
MODEL 2
REMARK VINA RESULT:    -9.757      2.326      3.849
REMARK INTER + INTRA:         -12.957
REMARK INTER:                 -11.658
REMARK INTRA:                  -1.299
REMARK UNBOUND:                -0.062
REMARK  Name = 
REMARK  6 active torsions:
REMARK  status: ('A' for Active; 'I' for Inactive)
REMARK    1  A    between atoms: C_2  and  C_4
REMARK    2  A    between atoms: C_7  and  O_8
REMARK    3  A    between atoms: O_8  and  C_9
REMARK    4  A    between atoms: C_9  and  C_10
REMARK    5  A    between atoms: C_14  and  C_15
REMARK    6  A    between atoms: C_19  and  O_20
REMARK                            x       y       z     vdW  Elec       q    Type
REMARK                         _______ _______ _______ _____ _____    ______ ____
ROOT
ATOM      1  C   UNL     1      43.831   4.883  11.346  0.00  0.00    +0.000 C 
ATOM      2  C   UNL     1      42.507   5.130  12.057  0.00  0.00    +0.000 C 
ATOM      3  C   UNL     1      42.984   6.102  11.031  0.00  0.00    +0.000 C 
ENDROOT
BRANCH   1   4
ATOM      4  C   UNL     1      45.121   5.022  12.134  0.00  0.00    +0.000 A 
ATOM      5  C   UNL     1      45.545   4.012  13.008  0.00  0.00    +0.000 A 
ATOM      6  C   UNL     1      46.769   4.095  13.669  0.00  0.00    +0.000 A 
ATOM      7  C   UNL     1      47.606   5.194  13.457  0.00  0.00    +0.000 A 
ATOM      8  C   UNL     1      47.243   6.228  12.583  0.00  0.00    +0.000 A 
ATOM      9  C   UNL     1      45.983   6.124  11.960  0.00  0.00    +0.000 A 
BRANCH   8  10
ATOM     10  C   UNL     1      48.165   7.344  12.256  0.00  0.00    +0.000 A 
ATOM     11  C   UNL     1      47.677   8.646  12.031  0.00  0.00    +0.000 A 
ATOM     12  C   UNL     1      48.540   9.726  11.797  0.00  0.00    +0.000 A 
ATOM     13  C   UNL     1      49.912   9.530  11.800  0.00  0.00    +0.000 A 
ATOM     14  C   UNL     1      50.413   8.255  12.019  0.00  0.00    +0.000 A 
ATOM     15  C   UNL     1      49.559   7.169  12.226  0.00  0.00    +0.000 A 
BRANCH  14  16
ATOM     16  O   UNL     1      51.757   8.023  12.061  0.00  0.00    +0.000 OA
ATOM     17  H   UNL     1      52.081   7.898  11.153  0.00  0.00    +0.000 HD
ENDBRANCH  14  16
ENDBRANCH   8  10
ENDBRANCH   1   4
BRANCH   1  18
ATOM     18  O   UNL     1      43.736   3.720  10.485  0.00  0.00    +0.000 OA
BRANCH  18  22
ATOM     19  C   UNL     1      46.529   2.728   7.556  0.00  0.00    +0.000 A 
ATOM     20  C   UNL     1      46.212   4.077   7.746  0.00  0.00    +0.000 A 
ATOM     21  C   UNL     1      45.303   4.454   8.739  0.00  0.00    +0.000 A 
ATOM     22  C   UNL     1      44.702   3.487   9.542  0.00  0.00    +0.000 A 
ATOM     23  C   UNL     1      45.047   2.143   9.377  0.00  0.00    +0.000 A 
ATOM     24  C   UNL     1      45.950   1.760   8.382  0.00  0.00    +0.000 A 
BRANCH  19  26
ATOM     25  N   UNL     1      47.271   2.917   5.243  0.00  0.00    +0.000 N 
ATOM     26  C   UNL     1      47.416   2.287   6.449  0.00  0.00    +0.000 C 
ATOM     27  O   UNL     1      48.246   1.400   6.604  0.00  0.00    +0.000 OA
ATOM     28  H   UNL     1      47.922   2.648   4.515  0.00  0.00    +0.000 HD
ATOM     29  H   UNL     1      46.787   3.796   5.143  0.00  0.00    +0.000 HD
ENDBRANCH  19  26
ENDBRANCH  18  22
ENDBRANCH   1  18
TORSDOF 6
ENDMDL
MODEL 3
REMARK VINA RESULT:    -8.905      2.858      7.702
REMARK INTER + INTRA:         -11.831
REMARK INTER:                 -10.707
REMARK INTRA:                  -1.124
REMARK UNBOUND:                -0.062
REMARK  Name = 
REMARK  6 active torsions:
REMARK  status: ('A' for Active; 'I' for Inactive)
REMARK    1  A    between atoms: C_2  and  C_4
REMARK    2  A    between atoms: C_7  and  O_8
REMARK    3  A    between atoms: O_8  and  C_9
REMARK    4  A    between atoms: C_9  and  C_10
REMARK    5  A    between atoms: C_14  and  C_15
REMARK    6  A    between atoms: C_19  and  O_20
REMARK                            x       y       z     vdW  Elec       q    Type
REMARK                         _______ _______ _______ _____ _____    ______ ____
ROOT
ATOM      1  C   UNL     1      46.050   7.105  12.174  0.00  0.00    +0.000 C 
ATOM      2  C   UNL     1      46.091   8.512  11.592  0.00  0.00    +0.000 C 
ATOM      3  C   UNL     1      45.390   8.271  12.887  0.00  0.00    +0.000 C 
ENDROOT
BRANCH   1   4
ATOM      4  C   UNL     1      45.209   6.050  11.476  0.00  0.00    +0.000 A 
ATOM      5  C   UNL     1      43.828   5.969  11.696  0.00  0.00    +0.000 A 
ATOM      6  C   UNL     1      43.038   5.060  10.995  0.00  0.00    +0.000 A 
ATOM      7  C   UNL     1      43.616   4.216  10.044  0.00  0.00    +0.000 A 
ATOM      8  C   UNL     1      44.991   4.262   9.770  0.00  0.00    +0.000 A 
ATOM      9  C   UNL     1      45.761   5.170  10.524  0.00  0.00    +0.000 A 
BRANCH   8  10
ATOM     10  C   UNL     1      45.606   3.457   8.686  0.00  0.00    +0.000 A 
ATOM     11  C   UNL     1      46.147   4.074   7.541  0.00  0.00    +0.000 A 
ATOM     12  C   UNL     1      46.799   3.335   6.544  0.00  0.00    +0.000 A 
ATOM     13  C   UNL     1      46.940   1.963   6.679  0.00  0.00    +0.000 A 
ATOM     14  C   UNL     1      46.414   1.335   7.800  0.00  0.00    +0.000 A 
ATOM     15  C   UNL     1      45.740   2.061   8.784  0.00  0.00    +0.000 A 
BRANCH  14  16
ATOM     16  O   UNL     1      46.558  -0.009   7.987  0.00  0.00    +0.000 OA
ATOM     17  H   UNL     1      47.333  -0.164   8.553  0.00  0.00    +0.000 HD
ENDBRANCH  14  16
ENDBRANCH   8  10
ENDBRANCH   1   4
BRANCH   1  18
ATOM     18  O   UNL     1      47.375   6.688  12.589  0.00  0.00    +0.000 OA
BRANCH  18  22
ATOM     19  C   UNL     1      47.897   4.873  16.304  0.00  0.00    +0.000 A 
ATOM     20  C   UNL     1      47.104   4.226  15.351  0.00  0.00    +0.000 A 
ATOM     21  C   UNL     1      46.928   4.787  14.082  0.00  0.00    +0.000 A 
ATOM     22  C   UNL     1      47.538   5.997  13.761  0.00  0.00    +0.000 A 
ATOM     23  C   UNL     1      48.361   6.624  14.701  0.00  0.00    +0.000 A 
ATOM     24  C   UNL     1      48.534   6.073  15.972  0.00  0.00    +0.000 A 
BRANCH  19  26
ATOM     25  N   UNL     1      47.097   4.775  18.603  0.00  0.00    +0.000 N 
ATOM     26  C   UNL     1      48.025   4.354  17.689  0.00  0.00    +0.000 C 
ATOM     27  O   UNL     1      48.919   3.579  18.007  0.00  0.00    +0.000 OA
ATOM     28  H   UNL     1      47.161   4.366  19.528  0.00  0.00    +0.000 HD
ATOM     29  H   UNL     1      46.225   5.203  18.335  0.00  0.00    +0.000 HD
ENDBRANCH  19  26
ENDBRANCH  18  22
ENDBRANCH   1  18
TORSDOF 6
ENDMDL
MODEL 4
REMARK VINA RESULT:    -8.569      2.120      2.734
REMARK INTER + INTRA:         -11.387
REMARK INTER:                 -11.293
REMARK INTRA:                  -0.094
REMARK UNBOUND:                -0.062
REMARK  Name = 
REMARK  6 active torsions:
REMARK  status: ('A' for Active; 'I' for Inactive)
REMARK    1  A    between atoms: C_2  and  C_4
REMARK    2  A    between atoms: C_7  and  O_8
REMARK    3  A    between atoms: O_8  and  C_9
REMARK    4  A    between atoms: C_9  and  C_10
REMARK    5  A    between atoms: C_14  and  C_15
REMARK    6  A    between atoms: C_19  and  O_20
REMARK                            x       y       z     vdW  Elec       q    Type
REMARK                         _______ _______ _______ _____ _____    ______ ____
ROOT
ATOM      1  C   UNL     1      44.235   4.426  11.598  0.00  0.00    +0.000 C 
ATOM      2  C   UNL     1      44.944   3.277  12.300  0.00  0.00    +0.000 C 
ATOM      3  C   UNL     1      43.655   3.791  12.848  0.00  0.00    +0.000 C 
ENDROOT
BRANCH   1   4
ATOM      4  C   UNL     1      44.855   5.811  11.651  0.00  0.00    +0.000 A 
ATOM      5  C   UNL     1      44.107   6.949  11.320  0.00  0.00    +0.000 A 
ATOM      6  C   UNL     1      44.644   8.228  11.449  0.00  0.00    +0.000 A 
ATOM      7  C   UNL     1      45.946   8.398  11.928  0.00  0.00    +0.000 A 
ATOM      8  C   UNL     1      46.737   7.297  12.291  0.00  0.00    +0.000 A 
ATOM      9  C   UNL     1      46.170   6.019  12.113  0.00  0.00    +0.000 A 
BRANCH   8  10
ATOM     10  C   UNL     1      48.076   7.459  12.908  0.00  0.00    +0.000 A 
ATOM     11  C   UNL     1      49.019   8.358  12.373  0.00  0.00    +0.000 A 
ATOM     12  C   UNL     1      50.259   8.579  12.988  0.00  0.00    +0.000 A 
ATOM     13  C   UNL     1      50.577   7.917  14.163  0.00  0.00    +0.000 A 
ATOM     14  C   UNL     1      49.662   7.025  14.707  0.00  0.00    +0.000 A 
ATOM     15  C   UNL     1      48.436   6.781  14.085  0.00  0.00    +0.000 A 
BRANCH  14  16
ATOM     16  O   UNL     1      49.922   6.376  15.879  0.00  0.00    +0.000 OA
ATOM     17  H   UNL     1      49.654   5.446  15.786  0.00  0.00    +0.000 HD
ENDBRANCH  14  16
ENDBRANCH   8  10
ENDBRANCH   1   4
BRANCH   1  18
ATOM     18  O   UNL     1      43.741   4.003  10.302  0.00  0.00    +0.000 OA
BRANCH  18  22
ATOM     19  C   UNL     1      46.561   2.692   7.528  0.00  0.00    +0.000 A 
ATOM     20  C   UNL     1      45.857   1.735   8.267  0.00  0.00    +0.000 A 
ATOM     21  C   UNL     1      44.881   2.133   9.185  0.00  0.00    +0.000 A 
ATOM     22  C   UNL     1      44.607   3.485   9.376  0.00  0.00    +0.000 A 
ATOM     23  C   UNL     1      45.284   4.439   8.610  0.00  0.00    +0.000 A 
ATOM     24  C   UNL     1      46.265   4.049   7.696  0.00  0.00    +0.000 A 
BRANCH  19  26
ATOM     25  N   UNL     1      47.795   3.019   5.453  0.00  0.00    +0.000 N 
ATOM     26  C   UNL     1      47.669   2.309   6.616  0.00  0.00    +0.000 C 
ATOM     27  O   UNL     1      48.443   1.400   6.890  0.00  0.00    +0.000 OA
ATOM     28  H   UNL     1      48.591   2.787   4.870  0.00  0.00    +0.000 HD
ATOM     29  H   UNL     1      47.347   3.910   5.308  0.00  0.00    +0.000 HD
ENDBRANCH  19  26
ENDBRANCH  18  22
ENDBRANCH   1  18
TORSDOF 6
ENDMDL
MODEL 5
REMARK VINA RESULT:    -7.953      2.761      4.612
REMARK INTER + INTRA:         -10.573
REMARK INTER:                  -9.548
REMARK INTRA:                  -1.025
REMARK UNBOUND:                -0.062
REMARK  Name = 
REMARK  6 active torsions:
REMARK  status: ('A' for Active; 'I' for Inactive)
REMARK    1  A    between atoms: C_2  and  C_4
REMARK    2  A    between atoms: C_7  and  O_8
REMARK    3  A    between atoms: O_8  and  C_9
REMARK    4  A    between atoms: C_9  and  C_10
REMARK    5  A    between atoms: C_14  and  C_15
REMARK    6  A    between atoms: C_19  and  O_20
REMARK                            x       y       z     vdW  Elec       q    Type
REMARK                         _______ _______ _______ _____ _____    ______ ____
ROOT
ATOM      1  C   UNL     1      48.152   8.169  12.560  0.00  0.00    +0.000 C 
ATOM      2  C   UNL     1      48.880   9.221  11.734  0.00  0.00    +0.000 C 
ATOM      3  C   UNL     1      49.231   7.781  11.566  0.00  0.00    +0.000 C 
ENDROOT
BRANCH   1   4
ATOM      4  C   UNL     1      48.418   8.100  14.053  0.00  0.00    +0.000 A 
ATOM      5  C   UNL     1      48.398   9.258  14.843  0.00  0.00    +0.000 A 
ATOM      6  C   UNL     1      48.556   9.192  16.226  0.00  0.00    +0.000 A 
ATOM      7  C   UNL     1      48.725   7.955  16.853  0.00  0.00    +0.000 A 
ATOM      8  C   UNL     1      48.738   6.761  16.117  0.00  0.00    +0.000 A 
ATOM      9  C   UNL     1      48.609   6.873  14.719  0.00  0.00    +0.000 A 
BRANCH   8  10
ATOM     10  C   UNL     1      48.801   5.432  16.773  0.00  0.00    +0.000 A 
ATOM     11  C   UNL     1      49.996   4.966  17.356  0.00  0.00    +0.000 A 
ATOM     12  C   UNL     1      50.053   3.746  18.046  0.00  0.00    +0.000 A 
ATOM     13  C   UNL     1      48.910   2.973  18.183  0.00  0.00    +0.000 A 
ATOM     14  C   UNL     1      47.723   3.414  17.615  0.00  0.00    +0.000 A 
ATOM     15  C   UNL     1      47.665   4.614  16.903  0.00  0.00    +0.000 A 
BRANCH  14  16
ATOM     16  O   UNL     1      46.569   2.699  17.752  0.00  0.00    +0.000 OA
ATOM     17  H   UNL     1      45.885   3.101  17.191  0.00  0.00    +0.000 HD
ENDBRANCH  14  16
ENDBRANCH   8  10
ENDBRANCH   1   4
BRANCH   1  18
ATOM     18  O   UNL     1      46.762   8.080  12.158  0.00  0.00    +0.000 OA
BRANCH  18  22
ATOM     19  C   UNL     1      44.862   4.410  11.620  0.00  0.00    +0.000 A 
ATOM     20  C   UNL     1      45.370   5.069  10.496  0.00  0.00    +0.000 A 
ATOM     21  C   UNL     1      46.041   6.288  10.638  0.00  0.00    +0.000 A 
ATOM     22  C   UNL     1      46.203   6.857  11.899  0.00  0.00    +0.000 A 
ATOM     23  C   UNL     1      45.728   6.179  13.025  0.00  0.00    +0.000 A 
ATOM     24  C   UNL     1      45.051   4.965  12.890  0.00  0.00    +0.000 A 
BRANCH  19  26
ATOM     25  N   UNL     1      43.770   2.491  12.650  0.00  0.00    +0.000 N 
ATOM     26  C   UNL     1      44.062   3.165  11.495  0.00  0.00    +0.000 C 
ATOM     27  O   UNL     1      43.673   2.756  10.408  0.00  0.00    +0.000 OA
ATOM     28  H   UNL     1      43.173   1.678  12.556  0.00  0.00    +0.000 HD
ATOM     29  H   UNL     1      43.855   2.912  13.562  0.00  0.00    +0.000 HD
ENDBRANCH  19  26
ENDBRANCH  18  22
ENDBRANCH   1  18
TORSDOF 6
ENDMDL
MODEL 6
REMARK VINA RESULT:    -7.633      2.912      4.659
REMARK INTER + INTRA:         -10.149
REMARK INTER:                  -8.976
REMARK INTRA:                  -1.173
REMARK UNBOUND:                -0.062
REMARK  Name = 
REMARK  6 active torsions:
REMARK  status: ('A' for Active; 'I' for Inactive)
REMARK    1  A    between atoms: C_2  and  C_4
REMARK    2  A    between atoms: C_7  and  O_8
REMARK    3  A    between atoms: O_8  and  C_9
REMARK    4  A    between atoms: C_9  and  C_10
REMARK    5  A    between atoms: C_14  and  C_15
REMARK    6  A    between atoms: C_19  and  O_20
REMARK                            x       y       z     vdW  Elec       q    Type
REMARK                         _______ _______ _______ _____ _____    ______ ____
ROOT
ATOM      1  C   UNL     1      47.997   8.067  12.519  0.00  0.00    +0.000 C 
ATOM      2  C   UNL     1      48.812   9.037  11.674  0.00  0.00    +0.000 C 
ATOM      3  C   UNL     1      49.015   7.567  11.511  0.00  0.00    +0.000 C 
ENDROOT
BRANCH   1   4
ATOM      4  C   UNL     1      48.279   7.981  14.009  0.00  0.00    +0.000 A 
ATOM      5  C   UNL     1      48.214   9.121  14.821  0.00  0.00    +0.000 A 
ATOM      6  C   UNL     1      48.388   9.034  16.202  0.00  0.00    +0.000 A 
ATOM      7  C   UNL     1      48.617   7.794  16.803  0.00  0.00    +0.000 A 
ATOM      8  C   UNL     1      48.677   6.617  16.043  0.00  0.00    +0.000 A 
ATOM      9  C   UNL     1      48.531   6.750  14.648  0.00  0.00    +0.000 A 
BRANCH   8  10
ATOM     10  C   UNL     1      48.805   5.279  16.672  0.00  0.00    +0.000 A 
ATOM     11  C   UNL     1      47.818   4.292  16.487  0.00  0.00    +0.000 A 
ATOM     12  C   UNL     1      47.960   2.999  17.010  0.00  0.00    +0.000 A 
ATOM     13  C   UNL     1      49.104   2.660  17.717  0.00  0.00    +0.000 A 
ATOM     14  C   UNL     1      50.089   3.618  17.911  0.00  0.00    +0.000 A 
ATOM     15  C   UNL     1      49.941   4.915  17.415  0.00  0.00    +0.000 A 
BRANCH  14  16
ATOM     16  O   UNL     1      51.243   3.317  18.573  0.00  0.00    +0.000 OA
ATOM     17  H   UNL     1      51.210   2.386  18.850  0.00  0.00    +0.000 HD
ENDBRANCH  14  16
ENDBRANCH   8  10
ENDBRANCH   1   4
BRANCH   1  18
ATOM     18  O   UNL     1      46.598   8.113  12.140  0.00  0.00    +0.000 OA
BRANCH  18  22
ATOM     19  C   UNL     1      44.606   4.490  11.622  0.00  0.00    +0.000 A 
ATOM     20  C   UNL     1      44.619   5.068  12.896  0.00  0.00    +0.000 A 
ATOM     21  C   UNL     1      45.251   6.298  13.104  0.00  0.00    +0.000 A 
ATOM     22  C   UNL     1      45.876   6.953  12.046  0.00  0.00    +0.000 A 
ATOM     23  C   UNL     1      45.830   6.394  10.766  0.00  0.00    +0.000 A 
ATOM     24  C   UNL     1      45.207   5.163  10.553  0.00  0.00    +0.000 A 
BRANCH  19  26
ATOM     25  N   UNL     1      43.770   2.372  12.487  0.00  0.00    +0.000 N 
ATOM     26  C   UNL     1      44.029   3.143  11.386  0.00  0.00    +0.000 C 
ATOM     27  O   UNL     1      43.789   2.733  10.257  0.00  0.00    +0.000 OA
ATOM     28  H   UNL     1      43.321   1.480  12.315  0.00  0.00    +0.000 HD
ATOM     29  H   UNL     1      43.721   2.754  13.419  0.00  0.00    +0.000 HD
ENDBRANCH  19  26
ENDBRANCH  18  22
ENDBRANCH   1  18
TORSDOF 6
ENDMDL
MODEL 7
REMARK VINA RESULT:    -7.399      3.045      7.437
REMARK INTER + INTRA:          -9.840
REMARK INTER:                 -10.183
REMARK INTRA:                   0.343
REMARK UNBOUND:                -0.062
REMARK  Name = 
REMARK  6 active torsions:
REMARK  status: ('A' for Active; 'I' for Inactive)
REMARK    1  A    between atoms: C_2  and  C_4
REMARK    2  A    between atoms: C_7  and  O_8
REMARK    3  A    between atoms: O_8  and  C_9
REMARK    4  A    between atoms: C_9  and  C_10
REMARK    5  A    between atoms: C_14  and  C_15
REMARK    6  A    between atoms: C_19  and  O_20
REMARK                            x       y       z     vdW  Elec       q    Type
REMARK                         _______ _______ _______ _____ _____    ______ ____
ROOT
ATOM      1  C   UNL     1      48.656   8.115  12.629  0.00  0.00    +0.000 C 
ATOM      2  C   UNL     1      49.769   7.471  11.814  0.00  0.00    +0.000 C 
ATOM      3  C   UNL     1      49.584   8.950  11.766  0.00  0.00    +0.000 C 
ENDROOT
BRANCH   1   4
ATOM      4  C   UNL     1      47.215   7.882  12.211  0.00  0.00    +0.000 A 
ATOM      5  C   UNL     1      46.257   8.898  12.330  0.00  0.00    +0.000 A 
ATOM      6  C   UNL     1      44.954   8.718  11.870  0.00  0.00    +0.000 A 
ATOM      7  C   UNL     1      44.583   7.514  11.265  0.00  0.00    +0.000 A 
ATOM      8  C   UNL     1      45.503   6.467  11.105  0.00  0.00    +0.000 A 
ATOM      9  C   UNL     1      46.800   6.675  11.614  0.00  0.00    +0.000 A 
BRANCH   8  10
ATOM     10  C   UNL     1      45.163   5.227  10.366  0.00  0.00    +0.000 A 
ATOM     11  C   UNL     1      45.639   5.007   9.058  0.00  0.00    +0.000 A 
ATOM     12  C   UNL     1      45.391   3.809   8.374  0.00  0.00    +0.000 A 
ATOM     13  C   UNL     1      44.675   2.795   8.991  0.00  0.00    +0.000 A 
ATOM     14  C   UNL     1      44.196   2.991  10.279  0.00  0.00    +0.000 A 
ATOM     15  C   UNL     1      44.417   4.192  10.956  0.00  0.00    +0.000 A 
BRANCH  14  16
ATOM     16  O   UNL     1      43.514   2.008  10.934  0.00  0.00    +0.000 OA
ATOM     17  H   UNL     1      43.157   1.385  10.279  0.00  0.00    +0.000 HD
ENDBRANCH  14  16
ENDBRANCH   8  10
ENDBRANCH   1   4
BRANCH   1  18
ATOM     18  O   UNL     1      48.932   7.999  14.047  0.00  0.00    +0.000 OA
BRANCH  18  22
ATOM     19  C   UNL     1      47.986   4.660  16.354  0.00  0.00    +0.000 A 
ATOM     20  C   UNL     1      47.406   4.782  15.086  0.00  0.00    +0.000 A 
ATOM     21  C   UNL     1      47.721   5.872  14.270  0.00  0.00    +0.000 A 
ATOM     22  C   UNL     1      48.610   6.847  14.714  0.00  0.00    +0.000 A 
ATOM     23  C   UNL     1      49.218   6.705  15.965  0.00  0.00    +0.000 A 
ATOM     24  C   UNL     1      48.903   5.623  16.788  0.00  0.00    +0.000 A 
BRANCH  19  26
ATOM     25  N   UNL     1      48.579   3.065  18.097  0.00  0.00    +0.000 N 
ATOM     26  C   UNL     1      47.600   3.568  17.283  0.00  0.00    +0.000 C 
ATOM     27  O   UNL     1      46.456   3.134  17.327  0.00  0.00    +0.000 OA
ATOM     28  H   UNL     1      48.287   2.363  18.768  0.00  0.00    +0.000 HD
ATOM     29  H   UNL     1      49.448   3.547  18.265  0.00  0.00    +0.000 HD
ENDBRANCH  19  26
ENDBRANCH  18  22
ENDBRANCH   1  18
TORSDOF 6
ENDMDL
MODEL 8
REMARK VINA RESULT:    -7.387      3.843      8.531
REMARK INTER + INTRA:          -9.825
REMARK INTER:                  -8.732
REMARK INTRA:                  -1.093
REMARK UNBOUND:                -0.062
REMARK  Name = 
REMARK  6 active torsions:
REMARK  status: ('A' for Active; 'I' for Inactive)
REMARK    1  A    between atoms: C_2  and  C_4
REMARK    2  A    between atoms: C_7  and  O_8
REMARK    3  A    between atoms: O_8  and  C_9
REMARK    4  A    between atoms: C_9  and  C_10
REMARK    5  A    between atoms: C_14  and  C_15
REMARK    6  A    between atoms: C_19  and  O_20
REMARK                            x       y       z     vdW  Elec       q    Type
REMARK                         _______ _______ _______ _____ _____    ______ ____
ROOT
ATOM      1  C   UNL     1      49.101   7.787  12.688  0.00  0.00    +0.000 C 
ATOM      2  C   UNL     1      50.076   7.722  11.521  0.00  0.00    +0.000 C 
ATOM      3  C   UNL     1      49.870   9.015  12.237  0.00  0.00    +0.000 C 
ENDROOT
BRANCH   1   4
ATOM      4  C   UNL     1      47.614   7.661  12.407  0.00  0.00    +0.000 A 
ATOM      5  C   UNL     1      46.738   8.722  12.673  0.00  0.00    +0.000 A 
ATOM      6  C   UNL     1      45.388   8.643  12.338  0.00  0.00    +0.000 A 
ATOM      7  C   UNL     1      44.885   7.498  11.715  0.00  0.00    +0.000 A 
ATOM      8  C   UNL     1      45.717   6.410  11.411  0.00  0.00    +0.000 A 
ATOM      9  C   UNL     1      47.068   6.515  11.796  0.00  0.00    +0.000 A 
BRANCH   8  10
ATOM     10  C   UNL     1      45.229   5.235  10.649  0.00  0.00    +0.000 A 
ATOM     11  C   UNL     1      45.596   5.039   9.303  0.00  0.00    +0.000 A 
ATOM     12  C   UNL     1      45.206   3.895   8.592  0.00  0.00    +0.000 A 
ATOM     13  C   UNL     1      44.455   2.913   9.217  0.00  0.00    +0.000 A 
ATOM     14  C   UNL     1      44.082   3.086  10.543  0.00  0.00    +0.000 A 
ATOM     15  C   UNL     1      44.444   4.236  11.249  0.00  0.00    +0.000 A 
BRANCH  14  16
ATOM     16  O   UNL     1      43.369   2.130  11.205  0.00  0.00    +0.000 OA
ATOM     17  H   UNL     1      42.498   2.043  10.784  0.00  0.00    +0.000 HD
ENDBRANCH  14  16
ENDBRANCH   8  10
ENDBRANCH   1   4
BRANCH   1  18
ATOM     18  O   UNL     1      49.602   7.020  13.812  0.00  0.00    +0.000 OA
BRANCH  18  22
ATOM     19  C   UNL     1      48.571   7.726  17.787  0.00  0.00    +0.000 A 
ATOM     20  C   UNL     1      48.812   8.824  16.955  0.00  0.00    +0.000 A 
ATOM     21  C   UNL     1      49.130   8.630  15.608  0.00  0.00    +0.000 A 
ATOM     22  C   UNL     1      49.216   7.342  15.086  0.00  0.00    +0.000 A 
ATOM     23  C   UNL     1      48.939   6.246  15.909  0.00  0.00    +0.000 A 
ATOM     24  C   UNL     1      48.627   6.433  17.257  0.00  0.00    +0.000 A 
BRANCH  19  26
ATOM     25  N   UNL     1      49.369   7.623  20.087  0.00  0.00    +0.000 N 
ATOM     26  C   UNL     1      48.326   7.892  19.242  0.00  0.00    +0.000 C 
ATOM     27  O   UNL     1      47.241   8.259  19.674  0.00  0.00    +0.000 OA
ATOM     28  H   UNL     1      49.206   7.799  21.071  0.00  0.00    +0.000 HD
ATOM     29  H   UNL     1      50.324   7.560  19.770  0.00  0.00    +0.000 HD
ENDBRANCH  19  26
ENDBRANCH  18  22
ENDBRANCH   1  18
TORSDOF 6
ENDMDL
MODEL 9
REMARK VINA RESULT:    -6.967      4.225      7.191
REMARK INTER + INTRA:          -9.270
REMARK INTER:                  -8.130
REMARK INTRA:                  -1.140
REMARK UNBOUND:                -0.062
REMARK  Name = 
REMARK  6 active torsions:
REMARK  status: ('A' for Active; 'I' for Inactive)
REMARK    1  A    between atoms: C_2  and  C_4
REMARK    2  A    between atoms: C_7  and  O_8
REMARK    3  A    between atoms: O_8  and  C_9
REMARK    4  A    between atoms: C_9  and  C_10
REMARK    5  A    between atoms: C_14  and  C_15
REMARK    6  A    between atoms: C_19  and  O_20
REMARK                            x       y       z     vdW  Elec       q    Type
REMARK                         _______ _______ _______ _____ _____    ______ ____
ROOT
ATOM      1  C   UNL     1      48.313   8.036  13.567  0.00  0.00    +0.000 C 
ATOM      2  C   UNL     1      48.334   8.053  15.089  0.00  0.00    +0.000 C 
ATOM      3  C   UNL     1      48.855   6.861  14.359  0.00  0.00    +0.000 C 
ENDROOT
BRANCH   1   4
ATOM      4  C   UNL     1      46.976   7.937  12.855  0.00  0.00    +0.000 A 
ATOM      5  C   UNL     1      46.157   9.064  12.701  0.00  0.00    +0.000 A 
ATOM      6  C   UNL     1      44.969   8.999  11.975  0.00  0.00    +0.000 A 
ATOM      7  C   UNL     1      44.580   7.799  11.373  0.00  0.00    +0.000 A 
ATOM      8  C   UNL     1      45.366   6.643  11.480  0.00  0.00    +0.000 A 
ATOM      9  C   UNL     1      46.542   6.740  12.250  0.00  0.00    +0.000 A 
BRANCH   8  10
ATOM     10  C   UNL     1      45.031   5.392  10.755  0.00  0.00    +0.000 A 
ATOM     11  C   UNL     1      45.532   5.145   9.462  0.00  0.00    +0.000 A 
ATOM     12  C   UNL     1      45.288   3.937   8.795  0.00  0.00    +0.000 A 
ATOM     13  C   UNL     1      44.550   2.940   9.415  0.00  0.00    +0.000 A 
ATOM     14  C   UNL     1      44.046   3.164  10.688  0.00  0.00    +0.000 A 
ATOM     15  C   UNL     1      44.263   4.375  11.348  0.00  0.00    +0.000 A 
BRANCH  14  16
ATOM     16  O   UNL     1      43.341   2.198  11.346  0.00  0.00    +0.000 OA
ATOM     17  H   UNL     1      43.966   1.546  11.706  0.00  0.00    +0.000 HD
ENDBRANCH  14  16
ENDBRANCH   8  10
ENDBRANCH   1   4
BRANCH   1  18
ATOM     18  O   UNL     1      49.244   9.012  13.035  0.00  0.00    +0.000 OA
BRANCH  18  22
ATOM     19  C   UNL     1      52.707   7.724  11.107  0.00  0.00    +0.000 A 
ATOM     20  C   UNL     1      51.469   7.400  10.542  0.00  0.00    +0.000 A 
ATOM     21  C   UNL     1      50.285   7.840  11.141  0.00  0.00    +0.000 A 
ATOM     22  C   UNL     1      50.329   8.597  12.309  0.00  0.00    +0.000 A 
ATOM     23  C   UNL     1      51.567   8.952  12.853  0.00  0.00    +0.000 A 
ATOM     24  C   UNL     1      52.753   8.510  12.263  0.00  0.00    +0.000 A 
BRANCH  19  26
ATOM     25  N   UNL     1      54.142   5.834  10.557  0.00  0.00    +0.000 N 
ATOM     26  C   UNL     1      53.977   7.193  10.551  0.00  0.00    +0.000 C 
ATOM     27  O   UNL     1      54.843   7.933  10.102  0.00  0.00    +0.000 OA
ATOM     28  H   UNL     1      54.987   5.483  10.120  0.00  0.00    +0.000 HD
ATOM     29  H   UNL     1      53.375   5.193  10.685  0.00  0.00    +0.000 HD
ENDBRANCH  19  26
ENDBRANCH  18  22
ENDBRANCH   1  18
TORSDOF 6
ENDMDL
