MODEL 1
REMARK VINA RESULT:    -8.538      0.000      0.000
REMARK INTER + INTRA:         -10.728
REMARK INTER:                 -10.036
REMARK INTRA:                  -0.692
REMARK UNBOUND:                -0.692
REMARK  Name = 
REMARK  3 active torsions:
REMARK  status: ('A' for Active; 'I' for Inactive)
REMARK    1  A    between atoms: C_2  and  C_4
REMARK    2  A    between atoms: N_8  and  C_9
REMARK    3  A    between atoms: C_9  and  C_10
REMARK                            x       y       z     vdW  Elec       q    Type
REMARK                         _______ _______ _______ _____ _____    ______ ____
ROOT
ATOM      1  C   UNL     1      46.562   2.687   7.491  0.00  0.00    +0.000 A 
ATOM      2  C   UNL     1      46.274   4.040   7.658  0.00  0.00    +0.000 A 
ATOM      3  C   UNL     1      45.410   4.437   8.683  0.00  0.00    +0.000 A 
ATOM      4  C   UNL     1      44.839   3.477   9.508  0.00  0.00    +0.000 A 
ATOM      5  N   UNL     1      43.901   3.766  10.500  0.00  0.00    +0.000 N 
ATOM      6  N   UNL     1      45.089   2.161   9.339  0.00  0.00    +0.000 NA
ATOM      7  C   UNL     1      45.935   1.791   8.342  0.00  0.00    +0.000 A 
ATOM      8  H   UNL     1      43.699   2.878  10.956  0.00  0.00    +0.000 HD
ENDROOT
BRANCH   1  10
ATOM      9  N   UNL     1      47.787   3.010   5.414  0.00  0.00    +0.000 N 
ATOM     10  C   UNL     1      47.472   2.171   6.449  0.00  0.00    +0.000 C 
ATOM     11  O   UNL     1      47.959   1.050   6.524  0.00  0.00    +0.000 OA
ATOM     12  H   UNL     1      48.495   2.673   4.770  0.00  0.00    +0.000 HD
ATOM     13  H   UNL     1      47.611   4.002   5.448  0.00  0.00    +0.000 HD
ENDBRANCH   1  10
BRANCH   5  14
ATOM     14  C   UNL     1      43.886   4.956  11.359  0.00  0.00    +0.000 C 
ATOM     15  C   UNL     1      42.558   5.150  12.088  0.00  0.00    +0.000 C 
ATOM     16  C   UNL     1      43.025   6.188  11.128  0.00  0.00    +0.000 C 
BRANCH  14  17
ATOM     17  C   UNL     1      45.190   5.221  12.115  0.00  0.00    +0.000 A 
ATOM     18  C   UNL     1      45.978   6.350  11.812  0.00  0.00    +0.000 A 
ATOM     19  C   UNL     1      47.087   6.695  12.587  0.00  0.00    +0.000 A 
ATOM     20  C   UNL     1      47.437   5.900  13.669  0.00  0.00    +0.000 A 
ATOM     21  F   UNL     1      48.472   6.254  14.442  0.00  0.00    +0.000 F 
ATOM     22  C   UNL     1      46.720   4.751  13.967  0.00  0.00    +0.000 A 
ATOM     23  C   UNL     1      45.611   4.408  13.186  0.00  0.00    +0.000 A 
ENDBRANCH  14  17
ENDBRANCH   5  14
TORSDOF 3
ENDMDL
MODEL 2
REMARK VINA RESULT:    -6.940      3.955      6.247
REMARK INTER + INTRA:          -8.849
REMARK INTER:                  -8.329
REMARK INTRA:                  -0.520
REMARK UNBOUND:                -0.692
REMARK  Name = 
REMARK  3 active torsions:
REMARK  status: ('A' for Active; 'I' for Inactive)
REMARK    1  A    between atoms: C_2  and  C_4
REMARK    2  A    between atoms: N_8  and  C_9
REMARK    3  A    between atoms: C_9  and  C_10
REMARK                            x       y       z     vdW  Elec       q    Type
REMARK                         _______ _______ _______ _____ _____    ______ ____
ROOT
ATOM      1  C   UNL     1      48.387   6.674  13.553  0.00  0.00    +0.000 A 
ATOM      2  C   UNL     1      47.508   5.677  13.971  0.00  0.00    +0.000 A 
ATOM      3  C   UNL     1      46.385   5.381  13.193  0.00  0.00    +0.000 A 
ATOM      4  C   UNL     1      46.152   6.094  12.024  0.00  0.00    +0.000 A 
ATOM      5  N   UNL     1      45.019   5.930  11.228  0.00  0.00    +0.000 N 
ATOM      6  N   UNL     1      46.983   7.081  11.623  0.00  0.00    +0.000 NA
ATOM      7  C   UNL     1      48.073   7.353  12.386  0.00  0.00    +0.000 A 
ATOM      8  H   UNL     1      45.148   6.553  10.433  0.00  0.00    +0.000 HD
ENDROOT
BRANCH   1  10
ATOM      9  N   UNL     1      50.568   7.750  13.621  0.00  0.00    +0.000 N 
ATOM     10  C   UNL     1      49.605   7.049  14.297  0.00  0.00    +0.000 C 
ATOM     11  O   UNL     1      49.738   6.779  15.483  0.00  0.00    +0.000 OA
ATOM     12  H   UNL     1      51.344   8.088  14.179  0.00  0.00    +0.000 HD
ATOM     13  H   UNL     1      50.389   8.199  12.736  0.00  0.00    +0.000 HD
ENDBRANCH   1  10
BRANCH   5  14
ATOM     14  C   UNL     1      44.323   4.666  10.958  0.00  0.00    +0.000 C 
ATOM     15  C   UNL     1      42.811   4.763  11.150  0.00  0.00    +0.000 C 
ATOM     16  C   UNL     1      43.600   3.828  11.999  0.00  0.00    +0.000 C 
BRANCH  14  17
ATOM     17  C   UNL     1      44.868   3.874   9.766  0.00  0.00    +0.000 A 
ATOM     18  C   UNL     1      45.526   4.532   8.708  0.00  0.00    +0.000 A 
ATOM     19  C   UNL     1      46.163   3.821   7.689  0.00  0.00    +0.000 A 
ATOM     20  C   UNL     1      46.134   2.434   7.705  0.00  0.00    +0.000 A 
ATOM     21  F   UNL     1      46.784   1.748   6.756  0.00  0.00    +0.000 F 
ATOM     22  C   UNL     1      45.451   1.750   8.700  0.00  0.00    +0.000 A 
ATOM     23  C   UNL     1      44.812   2.467   9.717  0.00  0.00    +0.000 A 
ENDBRANCH  14  17
ENDBRANCH   5  14
TORSDOF 3
ENDMDL
MODEL 3
REMARK VINA RESULT:    -6.414      3.921      6.466
REMARK INTER + INTRA:          -8.232
REMARK INTER:                  -7.994
REMARK INTRA:                  -0.237
REMARK UNBOUND:                -0.692
REMARK  Name = 
REMARK  3 active torsions:
REMARK  status: ('A' for Active; 'I' for Inactive)
REMARK    1  A    between atoms: C_2  and  C_4
REMARK    2  A    between atoms: N_8  and  C_9
REMARK    3  A    between atoms: C_9  and  C_10
REMARK                            x       y       z     vdW  Elec       q    Type
REMARK                         _______ _______ _______ _____ _____    ______ ____
ROOT
ATOM      1  C   UNL     1      46.628   8.009  12.913  0.00  0.00    +0.000 A 
ATOM      2  C   UNL     1      46.692   6.703  13.393  0.00  0.00    +0.000 A 
ATOM      3  C   UNL     1      45.890   5.717  12.811  0.00  0.00    +0.000 A 
ATOM      4  C   UNL     1      45.032   6.056  11.773  0.00  0.00    +0.000 A 
ATOM      5  N   UNL     1      44.134   5.164  11.186  0.00  0.00    +0.000 N 
ATOM      6  N   UNL     1      44.942   7.324  11.317  0.00  0.00    +0.000 NA
ATOM      7  C   UNL     1      45.731   8.270  11.890  0.00  0.00    +0.000 A 
ATOM      8  H   UNL     1      43.676   5.684  10.440  0.00  0.00    +0.000 HD
ENDROOT
BRANCH   1  10
ATOM      9  N   UNL     1      47.556   9.212  14.813  0.00  0.00    +0.000 N 
ATOM     10  C   UNL     1      47.444   9.115  13.452  0.00  0.00    +0.000 C 
ATOM     11  O   UNL     1      48.032   9.894  12.714  0.00  0.00    +0.000 OA
ATOM     12  H   UNL     1      48.206   9.912  15.156  0.00  0.00    +0.000 HD
ATOM     13  H   UNL     1      47.300   8.459  15.433  0.00  0.00    +0.000 HD
ENDBRANCH   1  10
BRANCH   5  14
ATOM     14  C   UNL     1      44.368   3.737  10.935  0.00  0.00    +0.000 C 
ATOM     15  C   UNL     1      43.229   2.848  11.430  0.00  0.00    +0.000 C 
ATOM     16  C   UNL     1      44.590   2.686  12.011  0.00  0.00    +0.000 C 
BRANCH  14  17
ATOM     17  C   UNL     1      45.022   3.419   9.588  0.00  0.00    +0.000 A 
ATOM     18  C   UNL     1      45.461   4.457   8.742  0.00  0.00    +0.000 A 
ATOM     19  C   UNL     1      46.195   4.194   7.583  0.00  0.00    +0.000 A 
ATOM     20  C   UNL     1      46.483   2.880   7.243  0.00  0.00    +0.000 A 
ATOM     21  F   UNL     1      47.226   2.626   6.158  0.00  0.00    +0.000 F 
ATOM     22  C   UNL     1      46.021   1.828   8.020  0.00  0.00    +0.000 A 
ATOM     23  C   UNL     1      45.284   2.097   9.178  0.00  0.00    +0.000 A 
ENDBRANCH  14  17
ENDBRANCH   5  14
TORSDOF 3
ENDMDL
