MODEL 1
REMARK VINA RESULT:    -7.838      0.000      0.000
REMARK INTER + INTRA:         -12.942
REMARK INTER:                 -11.504
REMARK INTRA:                  -1.438
REMARK UNBOUND:                -1.438
REMARK  Name = 
REMARK  9 active torsions:
REMARK  status: ('A' for Active; 'I' for Inactive)
REMARK    1  A    between atoms: C_1  and  O_2
REMARK    2  A    between atoms: O_2  and  C_3
REMARK    3  A    between atoms: C_10  and  C_11
REMARK    4  A    between atoms: N_13  and  C_14
REMARK    5  A    between atoms: C_14  and  C_15
REMARK    6  A    between atoms: C_18  and  N_19
REMARK    7  A    between atoms: N_19  and  C_20
REMARK    8  A    between atoms: C_20  and  C_21
REMARK    9  A    between atoms: C_21  and  N_22
REMARK                            x       y       z     vdW  Elec       q    Type
REMARK                         _______ _______ _______ _____ _____    ______ ____
ROOT
ATOM      1  C   UNL     1      47.093   8.072  13.252  0.00  0.00    +0.000 C 
ENDROOT
BRANCH   1   2
ATOM      2  C   UNL     1      46.231   7.170  12.398  0.00  0.00    +0.000 A 
ATOM      3  C   UNL     1      46.687   6.703  11.159  0.00  0.00    +0.000 A 
ATOM      4  C   UNL     1      45.893   5.853  10.370  0.00  0.00    +0.000 A 
ATOM      5  C   UNL     1      44.627   5.444  10.801  0.00  0.00    +0.000 A 
ATOM      6  C   UNL     1      44.146   5.975  12.003  0.00  0.00    +0.000 A 
ATOM      7  C   UNL     1      44.944   6.802  12.807  0.00  0.00    +0.000 A 
BRANCH   5   8
ATOM      8  N   UNL     1      43.774   4.605  10.066  0.00  0.00    +0.000 N 
ATOM      9  H   UNL     1      43.507   5.051   9.191  0.00  0.00    +0.000 HD
BRANCH   8  10
ATOM     10  C   UNL     1      44.203   3.214   9.859  0.00  0.00    +0.000 C 
BRANCH  10  11
ATOM     11  C   UNL     1      44.718   3.028   8.407  0.00  0.00    +0.000 C 
BRANCH  11  12
ATOM     12  N   UNL     1      46.177   2.822   8.286  0.00  0.00    +0.000 NA
ATOM     13  C   UNL     1      46.763   3.682   7.243  0.00  0.00    +0.000 C 
ATOM     14  C   UNL     1      46.839   2.829   5.991  0.00  0.00    +0.000 C 
ATOM     15  C   UNL     1      47.129   1.445   6.527  0.00  0.00    +0.000 C 
ATOM     16  C   UNL     1      46.550   1.440   7.935  0.00  0.00    +0.000 C 
ENDBRANCH  11  12
ENDBRANCH  10  11
ENDBRANCH   8  10
ENDBRANCH   5   8
ENDBRANCH   1   2
BRANCH   1  19
ATOM     17  C   UNL     1      48.698   6.868  14.701  0.00  0.00    +0.000 C 
ATOM     18  O   UNL     1      49.567   6.898  13.833  0.00  0.00    +0.000 OA
ATOM     19  N   UNL     1      47.463   7.432  14.495  0.00  0.00    +0.000 N 
ATOM     20  H   UNL     1      46.791   7.457  15.243  0.00  0.00    +0.000 HD
BRANCH  17  28
ATOM     21  C   UNL     1      47.251   4.165  16.272  0.00  0.00    +0.000 A 
ATOM     22  N   UNL     1      46.939   3.105  17.045  0.00  0.00    +0.000 NA
ATOM     23  C   UNL     1      47.645   2.913  18.163  0.00  0.00    +0.000 A 
ATOM     24  N   UNL     1      48.632   3.671  18.625  0.00  0.00    +0.000 NA
ATOM     25  C   UNL     1      48.918   4.710  17.822  0.00  0.00    +0.000 A 
ATOM     26  S   UNL     1      50.142   5.800  18.262  0.00  0.00    +0.000 S 
ATOM     27  C   UNL     1      49.920   6.706  16.840  0.00  0.00    +0.000 A 
ATOM     28  C   UNL     1      48.930   6.202  16.000  0.00  0.00    +0.000 A 
ATOM     29  C   UNL     1      48.304   5.031  16.615  0.00  0.00    +0.000 A 
BRANCH  21  31
ATOM     30  C   UNL     1      46.964   3.724  13.979  0.00  0.00    +0.000 C 
ATOM     31  O   UNL     1      46.495   4.401  15.142  0.00  0.00    +0.000 OA
ENDBRANCH  21  31
ENDBRANCH  17  28
ENDBRANCH   1  19
TORSDOF 8
ENDMDL
MODEL 2
REMARK VINA RESULT:    -6.700      2.148      2.882
REMARK INTER + INTRA:         -11.271
REMARK INTER:                 -10.389
REMARK INTRA:                  -0.883
REMARK UNBOUND:                -1.438
REMARK  Name = 
REMARK  9 active torsions:
REMARK  status: ('A' for Active; 'I' for Inactive)
REMARK    1  A    between atoms: C_1  and  O_2
REMARK    2  A    between atoms: O_2  and  C_3
REMARK    3  A    between atoms: C_10  and  C_11
REMARK    4  A    between atoms: N_13  and  C_14
REMARK    5  A    between atoms: C_14  and  C_15
REMARK    6  A    between atoms: C_18  and  N_19
REMARK    7  A    between atoms: N_19  and  C_20
REMARK    8  A    between atoms: C_20  and  C_21
REMARK    9  A    between atoms: C_21  and  N_22
REMARK                            x       y       z     vdW  Elec       q    Type
REMARK                         _______ _______ _______ _____ _____    ______ ____
ROOT
ATOM      1  C   UNL     1      47.972   6.728  13.632  0.00  0.00    +0.000 C 
ENDROOT
BRANCH   1   2
ATOM      2  C   UNL     1      46.922   6.034  12.794  0.00  0.00    +0.000 A 
ATOM      3  C   UNL     1      46.389   4.799  13.189  0.00  0.00    +0.000 A 
ATOM      4  C   UNL     1      45.403   4.159  12.420  0.00  0.00    +0.000 A 
ATOM      5  C   UNL     1      44.920   4.736  11.241  0.00  0.00    +0.000 A 
ATOM      6  C   UNL     1      45.510   5.931  10.813  0.00  0.00    +0.000 A 
ATOM      7  C   UNL     1      46.475   6.588  11.590  0.00  0.00    +0.000 A 
BRANCH   5   8
ATOM      8  N   UNL     1      43.944   4.154  10.417  0.00  0.00    +0.000 N 
ATOM      9  H   UNL     1      43.021   4.512  10.654  0.00  0.00    +0.000 HD
BRANCH   8  10
ATOM     10  C   UNL     1      44.180   4.178   8.965  0.00  0.00    +0.000 C 
BRANCH  10  11
ATOM     11  C   UNL     1      44.715   2.799   8.492  0.00  0.00    +0.000 C 
BRANCH  11  12
ATOM     12  N   UNL     1      46.178   2.732   8.301  0.00  0.00    +0.000 NA
ATOM     13  C   UNL     1      46.647   3.728   7.322  0.00  0.00    +0.000 C 
ATOM     14  C   UNL     1      46.740   2.999   5.996  0.00  0.00    +0.000 C 
ATOM     15  C   UNL     1      47.166   1.603   6.392  0.00  0.00    +0.000 C 
ATOM     16  C   UNL     1      46.649   1.424   7.812  0.00  0.00    +0.000 C 
ENDBRANCH  11  12
ENDBRANCH  10  11
ENDBRANCH   8  10
ENDBRANCH   5   8
ENDBRANCH   1   2
BRANCH   1  19
ATOM     17  C   UNL     1      48.998   6.286  15.841  0.00  0.00    +0.000 C 
ATOM     18  O   UNL     1      50.109   6.620  15.437  0.00  0.00    +0.000 OA
ATOM     19  N   UNL     1      47.898   6.323  15.018  0.00  0.00    +0.000 N 
ATOM     20  H   UNL     1      46.987   6.113  15.388  0.00  0.00    +0.000 HD
BRANCH  17  28
ATOM     21  C   UNL     1      48.068   7.833  18.775  0.00  0.00    +0.000 A 
ATOM     22  N   UNL     1      47.633   8.160  20.009  0.00  0.00    +0.000 NA
ATOM     23  C   UNL     1      47.515   7.183  20.914  0.00  0.00    +0.000 A 
ATOM     24  N   UNL     1      47.800   5.898  20.744  0.00  0.00    +0.000 NA
ATOM     25  C   UNL     1      48.221   5.612  19.499  0.00  0.00    +0.000 A 
ATOM     26  S   UNL     1      48.650   4.018  19.103  0.00  0.00    +0.000 S 
ATOM     27  C   UNL     1      49.000   4.456  17.498  0.00  0.00    +0.000 A 
ATOM     28  C   UNL     1      48.793   5.806  17.223  0.00  0.00    +0.000 A 
ATOM     29  C   UNL     1      48.367   6.501  18.438  0.00  0.00    +0.000 A 
BRANCH  21  31
ATOM     30  C   UNL     1      47.713  10.100  18.257  0.00  0.00    +0.000 C 
ATOM     31  O   UNL     1      48.241   8.841  17.850  0.00  0.00    +0.000 OA
ENDBRANCH  21  31
ENDBRANCH  17  28
ENDBRANCH   1  19
TORSDOF 8
ENDMDL
MODEL 3
REMARK VINA RESULT:    -6.606      1.546      2.105
REMARK INTER + INTRA:         -11.134
REMARK INTER:                 -10.346
REMARK INTRA:                  -0.788
REMARK UNBOUND:                -1.438
REMARK  Name = 
REMARK  9 active torsions:
REMARK  status: ('A' for Active; 'I' for Inactive)
REMARK    1  A    between atoms: C_1  and  O_2
REMARK    2  A    between atoms: O_2  and  C_3
REMARK    3  A    between atoms: C_10  and  C_11
REMARK    4  A    between atoms: N_13  and  C_14
REMARK    5  A    between atoms: C_14  and  C_15
REMARK    6  A    between atoms: C_18  and  N_19
REMARK    7  A    between atoms: N_19  and  C_20
REMARK    8  A    between atoms: C_20  and  C_21
REMARK    9  A    between atoms: C_21  and  N_22
REMARK                            x       y       z     vdW  Elec       q    Type
REMARK                         _______ _______ _______ _____ _____    ______ ____
ROOT
ATOM      1  C   UNL     1      47.493   7.898  13.210  0.00  0.00    +0.000 C 
ENDROOT
BRANCH   1   2
ATOM      2  C   UNL     1      46.330   7.025  12.795  0.00  0.00    +0.000 A 
ATOM      3  C   UNL     1      45.425   7.453  11.814  0.00  0.00    +0.000 A 
ATOM      4  C   UNL     1      44.352   6.638  11.417  0.00  0.00    +0.000 A 
ATOM      5  C   UNL     1      44.158   5.374  11.985  0.00  0.00    +0.000 A 
ATOM      6  C   UNL     1      45.019   4.986  13.017  0.00  0.00    +0.000 A 
ATOM      7  C   UNL     1      46.107   5.783  13.399  0.00  0.00    +0.000 A 
BRANCH   5   8
ATOM      8  N   UNL     1      43.106   4.508  11.646  0.00  0.00    +0.000 N 
ATOM      9  H   UNL     1      42.598   4.866  10.840  0.00  0.00    +0.000 HD
BRANCH   8  10
ATOM     10  C   UNL     1      43.424   3.079  11.500  0.00  0.00    +0.000 C 
BRANCH  10  11
ATOM     11  C   UNL     1      44.676   2.904  10.600  0.00  0.00    +0.000 C 
BRANCH  11  12
ATOM     12  N   UNL     1      44.387   2.671   9.170  0.00  0.00    +0.000 NA
ATOM     13  C   UNL     1      45.078   1.473   8.662  0.00  0.00    +0.000 C 
ATOM     14  C   UNL     1      46.357   1.969   8.017  0.00  0.00    +0.000 C 
ATOM     15  C   UNL     1      45.958   3.305   7.430  0.00  0.00    +0.000 C 
ATOM     16  C   UNL     1      44.800   3.783   8.296  0.00  0.00    +0.000 C 
ENDBRANCH  11  12
ENDBRANCH  10  11
ENDBRANCH   8  10
ENDBRANCH   5   8
ENDBRANCH   1   2
BRANCH   1  19
ATOM     17  C   UNL     1      48.740   7.267  15.253  0.00  0.00    +0.000 C 
ATOM     18  O   UNL     1      49.607   6.697  14.597  0.00  0.00    +0.000 OA
ATOM     19  N   UNL     1      47.677   7.889  14.644  0.00  0.00    +0.000 N 
ATOM     20  H   UNL     1      47.017   8.410  15.197  0.00  0.00    +0.000 HD
BRANCH  17  28
ATOM     21  C   UNL     1      48.999   4.814  17.659  0.00  0.00    +0.000 A 
ATOM     22  N   UNL     1      49.191   4.081  18.773  0.00  0.00    +0.000 NA
ATOM     23  C   UNL     1      49.285   4.724  19.941  0.00  0.00    +0.000 A 
ATOM     24  N   UNL     1      49.191   6.033  20.142  0.00  0.00    +0.000 NA
ATOM     25  C   UNL     1      49.010   6.728  19.006  0.00  0.00    +0.000 A 
ATOM     26  S   UNL     1      48.849   8.417  19.071  0.00  0.00    +0.000 S 
ATOM     27  C   UNL     1      48.703   8.521  17.380  0.00  0.00    +0.000 A 
ATOM     28  C   UNL     1      48.783   7.291  16.730  0.00  0.00    +0.000 A 
ATOM     29  C   UNL     1      48.923   6.217  17.714  0.00  0.00    +0.000 A 
BRANCH  21  31
ATOM     30  C   UNL     1      47.513   3.748  16.178  0.00  0.00    +0.000 C 
ATOM     31  O   UNL     1      48.850   4.156  16.455  0.00  0.00    +0.000 OA
ENDBRANCH  21  31
ENDBRANCH  17  28
ENDBRANCH   1  19
TORSDOF 8
ENDMDL
MODEL 4
REMARK VINA RESULT:    -6.493      1.918      3.539
REMARK INTER + INTRA:         -10.967
REMARK INTER:                  -9.751
REMARK INTRA:                  -1.216
REMARK UNBOUND:                -1.438
REMARK  Name = 
REMARK  9 active torsions:
REMARK  status: ('A' for Active; 'I' for Inactive)
REMARK    1  A    between atoms: C_1  and  O_2
REMARK    2  A    between atoms: O_2  and  C_3
REMARK    3  A    between atoms: C_10  and  C_11
REMARK    4  A    between atoms: N_13  and  C_14
REMARK    5  A    between atoms: C_14  and  C_15
REMARK    6  A    between atoms: C_18  and  N_19
REMARK    7  A    between atoms: N_19  and  C_20
REMARK    8  A    between atoms: C_20  and  C_21
REMARK    9  A    between atoms: C_21  and  N_22
REMARK                            x       y       z     vdW  Elec       q    Type
REMARK                         _______ _______ _______ _____ _____    ______ ____
ROOT
ATOM      1  C   UNL     1      46.819   4.385  15.007  0.00  0.00    +0.000 C 
ENDROOT
BRANCH   1   2
ATOM      2  C   UNL     1      46.299   4.627  13.608  0.00  0.00    +0.000 A 
ATOM      3  C   UNL     1      46.354   5.903  13.032  0.00  0.00    +0.000 A 
ATOM      4  C   UNL     1      45.885   6.127  11.727  0.00  0.00    +0.000 A 
ATOM      5  C   UNL     1      45.352   5.084  10.963  0.00  0.00    +0.000 A 
ATOM      6  C   UNL     1      45.229   3.830  11.571  0.00  0.00    +0.000 A 
ATOM      7  C   UNL     1      45.720   3.594  12.863  0.00  0.00    +0.000 A 
BRANCH   5   8
ATOM      8  N   UNL     1      44.856   5.231   9.658  0.00  0.00    +0.000 N 
ATOM      9  H   UNL     1      45.584   5.584   9.040  0.00  0.00    +0.000 HD
BRANCH   8  10
ATOM     10  C   UNL     1      44.149   4.085   9.067  0.00  0.00    +0.000 C 
BRANCH  10  11
ATOM     11  C   UNL     1      44.900   3.594   7.800  0.00  0.00    +0.000 C 
BRANCH  11  12
ATOM     12  N   UNL     1      46.253   3.056   8.049  0.00  0.00    +0.000 NA
ATOM     13  C   UNL     1      47.205   3.467   7.003  0.00  0.00    +0.000 C 
ATOM     14  C   UNL     1      47.255   2.323   6.009  0.00  0.00    +0.000 C 
ATOM     15  C   UNL     1      47.083   1.097   6.878  0.00  0.00    +0.000 C 
ATOM     16  C   UNL     1      46.303   1.583   8.092  0.00  0.00    +0.000 C 
ENDBRANCH  11  12
ENDBRANCH  10  11
ENDBRANCH   8  10
ENDBRANCH   5   8
ENDBRANCH   1   2
BRANCH   1  19
ATOM     17  C   UNL     1      48.644   5.359  16.366  0.00  0.00    +0.000 C 
ATOM     18  O   UNL     1      48.977   4.254  16.785  0.00  0.00    +0.000 OA
ATOM     19  N   UNL     1      47.602   5.504  15.482  0.00  0.00    +0.000 N 
ATOM     20  H   UNL     1      47.392   6.410  15.098  0.00  0.00    +0.000 HD
BRANCH  17  28
ATOM     21  C   UNL     1      50.130   7.979  14.694  0.00  0.00    +0.000 A 
ATOM     22  N   UNL     1      50.672   9.148  14.299  0.00  0.00    +0.000 NA
ATOM     23  C   UNL     1      51.034  10.024  15.243  0.00  0.00    +0.000 A 
ATOM     24  N   UNL     1      50.936   9.869  16.557  0.00  0.00    +0.000 NA
ATOM     25  C   UNL     1      50.382   8.695  16.908  0.00  0.00    +0.000 A 
ATOM     26  S   UNL     1      50.194   8.314  18.552  0.00  0.00    +0.000 S 
ATOM     27  C   UNL     1      49.461   6.826  18.176  0.00  0.00    +0.000 A 
ATOM     28  C   UNL     1      49.332   6.590  16.809  0.00  0.00    +0.000 A 
ATOM     29  C   UNL     1      49.925   7.695  16.056  0.00  0.00    +0.000 A 
BRANCH  21  31
ATOM     30  C   UNL     1      49.506   7.611  12.456  0.00  0.00    +0.000 C 
ATOM     31  O   UNL     1      49.800   7.048  13.731  0.00  0.00    +0.000 OA
ENDBRANCH  21  31
ENDBRANCH  17  28
ENDBRANCH   1  19
TORSDOF 8
ENDMDL
MODEL 5
REMARK VINA RESULT:    -6.187      2.037      2.810
REMARK INTER + INTRA:         -10.519
REMARK INTER:                  -9.580
REMARK INTRA:                  -0.939
REMARK UNBOUND:                -1.438
REMARK  Name = 
REMARK  9 active torsions:
REMARK  status: ('A' for Active; 'I' for Inactive)
REMARK    1  A    between atoms: C_1  and  O_2
REMARK    2  A    between atoms: O_2  and  C_3
REMARK    3  A    between atoms: C_10  and  C_11
REMARK    4  A    between atoms: N_13  and  C_14
REMARK    5  A    between atoms: C_14  and  C_15
REMARK    6  A    between atoms: C_18  and  N_19
REMARK    7  A    between atoms: N_19  and  C_20
REMARK    8  A    between atoms: C_20  and  C_21
REMARK    9  A    between atoms: C_21  and  N_22
REMARK                            x       y       z     vdW  Elec       q    Type
REMARK                         _______ _______ _______ _____ _____    ______ ____
ROOT
ATOM      1  C   UNL     1      48.699   7.538  12.653  0.00  0.00    +0.000 C 
ENDROOT
BRANCH   1   2
ATOM      2  C   UNL     1      47.416   6.739  12.705  0.00  0.00    +0.000 A 
ATOM      3  C   UNL     1      47.254   5.700  13.632  0.00  0.00    +0.000 A 
ATOM      4  C   UNL     1      46.057   4.966  13.691  0.00  0.00    +0.000 A 
ATOM      5  C   UNL     1      44.992   5.253  12.832  0.00  0.00    +0.000 A 
ATOM      6  C   UNL     1      45.188   6.240  11.860  0.00  0.00    +0.000 A 
ATOM      7  C   UNL     1      46.370   6.994  11.813  0.00  0.00    +0.000 A 
BRANCH   5   8
ATOM      8  N   UNL     1      43.771   4.560  12.826  0.00  0.00    +0.000 N 
ATOM      9  H   UNL     1      43.071   5.070  13.361  0.00  0.00    +0.000 HD
BRANCH   8  10
ATOM     10  C   UNL     1      43.247   4.120  11.524  0.00  0.00    +0.000 C 
BRANCH  10  11
ATOM     11  C   UNL     1      44.223   3.103  10.875  0.00  0.00    +0.000 C 
BRANCH  11  12
ATOM     12  N   UNL     1      44.051   2.918   9.419  0.00  0.00    +0.000 NA
ATOM     13  C   UNL     1      44.637   1.648   8.958  0.00  0.00    +0.000 C 
ATOM     14  C   UNL     1      46.026   1.987   8.451  0.00  0.00    +0.000 C 
ATOM     15  C   UNL     1      45.854   3.366   7.855  0.00  0.00    +0.000 C 
ATOM     16  C   UNL     1      44.683   3.977   8.612  0.00  0.00    +0.000 C 
ENDBRANCH  11  12
ENDBRANCH  10  11
ENDBRANCH   8  10
ENDBRANCH   5   8
ENDBRANCH   1   2
BRANCH   1  19
ATOM     17  C   UNL     1      49.903   7.653  14.813  0.00  0.00    +0.000 C 
ATOM     18  O   UNL     1      49.275   8.651  15.157  0.00  0.00    +0.000 OA
ATOM     19  N   UNL     1      49.670   7.043  13.604  0.00  0.00    +0.000 N 
ATOM     20  H   UNL     1      50.147   6.188  13.374  0.00  0.00    +0.000 HD
BRANCH  17  28
ATOM     21  C   UNL     1      49.906   5.225  17.257  0.00  0.00    +0.000 A 
ATOM     22  N   UNL     1      50.199   4.263  18.154  0.00  0.00    +0.000 NA
ATOM     23  C   UNL     1      51.480   4.096  18.501  0.00  0.00    +0.000 A 
ATOM     24  N   UNL     1      52.522   4.796  18.070  0.00  0.00    +0.000 NA
ATOM     25  C   UNL     1      52.187   5.738  17.171  0.00  0.00    +0.000 A 
ATOM     26  S   UNL     1      53.391   6.745  16.523  0.00  0.00    +0.000 S 
ATOM     27  C   UNL     1      52.260   7.551  15.541  0.00  0.00    +0.000 A 
ATOM     28  C   UNL     1      50.958   7.074  15.671  0.00  0.00    +0.000 A 
ATOM     29  C   UNL     1      50.915   6.017  16.681  0.00  0.00    +0.000 A 
BRANCH  21  31
ATOM     30  C   UNL     1      47.727   4.338  17.226  0.00  0.00    +0.000 C 
ATOM     31  O   UNL     1      48.582   5.438  16.930  0.00  0.00    +0.000 OA
ENDBRANCH  21  31
ENDBRANCH  17  28
ENDBRANCH   1  19
TORSDOF 8
ENDMDL
MODEL 6
REMARK VINA RESULT:    -5.896      1.695      2.346
REMARK INTER + INTRA:         -10.092
REMARK INTER:                  -9.001
REMARK INTRA:                  -1.091
REMARK UNBOUND:                -1.438
REMARK  Name = 
REMARK  9 active torsions:
REMARK  status: ('A' for Active; 'I' for Inactive)
REMARK    1  A    between atoms: C_1  and  O_2
REMARK    2  A    between atoms: O_2  and  C_3
REMARK    3  A    between atoms: C_10  and  C_11
REMARK    4  A    between atoms: N_13  and  C_14
REMARK    5  A    between atoms: C_14  and  C_15
REMARK    6  A    between atoms: C_18  and  N_19
REMARK    7  A    between atoms: N_19  and  C_20
REMARK    8  A    between atoms: C_20  and  C_21
REMARK    9  A    between atoms: C_21  and  N_22
REMARK                            x       y       z     vdW  Elec       q    Type
REMARK                         _______ _______ _______ _____ _____    ______ ____
ROOT
ATOM      1  C   UNL     1      48.845   8.832  13.748  0.00  0.00    +0.000 C 
ENDROOT
BRANCH   1   2
ATOM      2  C   UNL     1      47.551   8.355  13.127  0.00  0.00    +0.000 A 
ATOM      3  C   UNL     1      46.428   9.192  13.075  0.00  0.00    +0.000 A 
ATOM      4  C   UNL     1      45.230   8.756  12.486  0.00  0.00    +0.000 A 
ATOM      5  C   UNL     1      45.123   7.477  11.930  0.00  0.00    +0.000 A 
ATOM      6  C   UNL     1      46.222   6.621  12.053  0.00  0.00    +0.000 A 
ATOM      7  C   UNL     1      47.430   7.059  12.616  0.00  0.00    +0.000 A 
BRANCH   5   8
ATOM      8  N   UNL     1      43.958   6.968  11.333  0.00  0.00    +0.000 N 
ATOM      9  H   UNL     1      43.984   7.113  10.325  0.00  0.00    +0.000 HD
BRANCH   8  10
ATOM     10  C   UNL     1      43.566   5.593  11.675  0.00  0.00    +0.000 C 
BRANCH  10  11
ATOM     11  C   UNL     1      43.608   4.698  10.407  0.00  0.00    +0.000 C 
BRANCH  11  12
ATOM     12  N   UNL     1      44.916   4.066  10.135  0.00  0.00    +0.000 NA
ATOM     13  C   UNL     1      45.458   4.476   8.828  0.00  0.00    +0.000 C 
ATOM     14  C   UNL     1      45.063   3.387   7.850  0.00  0.00    +0.000 C 
ATOM     15  C   UNL     1      45.119   2.128   8.686  0.00  0.00    +0.000 C 
ATOM     16  C   UNL     1      44.865   2.593  10.113  0.00  0.00    +0.000 C 
ENDBRANCH  11  12
ENDBRANCH  10  11
ENDBRANCH   8  10
ENDBRANCH   5   8
ENDBRANCH   1   2
BRANCH   1  19
ATOM     17  C   UNL     1      49.358   7.678  15.877  0.00  0.00    +0.000 C 
ATOM     18  O   UNL     1      48.670   8.468  16.518  0.00  0.00    +0.000 OA
ATOM     19  N   UNL     1      49.484   7.785  14.513  0.00  0.00    +0.000 N 
ATOM     20  H   UNL     1      49.995   7.086  14.000  0.00  0.00    +0.000 HD
BRANCH  17  28
ATOM     21  C   UNL     1      48.613   4.395  16.606  0.00  0.00    +0.000 A 
ATOM     22  N   UNL     1      48.618   3.082  16.911  0.00  0.00    +0.000 NA
ATOM     23  C   UNL     1      49.734   2.562  17.432  0.00  0.00    +0.000 A 
ATOM     24  N   UNL     1      50.862   3.205  17.709  0.00  0.00    +0.000 NA
ATOM     25  C   UNL     1      50.818   4.508  17.381  0.00  0.00    +0.000 A 
ATOM     26  S   UNL     1      52.167   5.495  17.681  0.00  0.00    +0.000 S 
ATOM     27  C   UNL     1      51.388   6.851  17.014  0.00  0.00    +0.000 A 
ATOM     28  C   UNL     1      50.103   6.589  16.542  0.00  0.00    +0.000 A 
ATOM     29  C   UNL     1      49.753   5.193  16.805  0.00  0.00    +0.000 A 
BRANCH  21  31
ATOM     30  C   UNL     1      46.971   4.338  14.922  0.00  0.00    +0.000 C 
ATOM     31  O   UNL     1      47.449   4.951  16.115  0.00  0.00    +0.000 OA
ENDBRANCH  21  31
ENDBRANCH  17  28
ENDBRANCH   1  19
TORSDOF 8
ENDMDL
MODEL 7
REMARK VINA RESULT:    -5.894      3.120      7.796
REMARK INTER + INTRA:         -10.088
REMARK INTER:                  -8.846
REMARK INTRA:                  -1.242
REMARK UNBOUND:                -1.438
REMARK  Name = 
REMARK  9 active torsions:
REMARK  status: ('A' for Active; 'I' for Inactive)
REMARK    1  A    between atoms: C_1  and  O_2
REMARK    2  A    between atoms: O_2  and  C_3
REMARK    3  A    between atoms: C_10  and  C_11
REMARK    4  A    between atoms: N_13  and  C_14
REMARK    5  A    between atoms: C_14  and  C_15
REMARK    6  A    between atoms: C_18  and  N_19
REMARK    7  A    between atoms: N_19  and  C_20
REMARK    8  A    between atoms: C_20  and  C_21
REMARK    9  A    between atoms: C_21  and  N_22
REMARK                            x       y       z     vdW  Elec       q    Type
REMARK                         _______ _______ _______ _____ _____    ______ ____
ROOT
ATOM      1  C   UNL     1      47.880   8.180  12.248  0.00  0.00    +0.000 C 
ENDROOT
BRANCH   1   2
ATOM      2  C   UNL     1      48.788   7.802  13.396  0.00  0.00    +0.000 A 
ATOM      3  C   UNL     1      50.130   8.206  13.413  0.00  0.00    +0.000 A 
ATOM      4  C   UNL     1      50.972   7.868  14.486  0.00  0.00    +0.000 A 
ATOM      5  C   UNL     1      50.496   7.123  15.570  0.00  0.00    +0.000 A 
ATOM      6  C   UNL     1      49.177   6.658  15.510  0.00  0.00    +0.000 A 
ATOM      7  C   UNL     1      48.325   7.014  14.455  0.00  0.00    +0.000 A 
BRANCH   5   8
ATOM      8  N   UNL     1      51.278   6.740  16.671  0.00  0.00    +0.000 N 
ATOM      9  H   UNL     1      51.911   7.492  16.935  0.00  0.00    +0.000 HD
BRANCH   8  10
ATOM     10  C   UNL     1      50.578   6.183  17.839  0.00  0.00    +0.000 C 
BRANCH  10  11
ATOM     11  C   UNL     1      50.811   4.651  17.917  0.00  0.00    +0.000 C 
BRANCH  11  12
ATOM     12  N   UNL     1      49.683   3.878  18.479  0.00  0.00    +0.000 NA
ATOM     13  C   UNL     1      49.348   2.714  17.641  0.00  0.00    +0.000 C 
ATOM     14  C   UNL     1      48.209   3.157  16.745  0.00  0.00    +0.000 C 
ATOM     15  C   UNL     1      47.424   4.108  17.620  0.00  0.00    +0.000 C 
ATOM     16  C   UNL     1      48.440   4.660  18.610  0.00  0.00    +0.000 C 
ENDBRANCH  11  12
ENDBRANCH  10  11
ENDBRANCH   8  10
ENDBRANCH   5   8
ENDBRANCH   1   2
BRANCH   1  19
ATOM     17  C   UNL     1      45.973   6.946  11.264  0.00  0.00    +0.000 C 
ATOM     18  O   UNL     1      45.216   7.897  11.435  0.00  0.00    +0.000 OA
ATOM     19  N   UNL     1      47.296   7.012  11.627  0.00  0.00    +0.000 N 
ATOM     20  H   UNL     1      47.914   6.246  11.413  0.00  0.00    +0.000 HD
BRANCH  17  28
ATOM     21  C   UNL     1      44.347   4.204  12.570  0.00  0.00    +0.000 A 
ATOM     22  N   UNL     1      43.637   3.081  12.797  0.00  0.00    +0.000 NA
ATOM     23  C   UNL     1      43.371   2.285  11.756  0.00  0.00    +0.000 A 
ATOM     24  N   UNL     1      43.749   2.464  10.496  0.00  0.00    +0.000 NA
ATOM     25  C   UNL     1      44.446   3.598  10.312  0.00  0.00    +0.000 A 
ATOM     26  S   UNL     1      45.028   3.984   8.765  0.00  0.00    +0.000 S 
ATOM     27  C   UNL     1      45.701   5.442   9.324  0.00  0.00    +0.000 A 
ATOM     28  C   UNL     1      45.493   5.675  10.682  0.00  0.00    +0.000 A 
ATOM     29  C   UNL     1      44.778   4.545  11.276  0.00  0.00    +0.000 A 
BRANCH  21  31
ATOM     30  C   UNL     1      45.955   4.742  14.202  0.00  0.00    +0.000 C 
ATOM     31  O   UNL     1      44.670   5.006  13.646  0.00  0.00    +0.000 OA
ENDBRANCH  21  31
ENDBRANCH  17  28
ENDBRANCH   1  19
TORSDOF 8
ENDMDL
MODEL 8
REMARK VINA RESULT:    -5.623      3.836      8.544
REMARK INTER + INTRA:          -9.692
REMARK INTER:                  -8.686
REMARK INTRA:                  -1.006
REMARK UNBOUND:                -1.438
REMARK  Name = 
REMARK  9 active torsions:
REMARK  status: ('A' for Active; 'I' for Inactive)
REMARK    1  A    between atoms: C_1  and  O_2
REMARK    2  A    between atoms: O_2  and  C_3
REMARK    3  A    between atoms: C_10  and  C_11
REMARK    4  A    between atoms: N_13  and  C_14
REMARK    5  A    between atoms: C_14  and  C_15
REMARK    6  A    between atoms: C_18  and  N_19
REMARK    7  A    between atoms: N_19  and  C_20
REMARK    8  A    between atoms: C_20  and  C_21
REMARK    9  A    between atoms: C_21  and  N_22
REMARK                            x       y       z     vdW  Elec       q    Type
REMARK                         _______ _______ _______ _____ _____    ______ ____
ROOT
ATOM      1  C   UNL     1      49.038   7.981  15.623  0.00  0.00    +0.000 C 
ENDROOT
BRANCH   1   2
ATOM      2  C   UNL     1      49.589   6.850  16.462  0.00  0.00    +0.000 A 
ATOM      3  C   UNL     1      48.769   6.158  17.364  0.00  0.00    +0.000 A 
ATOM      4  C   UNL     1      49.276   5.098  18.133  0.00  0.00    +0.000 A 
ATOM      5  C   UNL     1      50.611   4.698  18.020  0.00  0.00    +0.000 A 
ATOM      6  C   UNL     1      51.443   5.441  17.176  0.00  0.00    +0.000 A 
ATOM      7  C   UNL     1      50.937   6.483  16.385  0.00  0.00    +0.000 A 
BRANCH   5   8
ATOM      8  N   UNL     1      51.191   3.656  18.761  0.00  0.00    +0.000 N 
ATOM      9  H   UNL     1      50.601   2.826  18.726  0.00  0.00    +0.000 HD
BRANCH   8  10
ATOM     10  C   UNL     1      52.600   3.333  18.491  0.00  0.00    +0.000 C 
BRANCH  10  11
ATOM     11  C   UNL     1      52.715   1.898  17.912  0.00  0.00    +0.000 C 
BRANCH  11  12
ATOM     12  N   UNL     1      54.097   1.417  17.711  0.00  0.00    +0.000 NA
ATOM     13  C   UNL     1      54.125   0.049  17.163  0.00  0.00    +0.000 C 
ATOM     14  C   UNL     1      54.292  -0.875  18.353  0.00  0.00    +0.000 C 
ATOM     15  C   UNL     1      55.170  -0.080  19.294  0.00  0.00    +0.000 C 
ATOM     16  C   UNL     1      54.893   1.377  18.951  0.00  0.00    +0.000 C 
ENDBRANCH  11  12
ENDBRANCH  10  11
ENDBRANCH   8  10
ENDBRANCH   5   8
ENDBRANCH   1   2
BRANCH   1  19
ATOM     17  C   UNL     1      48.052   6.889  13.632  0.00  0.00    +0.000 C 
ATOM     18  O   UNL     1      49.162   6.612  13.185  0.00  0.00    +0.000 OA
ATOM     19  N   UNL     1      47.910   7.550  14.828  0.00  0.00    +0.000 N 
ATOM     20  H   UNL     1      46.991   7.705  15.210  0.00  0.00    +0.000 HD
BRANCH  17  28
ATOM     21  C   UNL     1      46.310   3.957  13.152  0.00  0.00    +0.000 A 
ATOM     22  N   UNL     1      45.402   2.993  12.898  0.00  0.00    +0.000 NA
ATOM     23  C   UNL     1      44.298   3.331  12.223  0.00  0.00    +0.000 A 
ATOM     24  N   UNL     1      43.990   4.531  11.746  0.00  0.00    +0.000 NA
ATOM     25  C   UNL     1      44.916   5.464  12.029  0.00  0.00    +0.000 A 
ATOM     26  S   UNL     1      44.698   7.056  11.480  0.00  0.00    +0.000 S 
ATOM     27  C   UNL     1      46.146   7.562  12.214  0.00  0.00    +0.000 A 
ATOM     28  C   UNL     1      46.818   6.549  12.896  0.00  0.00    +0.000 A 
ATOM     29  C   UNL     1      46.096   5.285  12.744  0.00  0.00    +0.000 A 
BRANCH  21  31
ATOM     30  C   UNL     1      47.375   3.631  15.224  0.00  0.00    +0.000 C 
ATOM     31  O   UNL     1      47.475   3.607  13.803  0.00  0.00    +0.000 OA
ENDBRANCH  21  31
ENDBRANCH  17  28
ENDBRANCH   1  19
TORSDOF 8
ENDMDL
MODEL 9
REMARK VINA RESULT:    -5.618      2.323      3.751
REMARK INTER + INTRA:          -9.684
REMARK INTER:                  -8.595
REMARK INTRA:                  -1.089
REMARK UNBOUND:                -1.438
REMARK  Name = 
REMARK  9 active torsions:
REMARK  status: ('A' for Active; 'I' for Inactive)
REMARK    1  A    between atoms: C_1  and  O_2
REMARK    2  A    between atoms: O_2  and  C_3
REMARK    3  A    between atoms: C_10  and  C_11
REMARK    4  A    between atoms: N_13  and  C_14
REMARK    5  A    between atoms: C_14  and  C_15
REMARK    6  A    between atoms: C_18  and  N_19
REMARK    7  A    between atoms: N_19  and  C_20
REMARK    8  A    between atoms: C_20  and  C_21
REMARK    9  A    between atoms: C_21  and  N_22
REMARK                            x       y       z     vdW  Elec       q    Type
REMARK                         _______ _______ _______ _____ _____    ______ ____
ROOT
ATOM      1  C   UNL     1      49.072   8.212  14.289  0.00  0.00    +0.000 C 
ENDROOT
BRANCH   1   2
ATOM      2  C   UNL     1      47.776   7.963  13.551  0.00  0.00    +0.000 A 
ATOM      3  C   UNL     1      46.775   8.943  13.507  0.00  0.00    +0.000 A 
ATOM      4  C   UNL     1      45.576   8.720  12.810  0.00  0.00    +0.000 A 
ATOM      5  C   UNL     1      45.348   7.517  12.135  0.00  0.00    +0.000 A 
ATOM      6  C   UNL     1      46.318   6.515  12.246  0.00  0.00    +0.000 A 
ATOM      7  C   UNL     1      47.528   6.741  12.918  0.00  0.00    +0.000 A 
BRANCH   5   8
ATOM      8  N   UNL     1      44.173   7.218  11.426  0.00  0.00    +0.000 N 
ATOM      9  H   UNL     1      44.321   7.347  10.426  0.00  0.00    +0.000 HD
BRANCH   8  10
ATOM     10  C   UNL     1      43.512   5.937  11.717  0.00  0.00    +0.000 C 
BRANCH  10  11
ATOM     11  C   UNL     1      43.519   5.036  10.453  0.00  0.00    +0.000 C 
BRANCH  11  12
ATOM     12  N   UNL     1      44.759   4.258  10.250  0.00  0.00    +0.000 NA
ATOM     13  C   UNL     1      45.344   4.500   8.920  0.00  0.00    +0.000 C 
ATOM     14  C   UNL     1      44.846   3.376   8.033  0.00  0.00    +0.000 C 
ATOM     15  C   UNL     1      44.775   2.193   8.972  0.00  0.00    +0.000 C 
ATOM     16  C   UNL     1      44.563   2.800  10.352  0.00  0.00    +0.000 C 
ENDBRANCH  11  12
ENDBRANCH  10  11
ENDBRANCH   8  10
ENDBRANCH   5   8
ENDBRANCH   1   2
BRANCH   1  19
ATOM     17  C   UNL     1      49.227   6.755  16.285  0.00  0.00    +0.000 C 
ATOM     18  O   UNL     1      48.526   7.517  16.945  0.00  0.00    +0.000 OA
ATOM     19  N   UNL     1      49.530   7.022  14.971  0.00  0.00    +0.000 N 
ATOM     20  H   UNL     1      50.047   6.350  14.429  0.00  0.00    +0.000 HD
BRANCH  17  28
ATOM     21  C   UNL     1      52.445   5.720  16.948  0.00  0.00    +0.000 A 
ATOM     22  N   UNL     1      53.569   5.127  17.397  0.00  0.00    +0.000 NA
ATOM     23  C   UNL     1      53.451   3.959  18.037  0.00  0.00    +0.000 A 
ATOM     24  N   UNL     1      52.331   3.287  18.274  0.00  0.00    +0.000 NA
ATOM     25  C   UNL     1      51.234   3.916  17.819  0.00  0.00    +0.000 A 
ATOM     26  S   UNL     1      49.710   3.195  18.016  0.00  0.00    +0.000 S 
ATOM     27  C   UNL     1      48.932   4.514  17.276  0.00  0.00    +0.000 A 
ATOM     28  C   UNL     1      49.799   5.528  16.876  0.00  0.00    +0.000 A 
ATOM     29  C   UNL     1      51.181   5.143  17.165  0.00  0.00    +0.000 A 
BRANCH  21  31
ATOM     30  C   UNL     1      52.664   8.059  17.063  0.00  0.00    +0.000 C 
ATOM     31  O   UNL     1      52.560   6.899  16.242  0.00  0.00    +0.000 OA
ENDBRANCH  21  31
ENDBRANCH  17  28
ENDBRANCH   1  19
TORSDOF 8
ENDMDL
