MODEL 1
REMARK VINA RESULT:    -8.945      0.000      0.000
REMARK INTER + INTRA:         -12.228
REMARK INTER:                 -11.559
REMARK INTRA:                  -0.669
REMARK UNBOUND:                -0.669
REMARK  Name = 
REMARK  5 active torsions:
REMARK  status: ('A' for Active; 'I' for Inactive)
REMARK    1  A    between atoms: C_2  and  C_4
REMARK    2  A    between atoms: C_7  and  O_8
REMARK    3  A    between atoms: O_8  and  C_9
REMARK    4  A    between atoms: C_9  and  C_10
REMARK    5  A    between atoms: C_14  and  C_15
REMARK                            x       y       z     vdW  Elec       q    Type
REMARK                         _______ _______ _______ _____ _____    ______ ____
ROOT
ATOM      1  C   UNL     1      43.987   4.232  11.480  0.00  0.00    +0.000 C 
ENDROOT
BRANCH   1   2
ATOM      2  C   UNL     1      45.204   4.823  12.156  0.00  0.00    +0.000 A 
ATOM      3  C   UNL     1      45.759   6.037  11.740  0.00  0.00    +0.000 A 
ATOM      4  C   UNL     1      46.830   6.592  12.434  0.00  0.00    +0.000 A 
ATOM      5  C   UNL     1      47.334   5.958  13.571  0.00  0.00    +0.000 A 
ATOM      6  C   UNL     1      46.784   4.753  14.043  0.00  0.00    +0.000 A 
ATOM      7  C   UNL     1      45.722   4.197  13.305  0.00  0.00    +0.000 A 
BRANCH   6   8
ATOM      8  C   UNL     1      47.264   4.140  15.298  0.00  0.00    +0.000 A 
ATOM      9  C   UNL     1      47.152   4.764  16.541  0.00  0.00    +0.000 A 
ATOM     10  C   UNL     1      47.697   4.149  17.667  0.00  0.00    +0.000 A 
ATOM     11  C   UNL     1      48.339   2.926  17.531  0.00  0.00    +0.000 A 
ATOM     12  C   UNL     1      48.398   2.361  16.270  0.00  0.00    +0.000 A 
ATOM     13  N   UNL     1      47.874   2.933  15.164  0.00  0.00    +0.000 NA
ENDBRANCH   6   8
ENDBRANCH   1   2
BRANCH   1  14
ATOM     14  O   UNL     1      43.904   4.648  10.114  0.00  0.00    +0.000 OA
BRANCH  14  18
ATOM     15  C   UNL     1      46.438   2.462   7.721  0.00  0.00    +0.000 A 
ATOM     16  C   UNL     1      45.636   1.806   8.654  0.00  0.00    +0.000 A 
ATOM     17  C   UNL     1      44.784   2.560   9.467  0.00  0.00    +0.000 A 
ATOM     18  C   UNL     1      44.767   3.937   9.307  0.00  0.00    +0.000 A 
ATOM     19  N   UNL     1      45.538   4.596   8.417  0.00  0.00    +0.000 NA
ATOM     20  C   UNL     1      46.367   3.845   7.651  0.00  0.00    +0.000 A 
BRANCH  15  22
ATOM     21  N   UNL     1      48.468   2.467   6.388  0.00  0.00    +0.000 N 
ATOM     22  C   UNL     1      47.374   1.767   6.816  0.00  0.00    +0.000 C 
ATOM     23  O   UNL     1      47.203   0.599   6.495  0.00  0.00    +0.000 OA
ATOM     24  H   UNL     1      49.155   1.937   5.866  0.00  0.00    +0.000 HD
ATOM     25  H   UNL     1      48.775   3.320   6.831  0.00  0.00    +0.000 HD
ENDBRANCH  15  22
ENDBRANCH  14  18
ENDBRANCH   1  14
TORSDOF 5
ENDMDL
MODEL 2
REMARK VINA RESULT:    -8.730      2.289      3.923
REMARK INTER + INTRA:         -11.951
REMARK INTER:                 -11.180
REMARK INTRA:                  -0.770
REMARK UNBOUND:                -0.669
REMARK  Name = 
REMARK  5 active torsions:
REMARK  status: ('A' for Active; 'I' for Inactive)
REMARK    1  A    between atoms: C_2  and  C_4
REMARK    2  A    between atoms: C_7  and  O_8
REMARK    3  A    between atoms: O_8  and  C_9
REMARK    4  A    between atoms: C_9  and  C_10
REMARK    5  A    between atoms: C_14  and  C_15
REMARK                            x       y       z     vdW  Elec       q    Type
REMARK                         _______ _______ _______ _____ _____    ______ ____
ROOT
ATOM      1  C   UNL     1      43.445   4.333  11.092  0.00  0.00    +0.000 C 
ENDROOT
BRANCH   1   2
ATOM      2  C   UNL     1      44.661   4.716  11.905  0.00  0.00    +0.000 A 
ATOM      3  C   UNL     1      45.303   3.800  12.744  0.00  0.00    +0.000 A 
ATOM      4  C   UNL     1      46.466   4.162  13.419  0.00  0.00    +0.000 A 
ATOM      5  C   UNL     1      47.017   5.431  13.234  0.00  0.00    +0.000 A 
ATOM      6  C   UNL     1      46.422   6.371  12.375  0.00  0.00    +0.000 A 
ATOM      7  C   UNL     1      45.231   5.991  11.729  0.00  0.00    +0.000 A 
BRANCH   6   8
ATOM      8  C   UNL     1      47.064   7.677  12.116  0.00  0.00    +0.000 A 
ATOM      9  C   UNL     1      48.418   7.810  11.805  0.00  0.00    +0.000 A 
ATOM     10  C   UNL     1      48.962   9.084  11.649  0.00  0.00    +0.000 A 
ATOM     11  C   UNL     1      48.145  10.196  11.801  0.00  0.00    +0.000 A 
ATOM     12  C   UNL     1      46.810   9.985  12.094  0.00  0.00    +0.000 A 
ATOM     13  N   UNL     1      46.257   8.762  12.246  0.00  0.00    +0.000 NA
ENDBRANCH   6   8
ENDBRANCH   1   2
BRANCH   1  14
ATOM     14  O   UNL     1      43.591   4.736   9.727  0.00  0.00    +0.000 OA
BRANCH  14  18
ATOM     15  C   UNL     1      46.411   2.456   7.784  0.00  0.00    +0.000 A 
ATOM     16  C   UNL     1      45.482   1.837   8.618  0.00  0.00    +0.000 A 
ATOM     17  C   UNL     1      44.532   2.622   9.279  0.00  0.00    +0.000 A 
ATOM     18  C   UNL     1      44.550   3.993   9.072  0.00  0.00    +0.000 A 
ATOM     19  N   UNL     1      45.443   4.617   8.275  0.00  0.00    +0.000 NA
ATOM     20  C   UNL     1      46.363   3.837   7.657  0.00  0.00    +0.000 A 
BRANCH  15  22
ATOM     21  N   UNL     1      48.477   2.464   6.506  0.00  0.00    +0.000 N 
ATOM     22  C   UNL     1      47.456   1.727   7.041  0.00  0.00    +0.000 C 
ATOM     23  O   UNL     1      47.437   0.507   6.942  0.00  0.00    +0.000 OA
ATOM     24  H   UNL     1      49.241   1.935   6.104  0.00  0.00    +0.000 HD
ATOM     25  H   UNL     1      48.663   3.415   6.785  0.00  0.00    +0.000 HD
ENDBRANCH  15  22
ENDBRANCH  14  18
ENDBRANCH   1  14
TORSDOF 5
ENDMDL
MODEL 3
REMARK VINA RESULT:    -7.858      1.447      1.913
REMARK INTER + INTRA:         -10.824
REMARK INTER:                 -10.079
REMARK INTRA:                  -0.745
REMARK UNBOUND:                -0.669
REMARK  Name = 
REMARK  5 active torsions:
REMARK  status: ('A' for Active; 'I' for Inactive)
REMARK    1  A    between atoms: C_2  and  C_4
REMARK    2  A    between atoms: C_7  and  O_8
REMARK    3  A    between atoms: O_8  and  C_9
REMARK    4  A    between atoms: C_9  and  C_10
REMARK    5  A    between atoms: C_14  and  C_15
REMARK                            x       y       z     vdW  Elec       q    Type
REMARK                         _______ _______ _______ _____ _____    ______ ____
ROOT
ATOM      1  C   UNL     1      44.461   4.136  11.567  0.00  0.00    +0.000 C 
ENDROOT
BRANCH   1   2
ATOM      2  C   UNL     1      45.234   5.386  11.921  0.00  0.00    +0.000 A 
ATOM      3  C   UNL     1      44.887   6.637  11.401  0.00  0.00    +0.000 A 
ATOM      4  C   UNL     1      45.570   7.780  11.809  0.00  0.00    +0.000 A 
ATOM      5  C   UNL     1      46.583   7.688  12.765  0.00  0.00    +0.000 A 
ATOM      6  C   UNL     1      46.940   6.455  13.338  0.00  0.00    +0.000 A 
ATOM      7  C   UNL     1      46.256   5.311  12.886  0.00  0.00    +0.000 A 
BRANCH   6   8
ATOM      8  C   UNL     1      47.949   6.383  14.416  0.00  0.00    +0.000 A 
ATOM      9  C   UNL     1      49.045   7.243  14.490  0.00  0.00    +0.000 A 
ATOM     10  C   UNL     1      49.990   7.060  15.498  0.00  0.00    +0.000 A 
ATOM     11  C   UNL     1      49.821   6.028  16.411  0.00  0.00    +0.000 A 
ATOM     12  C   UNL     1      48.702   5.226  16.283  0.00  0.00    +0.000 A 
ATOM     13  N   UNL     1      47.768   5.384  15.319  0.00  0.00    +0.000 NA
ENDBRANCH   6   8
ENDBRANCH   1   2
BRANCH   1  14
ATOM     14  O   UNL     1      43.944   4.210  10.235  0.00  0.00    +0.000 OA
BRANCH  14  18
ATOM     15  C   UNL     1      46.567   2.632   7.487  0.00  0.00    +0.000 A 
ATOM     16  C   UNL     1      45.923   1.786   8.389  0.00  0.00    +0.000 A 
ATOM     17  C   UNL     1      45.040   2.333   9.323  0.00  0.00    +0.000 A 
ATOM     18  C   UNL     1      44.833   3.704   9.310  0.00  0.00    +0.000 A 
ATOM     19  N   UNL     1      45.448   4.545   8.453  0.00  0.00    +0.000 NA
ATOM     20  C   UNL     1      46.312   3.993   7.567  0.00  0.00    +0.000 A 
BRANCH  15  22
ATOM     21  N   UNL     1      47.818   3.022   5.442  0.00  0.00    +0.000 N 
ATOM     22  C   UNL     1      47.519   2.162   6.462  0.00  0.00    +0.000 C 
ATOM     23  O   UNL     1      48.054   1.064   6.542  0.00  0.00    +0.000 OA
ATOM     24  H   UNL     1      48.559   2.728   4.818  0.00  0.00    +0.000 HD
ATOM     25  H   UNL     1      47.608   4.009   5.484  0.00  0.00    +0.000 HD
ENDBRANCH  15  22
ENDBRANCH  14  18
ENDBRANCH   1  14
TORSDOF 5
ENDMDL
MODEL 4
REMARK VINA RESULT:    -7.554      3.514      7.071
REMARK INTER + INTRA:         -10.431
REMARK INTER:                  -9.546
REMARK INTRA:                  -0.885
REMARK UNBOUND:                -0.669
REMARK  Name = 
REMARK  5 active torsions:
REMARK  status: ('A' for Active; 'I' for Inactive)
REMARK    1  A    between atoms: C_2  and  C_4
REMARK    2  A    between atoms: C_7  and  O_8
REMARK    3  A    between atoms: O_8  and  C_9
REMARK    4  A    between atoms: C_9  and  C_10
REMARK    5  A    between atoms: C_14  and  C_15
REMARK                            x       y       z     vdW  Elec       q    Type
REMARK                         _______ _______ _______ _____ _____    ______ ____
ROOT
ATOM      1  C   UNL     1      44.385   6.618  11.403  0.00  0.00    +0.000 C 
ENDROOT
BRANCH   1   2
ATOM      2  C   UNL     1      44.329   5.140  11.086  0.00  0.00    +0.000 A 
ATOM      3  C   UNL     1      43.425   4.285  11.723  0.00  0.00    +0.000 A 
ATOM      4  C   UNL     1      43.345   2.946  11.352  0.00  0.00    +0.000 A 
ATOM      5  C   UNL     1      44.143   2.456  10.316  0.00  0.00    +0.000 A 
ATOM      6  C   UNL     1      45.041   3.290   9.626  0.00  0.00    +0.000 A 
ATOM      7  C   UNL     1      45.125   4.632  10.042  0.00  0.00    +0.000 A 
BRANCH   6   8
ATOM      8  C   UNL     1      45.812   2.783   8.472  0.00  0.00    +0.000 A 
ATOM      9  C   UNL     1      46.124   3.570   7.362  0.00  0.00    +0.000 A 
ATOM     10  C   UNL     1      46.792   2.994   6.282  0.00  0.00    +0.000 A 
ATOM     11  C   UNL     1      47.136   1.651   6.333  0.00  0.00    +0.000 A 
ATOM     12  C   UNL     1      46.807   0.939   7.471  0.00  0.00    +0.000 A 
ATOM     13  N   UNL     1      46.165   1.473   8.534  0.00  0.00    +0.000 NA
ENDBRANCH   6   8
ENDBRANCH   1   2
BRANCH   1  14
ATOM     14  O   UNL     1      44.965   6.846  12.691  0.00  0.00    +0.000 OA
BRANCH  14  18
ATOM     15  C   UNL     1      48.979   7.712  12.432  0.00  0.00    +0.000 A 
ATOM     16  C   UNL     1      48.572   6.479  12.942  0.00  0.00    +0.000 A 
ATOM     17  C   UNL     1      47.206   6.198  13.031  0.00  0.00    +0.000 A 
ATOM     18  C   UNL     1      46.305   7.161  12.602  0.00  0.00    +0.000 A 
ATOM     19  N   UNL     1      46.672   8.363  12.112  0.00  0.00    +0.000 NA
ATOM     20  C   UNL     1      48.002   8.619  12.049  0.00  0.00    +0.000 A 
BRANCH  15  22
ATOM     21  N   UNL     1      51.143   7.457  11.360  0.00  0.00    +0.000 N 
ATOM     22  C   UNL     1      50.392   8.113  12.295  0.00  0.00    +0.000 C 
ATOM     23  O   UNL     1      50.864   9.026  12.960  0.00  0.00    +0.000 OA
ATOM     24  H   UNL     1      52.072   7.825  11.200  0.00  0.00    +0.000 HD
ATOM     25  H   UNL     1      50.731   6.896  10.629  0.00  0.00    +0.000 HD
ENDBRANCH  15  22
ENDBRANCH  14  18
ENDBRANCH   1  14
TORSDOF 5
ENDMDL
MODEL 5
REMARK VINA RESULT:    -7.478      3.121      7.177
REMARK INTER + INTRA:         -10.333
REMARK INTER:                  -9.405
REMARK INTRA:                  -0.928
REMARK UNBOUND:                -0.669
REMARK  Name = 
REMARK  5 active torsions:
REMARK  status: ('A' for Active; 'I' for Inactive)
REMARK    1  A    between atoms: C_2  and  C_4
REMARK    2  A    between atoms: C_7  and  O_8
REMARK    3  A    between atoms: O_8  and  C_9
REMARK    4  A    between atoms: C_9  and  C_10
REMARK    5  A    between atoms: C_14  and  C_15
REMARK                            x       y       z     vdW  Elec       q    Type
REMARK                         _______ _______ _______ _____ _____    ______ ____
ROOT
ATOM      1  C   UNL     1      43.828   6.233  11.391  0.00  0.00    +0.000 C 
ENDROOT
BRANCH   1   2
ATOM      2  C   UNL     1      44.005   4.779  11.013  0.00  0.00    +0.000 A 
ATOM      3  C   UNL     1      43.277   3.763  11.640  0.00  0.00    +0.000 A 
ATOM      4  C   UNL     1      43.405   2.444  11.215  0.00  0.00    +0.000 A 
ATOM      5  C   UNL     1      44.236   2.132  10.137  0.00  0.00    +0.000 A 
ATOM      6  C   UNL     1      44.959   3.127   9.458  0.00  0.00    +0.000 A 
ATOM      7  C   UNL     1      44.836   4.449   9.927  0.00  0.00    +0.000 A 
BRANCH   6   8
ATOM      8  C   UNL     1      45.762   2.799   8.261  0.00  0.00    +0.000 A 
ATOM      9  C   UNL     1      46.366   1.556   8.068  0.00  0.00    +0.000 A 
ATOM     10  C   UNL     1      47.168   1.352   6.946  0.00  0.00    +0.000 A 
ATOM     11  C   UNL     1      47.348   2.388   6.041  0.00  0.00    +0.000 A 
ATOM     12  C   UNL     1      46.705   3.587   6.291  0.00  0.00    +0.000 A 
ATOM     13  N   UNL     1      45.919   3.810   7.367  0.00  0.00    +0.000 NA
ENDBRANCH   6   8
ENDBRANCH   1   2
BRANCH   1  14
ATOM     14  O   UNL     1      44.250   6.470  12.737  0.00  0.00    +0.000 OA
BRANCH  14  18
ATOM     15  C   UNL     1      48.293   7.205  12.945  0.00  0.00    +0.000 A 
ATOM     16  C   UNL     1      47.489   8.004  12.134  0.00  0.00    +0.000 A 
ATOM     17  C   UNL     1      46.118   7.741  12.065  0.00  0.00    +0.000 A 
ATOM     18  C   UNL     1      45.609   6.693  12.816  0.00  0.00    +0.000 A 
ATOM     19  N   UNL     1      46.366   5.900  13.603  0.00  0.00    +0.000 NA
ATOM     20  C   UNL     1      47.695   6.165  13.642  0.00  0.00    +0.000 A 
BRANCH  15  22
ATOM     21  N   UNL     1      50.499   7.396  11.947  0.00  0.00    +0.000 N 
ATOM     22  C   UNL     1      49.750   7.391  13.091  0.00  0.00    +0.000 C 
ATOM     23  O   UNL     1      50.264   7.577  14.186  0.00  0.00    +0.000 OA
ATOM     24  H   UNL     1      51.474   7.642  12.058  0.00  0.00    +0.000 HD
ATOM     25  H   UNL     1      50.090   7.509  11.031  0.00  0.00    +0.000 HD
ENDBRANCH  15  22
ENDBRANCH  14  18
ENDBRANCH   1  14
TORSDOF 5
ENDMDL
MODEL 6
REMARK VINA RESULT:    -7.273      2.692      7.733
REMARK INTER + INTRA:         -10.069
REMARK INTER:                  -9.431
REMARK INTRA:                  -0.638
REMARK UNBOUND:                -0.669
REMARK  Name = 
REMARK  5 active torsions:
REMARK  status: ('A' for Active; 'I' for Inactive)
REMARK    1  A    between atoms: C_2  and  C_4
REMARK    2  A    between atoms: C_7  and  O_8
REMARK    3  A    between atoms: O_8  and  C_9
REMARK    4  A    between atoms: C_9  and  C_10
REMARK    5  A    between atoms: C_14  and  C_15
REMARK                            x       y       z     vdW  Elec       q    Type
REMARK                         _______ _______ _______ _____ _____    ______ ____
ROOT
ATOM      1  C   UNL     1      46.013   6.841  12.893  0.00  0.00    +0.000 C 
ENDROOT
BRANCH   1   2
ATOM      2  C   UNL     1      45.110   5.942  12.079  0.00  0.00    +0.000 A 
ATOM      3  C   UNL     1      43.720   5.964  12.231  0.00  0.00    +0.000 A 
ATOM      4  C   UNL     1      42.913   5.181  11.412  0.00  0.00    +0.000 A 
ATOM      5  C   UNL     1      43.484   4.395  10.409  0.00  0.00    +0.000 A 
ATOM      6  C   UNL     1      44.874   4.369  10.201  0.00  0.00    +0.000 A 
ATOM      7  C   UNL     1      45.670   5.146  11.063  0.00  0.00    +0.000 A 
BRANCH   6   8
ATOM      8  C   UNL     1      45.459   3.606   9.078  0.00  0.00    +0.000 A 
ATOM      9  C   UNL     1      45.530   2.213   9.061  0.00  0.00    +0.000 A 
ATOM     10  C   UNL     1      46.165   1.574   7.997  0.00  0.00    +0.000 A 
ATOM     11  C   UNL     1      46.709   2.335   6.973  0.00  0.00    +0.000 A 
ATOM     12  C   UNL     1      46.587   3.710   7.051  0.00  0.00    +0.000 A 
ATOM     13  N   UNL     1      45.973   4.355   8.067  0.00  0.00    +0.000 NA
ENDBRANCH   6   8
ENDBRANCH   1   2
BRANCH   1  14
ATOM     14  O   UNL     1      47.338   6.306  12.972  0.00  0.00    +0.000 OA
BRANCH  14  18
ATOM     15  C   UNL     1      48.080   4.595  16.639  0.00  0.00    +0.000 A 
ATOM     16  C   UNL     1      47.172   3.993  15.769  0.00  0.00    +0.000 A 
ATOM     17  C   UNL     1      46.922   4.587  14.529  0.00  0.00    +0.000 A 
ATOM     18  C   UNL     1      47.596   5.755  14.209  0.00  0.00    +0.000 A 
ATOM     19  N   UNL     1      48.475   6.361  15.035  0.00  0.00    +0.000 NA
ATOM     20  C   UNL     1      48.689   5.775  16.238  0.00  0.00    +0.000 A 
BRANCH  15  22
ATOM     21  N   UNL     1      47.848   4.666  19.055  0.00  0.00    +0.000 N 
ATOM     22  C   UNL     1      48.417   4.057  17.971  0.00  0.00    +0.000 C 
ATOM     23  O   UNL     1      49.141   3.079  18.100  0.00  0.00    +0.000 OA
ATOM     24  H   UNL     1      47.998   4.210  19.947  0.00  0.00    +0.000 HD
ATOM     25  H   UNL     1      47.059   5.289  18.976  0.00  0.00    +0.000 HD
ENDBRANCH  15  22
ENDBRANCH  14  18
ENDBRANCH   1  14
TORSDOF 5
ENDMDL
MODEL 7
REMARK VINA RESULT:    -6.708      3.286      8.411
REMARK INTER + INTRA:          -9.338
REMARK INTER:                  -8.661
REMARK INTRA:                  -0.678
REMARK UNBOUND:                -0.669
REMARK  Name = 
REMARK  5 active torsions:
REMARK  status: ('A' for Active; 'I' for Inactive)
REMARK    1  A    between atoms: C_2  and  C_4
REMARK    2  A    between atoms: C_7  and  O_8
REMARK    3  A    between atoms: O_8  and  C_9
REMARK    4  A    between atoms: C_9  and  C_10
REMARK    5  A    between atoms: C_14  and  C_15
REMARK                            x       y       z     vdW  Elec       q    Type
REMARK                         _______ _______ _______ _____ _____    ______ ____
ROOT
ATOM      1  C   UNL     1      47.986   6.895  13.952  0.00  0.00    +0.000 C 
ENDROOT
BRANCH   1   2
ATOM      2  C   UNL     1      46.791   6.976  13.028  0.00  0.00    +0.000 A 
ATOM      3  C   UNL     1      46.025   8.140  12.916  0.00  0.00    +0.000 A 
ATOM      4  C   UNL     1      44.980   8.207  11.999  0.00  0.00    +0.000 A 
ATOM      5  C   UNL     1      44.713   7.123  11.160  0.00  0.00    +0.000 A 
ATOM      6  C   UNL     1      45.480   5.946  11.217  0.00  0.00    +0.000 A 
ATOM      7  C   UNL     1      46.510   5.893  12.174  0.00  0.00    +0.000 A 
BRANCH   6   8
ATOM      8  C   UNL     1      45.247   4.843  10.262  0.00  0.00    +0.000 A 
ATOM      9  C   UNL     1      44.630   3.644  10.621  0.00  0.00    +0.000 A 
ATOM     10  C   UNL     1      44.515   2.624   9.677  0.00  0.00    +0.000 A 
ATOM     11  C   UNL     1      45.013   2.822   8.397  0.00  0.00    +0.000 A 
ATOM     12  C   UNL     1      45.598   4.042   8.110  0.00  0.00    +0.000 A 
ATOM     13  N   UNL     1      45.718   5.048   9.004  0.00  0.00    +0.000 NA
ENDBRANCH   6   8
ENDBRANCH   1   2
BRANCH   1  14
ATOM     14  O   UNL     1      48.211   5.551  14.386  0.00  0.00    +0.000 OA
BRANCH  14  18
ATOM     15  C   UNL     1      48.141   5.167  18.482  0.00  0.00    +0.000 A 
ATOM     16  C   UNL     1      47.450   4.249  17.692  0.00  0.00    +0.000 A 
ATOM     17  C   UNL     1      47.475   4.393  16.302  0.00  0.00    +0.000 A 
ATOM     18  C   UNL     1      48.195   5.447  15.761  0.00  0.00    +0.000 A 
ATOM     19  N   UNL     1      48.867   6.352  16.503  0.00  0.00    +0.000 NA
ATOM     20  C   UNL     1      48.815   6.201  17.849  0.00  0.00    +0.000 A 
BRANCH  15  22
ATOM     21  N   UNL     1      48.540   3.924  20.529  0.00  0.00    +0.000 N 
ATOM     22  C   UNL     1      48.181   5.112  19.956  0.00  0.00    +0.000 C 
ATOM     23  O   UNL     1      47.944   6.099  20.639  0.00  0.00    +0.000 OA
ATOM     24  H   UNL     1      48.675   3.940  21.533  0.00  0.00    +0.000 HD
ATOM     25  H   UNL     1      48.988   3.183  20.010  0.00  0.00    +0.000 HD
ENDBRANCH  15  22
ENDBRANCH  14  18
ENDBRANCH   1  14
TORSDOF 5
ENDMDL
MODEL 8
REMARK VINA RESULT:    -6.688      4.081      7.870
REMARK INTER + INTRA:          -9.312
REMARK INTER:                  -8.516
REMARK INTRA:                  -0.796
REMARK UNBOUND:                -0.669
REMARK  Name = 
REMARK  5 active torsions:
REMARK  status: ('A' for Active; 'I' for Inactive)
REMARK    1  A    between atoms: C_2  and  C_4
REMARK    2  A    between atoms: C_7  and  O_8
REMARK    3  A    between atoms: O_8  and  C_9
REMARK    4  A    between atoms: C_9  and  C_10
REMARK    5  A    between atoms: C_14  and  C_15
REMARK                            x       y       z     vdW  Elec       q    Type
REMARK                         _______ _______ _______ _____ _____    ______ ____
ROOT
ATOM      1  C   UNL     1      48.675   6.403  15.978  0.00  0.00    +0.000 C 
ENDROOT
BRANCH   1   2
ATOM      2  C   UNL     1      48.227   6.557  14.541  0.00  0.00    +0.000 A 
ATOM      3  C   UNL     1      48.986   7.268  13.607  0.00  0.00    +0.000 A 
ATOM      4  C   UNL     1      48.586   7.325  12.275  0.00  0.00    +0.000 A 
ATOM      5  C   UNL     1      47.441   6.643  11.857  0.00  0.00    +0.000 A 
ATOM      6  C   UNL     1      46.668   5.889  12.758  0.00  0.00    +0.000 A 
ATOM      7  C   UNL     1      47.077   5.874  14.104  0.00  0.00    +0.000 A 
BRANCH   6   8
ATOM      8  C   UNL     1      45.512   5.097  12.287  0.00  0.00    +0.000 A 
ATOM      9  C   UNL     1      45.114   5.053  10.950  0.00  0.00    +0.000 A 
ATOM     10  C   UNL     1      43.969   4.340  10.601  0.00  0.00    +0.000 A 
ATOM     11  C   UNL     1      43.248   3.684  11.589  0.00  0.00    +0.000 A 
ATOM     12  C   UNL     1      43.712   3.760  12.889  0.00  0.00    +0.000 A 
ATOM     13  N   UNL     1      44.821   4.439  13.254  0.00  0.00    +0.000 NA
ENDBRANCH   6   8
ENDBRANCH   1   2
BRANCH   1  14
ATOM     14  O   UNL     1      48.134   5.214  16.561  0.00  0.00    +0.000 OA
BRANCH  14  18
ATOM     15  C   UNL     1      51.099   2.501  17.440  0.00  0.00    +0.000 A 
ATOM     16  C   UNL     1      51.333   3.862  17.630  0.00  0.00    +0.000 A 
ATOM     17  C   UNL     1      50.321   4.776  17.322  0.00  0.00    +0.000 A 
ATOM     18  C   UNL     1      49.116   4.287  16.842  0.00  0.00    +0.000 A 
ATOM     19  N   UNL     1      48.866   2.976  16.642  0.00  0.00    +0.000 NA
ATOM     20  C   UNL     1      49.868   2.111  16.934  0.00  0.00    +0.000 A 
BRANCH  15  22
ATOM     21  N   UNL     1      51.623   0.223  18.100  0.00  0.00    +0.000 N 
ATOM     22  C   UNL     1      52.095   1.452  17.730  0.00  0.00    +0.000 C 
ATOM     23  O   UNL     1      53.295   1.658  17.604  0.00  0.00    +0.000 OA
ATOM     24  H   UNL     1      52.314  -0.512  18.180  0.00  0.00    +0.000 HD
ATOM     25  H   UNL     1      50.662  -0.054  17.962  0.00  0.00    +0.000 HD
ENDBRANCH  15  22
ENDBRANCH  14  18
ENDBRANCH   1  14
TORSDOF 5
ENDMDL
MODEL 9
REMARK VINA RESULT:    -6.569      2.922      4.165
REMARK INTER + INTRA:          -9.158
REMARK INTER:                  -8.338
REMARK INTRA:                  -0.820
REMARK UNBOUND:                -0.669
REMARK  Name = 
REMARK  5 active torsions:
REMARK  status: ('A' for Active; 'I' for Inactive)
REMARK    1  A    between atoms: C_2  and  C_4
REMARK    2  A    between atoms: C_7  and  O_8
REMARK    3  A    between atoms: O_8  and  C_9
REMARK    4  A    between atoms: C_9  and  C_10
REMARK    5  A    between atoms: C_14  and  C_15
REMARK                            x       y       z     vdW  Elec       q    Type
REMARK                         _______ _______ _______ _____ _____    ______ ____
ROOT
ATOM      1  C   UNL     1      47.291   7.939  12.520  0.00  0.00    +0.000 C 
ENDROOT
BRANCH   1   2
ATOM      2  C   UNL     1      47.958   7.850  13.874  0.00  0.00    +0.000 A 
ATOM      3  C   UNL     1      48.348   8.993  14.578  0.00  0.00    +0.000 A 
ATOM      4  C   UNL     1      48.888   8.880  15.856  0.00  0.00    +0.000 A 
ATOM      5  C   UNL     1      49.011   7.625  16.457  0.00  0.00    +0.000 A 
ATOM      6  C   UNL     1      48.601   6.454  15.797  0.00  0.00    +0.000 A 
ATOM      7  C   UNL     1      48.087   6.593  14.494  0.00  0.00    +0.000 A 
BRANCH   6   8
ATOM      8  C   UNL     1      48.650   5.143  16.478  0.00  0.00    +0.000 A 
ATOM      9  C   UNL     1      47.522   4.346  16.676  0.00  0.00    +0.000 A 
ATOM     10  C   UNL     1      47.643   3.157  17.393  0.00  0.00    +0.000 A 
ATOM     11  C   UNL     1      48.883   2.786  17.893  0.00  0.00    +0.000 A 
ATOM     12  C   UNL     1      49.958   3.618  17.643  0.00  0.00    +0.000 A 
ATOM     13  N   UNL     1      49.871   4.773  16.948  0.00  0.00    +0.000 NA
ENDBRANCH   6   8
ENDBRANCH   1   2
BRANCH   1  14
ATOM     14  O   UNL     1      45.867   7.875  12.642  0.00  0.00    +0.000 OA
BRANCH  14  18
ATOM     15  C   UNL     1      44.437   4.235  11.365  0.00  0.00    +0.000 A 
ATOM     16  C   UNL     1      45.202   5.016  10.500  0.00  0.00    +0.000 A 
ATOM     17  C   UNL     1      45.677   6.254  10.942  0.00  0.00    +0.000 A 
ATOM     18  C   UNL     1      45.371   6.655  12.233  0.00  0.00    +0.000 A 
ATOM     19  N   UNL     1      44.627   5.921  13.087  0.00  0.00    +0.000 NA
ATOM     20  C   UNL     1      44.165   4.732  12.631  0.00  0.00    +0.000 A 
BRANCH  15  22
ATOM     21  N   UNL     1      44.459   2.263   9.947  0.00  0.00    +0.000 N 
ATOM     22  C   UNL     1      43.884   2.916  11.002  0.00  0.00    +0.000 C 
ATOM     23  O   UNL     1      42.976   2.405  11.645  0.00  0.00    +0.000 OA
ATOM     24  H   UNL     1      44.144   1.314   9.790  0.00  0.00    +0.000 HD
ATOM     25  H   UNL     1      45.357   2.526   9.570  0.00  0.00    +0.000 HD
ENDBRANCH  15  22
ENDBRANCH  14  18
ENDBRANCH   1  14
TORSDOF 5
ENDMDL
