MODEL 1
REMARK VINA RESULT:    -7.363      0.000      0.000
REMARK INTER + INTRA:         -10.298
REMARK INTER:                  -9.731
REMARK INTRA:                  -0.567
REMARK UNBOUND:                -0.567
REMARK  Name = 
REMARK  6 active torsions:
REMARK  status: ('A' for Active; 'I' for Inactive)
REMARK    1  A    between atoms: N_1  and  C_2
REMARK    2  A    between atoms: C_2  and  C_3
REMARK    3  A    between atoms: C_3  and  O_4
REMARK    4  A    between atoms: O_4  and  C_5
REMARK    5  A    between atoms: C_9  and  C_10
REMARK    6  A    between atoms: C_10  and  N_11
REMARK                            x       y       z     vdW  Elec       q    Type
REMARK                         _______ _______ _______ _____ _____    ______ ____
ROOT
ATOM      1  C   UNL     1      45.653   4.150  13.157  0.00  0.00    +0.000 A 
ATOM      2  C   UNL     1      44.871   5.291  13.347  0.00  0.00    +0.000 A 
ATOM      3  C   UNL     1      43.803   5.562  12.493  0.00  0.00    +0.000 A 
ATOM      4  C   UNL     1      43.530   4.717  11.420  0.00  0.00    +0.000 A 
ATOM      5  C   UNL     1      44.334   3.594  11.177  0.00  0.00    +0.000 A 
ATOM      6  C   UNL     1      45.367   3.296  12.084  0.00  0.00    +0.000 A 
ENDROOT
BRANCH   1   7
ATOM      7  O   UNL     1      46.726   3.785  13.933  0.00  0.00    +0.000 OA
BRANCH   7   8
ATOM      8  C   UNL     1      46.938   4.574  15.109  0.00  0.00    +0.000 C 
BRANCH   8   9
ATOM      9  C   UNL     1      47.634   3.733  16.183  0.00  0.00    +0.000 C 
BRANCH   9  10
ATOM     10  N   UNL     1      48.343   2.597  15.592  0.00  0.00    +0.000 NA
ATOM     11  H   UNL     1      49.261   2.508  16.030  0.00  0.00    +0.000 HD
ATOM     12  H   UNL     1      48.518   2.776  14.604  0.00  0.00    +0.000 HD
ENDBRANCH   9  10
ENDBRANCH   8   9
ENDBRANCH   7   8
ENDBRANCH   1   7
BRANCH   5  13
ATOM     13  C   UNL     1      44.164   2.801   9.907  0.00  0.00    +0.000 C 
BRANCH  13  14
ATOM     14  N   UNL     1      45.078   3.176   8.834  0.00  0.00    +0.000 N 
ATOM     15  C   UNL     1      45.379   4.475   8.500  0.00  0.00    +0.000 A 
ATOM     16  C   UNL     1      46.415   4.456   7.592  0.00  0.00    +0.000 A 
ATOM     17  C   UNL     1      46.773   3.098   7.373  0.00  0.00    +0.000 A 
ATOM     18  C   UNL     1      47.755   2.466   6.595  0.00  0.00    +0.000 A 
ATOM     19  N   UNL     1      47.885   1.120   6.613  0.00  0.00    +0.000 NA
ATOM     20  C   UNL     1      47.055   0.397   7.388  0.00  0.00    +0.000 A 
ATOM     21  C   UNL     1      46.051   0.922   8.190  0.00  0.00    +0.000 A 
ATOM     22  C   UNL     1      45.926   2.313   8.164  0.00  0.00    +0.000 A 
ENDBRANCH  13  14
ENDBRANCH   5  13
TORSDOF 6
ENDMDL
MODEL 2
REMARK VINA RESULT:    -7.254      2.396      6.451
REMARK INTER + INTRA:         -10.154
REMARK INTER:                  -9.497
REMARK INTRA:                  -0.657
REMARK UNBOUND:                -0.567
REMARK  Name = 
REMARK  6 active torsions:
REMARK  status: ('A' for Active; 'I' for Inactive)
REMARK    1  A    between atoms: N_1  and  C_2
REMARK    2  A    between atoms: C_2  and  C_3
REMARK    3  A    between atoms: C_3  and  O_4
REMARK    4  A    between atoms: O_4  and  C_5
REMARK    5  A    between atoms: C_9  and  C_10
REMARK    6  A    between atoms: C_10  and  N_11
REMARK                            x       y       z     vdW  Elec       q    Type
REMARK                         _______ _______ _______ _____ _____    ______ ____
ROOT
ATOM      1  C   UNL     1      45.351   3.712   8.377  0.00  0.00    +0.000 A 
ATOM      2  C   UNL     1      45.006   2.409   8.742  0.00  0.00    +0.000 A 
ATOM      3  C   UNL     1      44.251   2.176   9.892  0.00  0.00    +0.000 A 
ATOM      4  C   UNL     1      43.869   3.239  10.707  0.00  0.00    +0.000 A 
ATOM      5  C   UNL     1      44.249   4.551  10.390  0.00  0.00    +0.000 A 
ATOM      6  C   UNL     1      44.954   4.778   9.193  0.00  0.00    +0.000 A 
ENDROOT
BRANCH   1   7
ATOM      7  O   UNL     1      46.088   4.057   7.271  0.00  0.00    +0.000 OA
BRANCH   7   8
ATOM      8  C   UNL     1      46.475   2.972   6.420  0.00  0.00    +0.000 C 
BRANCH   8   9
ATOM      9  C   UNL     1      47.907   2.539   6.745  0.00  0.00    +0.000 C 
BRANCH   9  10
ATOM     10  N   UNL     1      48.525   1.848   5.612  0.00  0.00    +0.000 NA
ATOM     11  H   UNL     1      47.964   1.032   5.368  0.00  0.00    +0.000 HD
ATOM     12  H   UNL     1      49.440   1.491   5.884  0.00  0.00    +0.000 HD
ENDBRANCH   9  10
ENDBRANCH   8   9
ENDBRANCH   7   8
ENDBRANCH   1   7
BRANCH   5  13
ATOM     13  C   UNL     1      44.011   5.668  11.373  0.00  0.00    +0.000 C 
BRANCH  13  14
ATOM     14  N   UNL     1      45.225   6.292  11.885  0.00  0.00    +0.000 N 
ATOM     15  C   UNL     1      45.594   7.590  11.619  0.00  0.00    +0.000 A 
ATOM     16  C   UNL     1      46.672   7.902  12.418  0.00  0.00    +0.000 A 
ATOM     17  C   UNL     1      46.966   6.762  13.213  0.00  0.00    +0.000 A 
ATOM     18  C   UNL     1      47.913   6.493  14.212  0.00  0.00    +0.000 A 
ATOM     19  N   UNL     1      47.934   5.293  14.836  0.00  0.00    +0.000 NA
ATOM     20  C   UNL     1      47.030   4.361  14.480  0.00  0.00    +0.000 A 
ATOM     21  C   UNL     1      46.057   4.523  13.504  0.00  0.00    +0.000 A 
ATOM     22  C   UNL     1      46.045   5.766  12.867  0.00  0.00    +0.000 A 
ENDBRANCH  13  14
ENDBRANCH   5  13
TORSDOF 6
ENDMDL
MODEL 3
REMARK VINA RESULT:    -7.060      2.818      6.627
REMARK INTER + INTRA:          -9.897
REMARK INTER:                  -9.281
REMARK INTRA:                  -0.616
REMARK UNBOUND:                -0.567
REMARK  Name = 
REMARK  6 active torsions:
REMARK  status: ('A' for Active; 'I' for Inactive)
REMARK    1  A    between atoms: N_1  and  C_2
REMARK    2  A    between atoms: C_2  and  C_3
REMARK    3  A    between atoms: C_3  and  O_4
REMARK    4  A    between atoms: O_4  and  C_5
REMARK    5  A    between atoms: C_9  and  C_10
REMARK    6  A    between atoms: C_10  and  N_11
REMARK                            x       y       z     vdW  Elec       q    Type
REMARK                         _______ _______ _______ _____ _____    ______ ____
ROOT
ATOM      1  C   UNL     1      45.597   3.900   8.489  0.00  0.00    +0.000 A 
ATOM      2  C   UNL     1      45.056   2.630   8.698  0.00  0.00    +0.000 A 
ATOM      3  C   UNL     1      44.223   2.390   9.790  0.00  0.00    +0.000 A 
ATOM      4  C   UNL     1      43.956   3.406  10.705  0.00  0.00    +0.000 A 
ATOM      5  C   UNL     1      44.531   4.675  10.546  0.00  0.00    +0.000 A 
ATOM      6  C   UNL     1      45.315   4.922   9.405  0.00  0.00    +0.000 A 
ENDROOT
BRANCH   1   7
ATOM      7  O   UNL     1      46.426   4.248   7.451  0.00  0.00    +0.000 OA
BRANCH   7   8
ATOM      8  C   UNL     1      46.646   3.234   6.465  0.00  0.00    +0.000 C 
BRANCH   8   9
ATOM      9  C   UNL     1      47.975   2.523   6.736  0.00  0.00    +0.000 C 
BRANCH   9  10
ATOM     10  N   UNL     1      48.452   1.814   5.547  0.00  0.00    +0.000 NA
ATOM     11  H   UNL     1      49.450   1.988   5.429  0.00  0.00    +0.000 HD
ATOM     12  H   UNL     1      47.998   2.192   4.716  0.00  0.00    +0.000 HD
ENDBRANCH   9  10
ENDBRANCH   8   9
ENDBRANCH   7   8
ENDBRANCH   1   7
BRANCH   5  13
ATOM     13  C   UNL     1      44.405   5.707  11.639  0.00  0.00    +0.000 C 
BRANCH  13  14
ATOM     14  N   UNL     1      45.486   5.684  12.617  0.00  0.00    +0.000 N 
ATOM     15  C   UNL     1      45.652   4.694  13.557  0.00  0.00    +0.000 A 
ATOM     16  C   UNL     1      46.871   4.884  14.170  0.00  0.00    +0.000 A 
ATOM     17  C   UNL     1      47.481   6.021  13.576  0.00  0.00    +0.000 A 
ATOM     18  C   UNL     1      48.713   6.668  13.758  0.00  0.00    +0.000 A 
ATOM     19  N   UNL     1      49.046   7.739  13.002  0.00  0.00    +0.000 NA
ATOM     20  C   UNL     1      48.174   8.174  12.073  0.00  0.00    +0.000 A 
ATOM     21  C   UNL     1      46.932   7.610  11.816  0.00  0.00    +0.000 A 
ATOM     22  C   UNL     1      46.599   6.504  12.602  0.00  0.00    +0.000 A 
ENDBRANCH  13  14
ENDBRANCH   5  13
TORSDOF 6
ENDMDL
MODEL 4
REMARK VINA RESULT:    -6.910      1.371      2.095
REMARK INTER + INTRA:          -9.700
REMARK INTER:                  -9.058
REMARK INTRA:                  -0.642
REMARK UNBOUND:                -0.567
REMARK  Name = 
REMARK  6 active torsions:
REMARK  status: ('A' for Active; 'I' for Inactive)
REMARK    1  A    between atoms: N_1  and  C_2
REMARK    2  A    between atoms: C_2  and  C_3
REMARK    3  A    between atoms: C_3  and  O_4
REMARK    4  A    between atoms: O_4  and  C_5
REMARK    5  A    between atoms: C_9  and  C_10
REMARK    6  A    between atoms: C_10  and  N_11
REMARK                            x       y       z     vdW  Elec       q    Type
REMARK                         _______ _______ _______ _____ _____    ______ ____
ROOT
ATOM      1  C   UNL     1      45.305   6.064  12.427  0.00  0.00    +0.000 A 
ATOM      2  C   UNL     1      43.999   6.084  12.919  0.00  0.00    +0.000 A 
ATOM      3  C   UNL     1      42.958   5.530  12.174  0.00  0.00    +0.000 A 
ATOM      4  C   UNL     1      43.207   4.987  10.916  0.00  0.00    +0.000 A 
ATOM      5  C   UNL     1      44.502   5.004  10.378  0.00  0.00    +0.000 A 
ATOM      6  C   UNL     1      45.553   5.506  11.167  0.00  0.00    +0.000 A 
ENDROOT
BRANCH   1   7
ATOM      7  O   UNL     1      46.403   6.578  13.072  0.00  0.00    +0.000 OA
BRANCH   7   8
ATOM      8  C   UNL     1      47.466   5.652  13.322  0.00  0.00    +0.000 C 
BRANCH   8   9
ATOM      9  C   UNL     1      47.067   4.691  14.446  0.00  0.00    +0.000 C 
BRANCH   9  10
ATOM     10  N   UNL     1      47.228   3.295  14.036  0.00  0.00    +0.000 NA
ATOM     11  H   UNL     1      46.334   2.812  14.124  0.00  0.00    +0.000 HD
ATOM     12  H   UNL     1      47.869   2.821  14.673  0.00  0.00    +0.000 HD
ENDBRANCH   9  10
ENDBRANCH   8   9
ENDBRANCH   7   8
ENDBRANCH   1   7
BRANCH   5  13
ATOM     13  C   UNL     1      44.732   4.604   8.943  0.00  0.00    +0.000 C 
BRANCH  13  14
ATOM     14  N   UNL     1      45.212   3.239   8.767  0.00  0.00    +0.000 N 
ATOM     15  C   UNL     1      44.567   2.127   9.257  0.00  0.00    +0.000 A 
ATOM     16  C   UNL     1      45.182   1.010   8.737  0.00  0.00    +0.000 A 
ATOM     17  C   UNL     1      46.231   1.450   7.885  0.00  0.00    +0.000 A 
ATOM     18  C   UNL     1      47.164   0.789   7.073  0.00  0.00    +0.000 A 
ATOM     19  N   UNL     1      48.047   1.491   6.326  0.00  0.00    +0.000 NA
ATOM     20  C   UNL     1      48.013   2.836   6.377  0.00  0.00    +0.000 A 
ATOM     21  C   UNL     1      47.136   3.585   7.148  0.00  0.00    +0.000 A 
ATOM     22  C   UNL     1      46.230   2.849   7.914  0.00  0.00    +0.000 A 
ENDBRANCH  13  14
ENDBRANCH   5  13
TORSDOF 6
ENDMDL
MODEL 5
REMARK VINA RESULT:    -6.805      2.004      3.504
REMARK INTER + INTRA:          -9.560
REMARK INTER:                  -8.804
REMARK INTRA:                  -0.757
REMARK UNBOUND:                -0.567
REMARK  Name = 
REMARK  6 active torsions:
REMARK  status: ('A' for Active; 'I' for Inactive)
REMARK    1  A    between atoms: N_1  and  C_2
REMARK    2  A    between atoms: C_2  and  C_3
REMARK    3  A    between atoms: C_3  and  O_4
REMARK    4  A    between atoms: O_4  and  C_5
REMARK    5  A    between atoms: C_9  and  C_10
REMARK    6  A    between atoms: C_10  and  N_11
REMARK                            x       y       z     vdW  Elec       q    Type
REMARK                         _______ _______ _______ _____ _____    ______ ____
ROOT
ATOM      1  C   UNL     1      47.557   6.135  13.726  0.00  0.00    +0.000 A 
ATOM      2  C   UNL     1      48.227   7.243  13.203  0.00  0.00    +0.000 A 
ATOM      3  C   UNL     1      47.589   8.088  12.296  0.00  0.00    +0.000 A 
ATOM      4  C   UNL     1      46.290   7.813  11.875  0.00  0.00    +0.000 A 
ATOM      5  C   UNL     1      45.616   6.676  12.345  0.00  0.00    +0.000 A 
ATOM      6  C   UNL     1      46.247   5.869  13.309  0.00  0.00    +0.000 A 
ENDROOT
BRANCH   1   7
ATOM      7  O   UNL     1      48.086   5.239  14.622  0.00  0.00    +0.000 OA
BRANCH   7   8
ATOM      8  C   UNL     1      47.140   4.392  15.284  0.00  0.00    +0.000 C 
BRANCH   8   9
ATOM      9  C   UNL     1      47.549   4.199  16.747  0.00  0.00    +0.000 C 
BRANCH   9  10
ATOM     10  N   UNL     1      46.679   3.232  17.420  0.00  0.00    +0.000 NA
ATOM     11  H   UNL     1      45.832   3.100  16.867  0.00  0.00    +0.000 HD
ATOM     12  H   UNL     1      46.375   3.610  18.318  0.00  0.00    +0.000 HD
ENDBRANCH   9  10
ENDBRANCH   8   9
ENDBRANCH   7   8
ENDBRANCH   1   7
BRANCH   5  13
ATOM     13  C   UNL     1      44.298   6.271  11.737  0.00  0.00    +0.000 C 
BRANCH  13  14
ATOM     14  N   UNL     1      44.197   4.856  11.401  0.00  0.00    +0.000 N 
ATOM     15  C   UNL     1      43.399   3.961  12.074  0.00  0.00    +0.000 A 
ATOM     16  C   UNL     1      43.394   2.777  11.370  0.00  0.00    +0.000 A 
ATOM     17  C   UNL     1      44.205   2.955  10.217  0.00  0.00    +0.000 A 
ATOM     18  C   UNL     1      44.547   2.132   9.134  0.00  0.00    +0.000 A 
ATOM     19  N   UNL     1      45.334   2.598   8.137  0.00  0.00    +0.000 NA
ATOM     20  C   UNL     1      45.783   3.865   8.203  0.00  0.00    +0.000 A 
ATOM     21  C   UNL     1      45.508   4.758   9.230  0.00  0.00    +0.000 A 
ATOM     22  C   UNL     1      44.695   4.266  10.253  0.00  0.00    +0.000 A 
ENDBRANCH  13  14
ENDBRANCH   5  13
TORSDOF 6
ENDMDL
MODEL 6
REMARK VINA RESULT:    -5.883      4.245      6.627
REMARK INTER + INTRA:          -8.342
REMARK INTER:                  -7.661
REMARK INTRA:                  -0.681
REMARK UNBOUND:                -0.567
REMARK  Name = 
REMARK  6 active torsions:
REMARK  status: ('A' for Active; 'I' for Inactive)
REMARK    1  A    between atoms: N_1  and  C_2
REMARK    2  A    between atoms: C_2  and  C_3
REMARK    3  A    between atoms: C_3  and  O_4
REMARK    4  A    between atoms: O_4  and  C_5
REMARK    5  A    between atoms: C_9  and  C_10
REMARK    6  A    between atoms: C_10  and  N_11
REMARK                            x       y       z     vdW  Elec       q    Type
REMARK                         _______ _______ _______ _____ _____    ______ ____
ROOT
ATOM      1  C   UNL     1      44.220   4.518  10.336  0.00  0.00    +0.000 A 
ATOM      2  C   UNL     1      43.209   4.141  11.222  0.00  0.00    +0.000 A 
ATOM      3  C   UNL     1      43.270   4.519  12.563  0.00  0.00    +0.000 A 
ATOM      4  C   UNL     1      44.361   5.243  13.038  0.00  0.00    +0.000 A 
ATOM      5  C   UNL     1      45.415   5.587  12.180  0.00  0.00    +0.000 A 
ATOM      6  C   UNL     1      45.309   5.257  10.817  0.00  0.00    +0.000 A 
ENDROOT
BRANCH   1   7
ATOM      7  O   UNL     1      44.263   4.203   9.000  0.00  0.00    +0.000 OA
BRANCH   7   8
ATOM      8  C   UNL     1      45.117   3.109   8.648  0.00  0.00    +0.000 C 
BRANCH   8   9
ATOM      9  C   UNL     1      45.778   3.378   7.293  0.00  0.00    +0.000 C 
BRANCH   9  10
ATOM     10  N   UNL     1      46.773   4.448   7.389  0.00  0.00    +0.000 NA
ATOM     11  H   UNL     1      47.696   4.069   7.178  0.00  0.00    +0.000 HD
ATOM     12  H   UNL     1      46.821   4.788   8.350  0.00  0.00    +0.000 HD
ENDBRANCH   9  10
ENDBRANCH   8   9
ENDBRANCH   7   8
ENDBRANCH   1   7
BRANCH   5  13
ATOM     13  C   UNL     1      46.680   6.189  12.736  0.00  0.00    +0.000 C 
BRANCH  13  14
ATOM     14  N   UNL     1      46.912   7.574  12.345  0.00  0.00    +0.000 N 
ATOM     15  C   UNL     1      45.987   8.581  12.494  0.00  0.00    +0.000 A 
ATOM     16  C   UNL     1      46.607   9.778  12.214  0.00  0.00    +0.000 A 
ATOM     17  C   UNL     1      47.964   9.500  11.898  0.00  0.00    +0.000 A 
ATOM     18  C   UNL     1      49.068  10.299  11.567  0.00  0.00    +0.000 A 
ATOM     19  N   UNL     1      50.281   9.742  11.345  0.00  0.00    +0.000 NA
ATOM     20  C   UNL     1      50.408   8.405  11.447  0.00  0.00    +0.000 A 
ATOM     21  C   UNL     1      49.383   7.526  11.763  0.00  0.00    +0.000 A 
ATOM     22  C   UNL     1      48.136   8.113  11.991  0.00  0.00    +0.000 A 
ENDBRANCH  13  14
ENDBRANCH   5  13
TORSDOF 6
ENDMDL
MODEL 7
REMARK VINA RESULT:    -5.705      2.807      3.850
REMARK INTER + INTRA:          -8.107
REMARK INTER:                  -7.842
REMARK INTRA:                  -0.265
REMARK UNBOUND:                -0.567
REMARK  Name = 
REMARK  6 active torsions:
REMARK  status: ('A' for Active; 'I' for Inactive)
REMARK    1  A    between atoms: N_1  and  C_2
REMARK    2  A    between atoms: C_2  and  C_3
REMARK    3  A    between atoms: C_3  and  O_4
REMARK    4  A    between atoms: O_4  and  C_5
REMARK    5  A    between atoms: C_9  and  C_10
REMARK    6  A    between atoms: C_10  and  N_11
REMARK                            x       y       z     vdW  Elec       q    Type
REMARK                         _______ _______ _______ _____ _____    ______ ____
ROOT
ATOM      1  C   UNL     1      45.630   6.902  12.186  0.00  0.00    +0.000 A 
ATOM      2  C   UNL     1      45.547   5.994  13.243  0.00  0.00    +0.000 A 
ATOM      3  C   UNL     1      45.368   4.634  12.991  0.00  0.00    +0.000 A 
ATOM      4  C   UNL     1      45.231   4.175  11.683  0.00  0.00    +0.000 A 
ATOM      5  C   UNL     1      45.257   5.074  10.608  0.00  0.00    +0.000 A 
ATOM      6  C   UNL     1      45.504   6.434  10.872  0.00  0.00    +0.000 A 
ENDROOT
BRANCH   1   7
ATOM      7  O   UNL     1      45.805   8.257  12.317  0.00  0.00    +0.000 OA
BRANCH   7   8
ATOM      8  C   UNL     1      44.750   9.072  11.794  0.00  0.00    +0.000 C 
BRANCH   8   9
ATOM      9  C   UNL     1      45.295  10.453  11.419  0.00  0.00    +0.000 C 
BRANCH   9  10
ATOM     10  N   UNL     1      46.432  10.824  12.264  0.00  0.00    +0.000 NA
ATOM     11  H   UNL     1      46.089  11.292  13.103  0.00  0.00    +0.000 HD
ATOM     12  H   UNL     1      47.013  11.507  11.778  0.00  0.00    +0.000 HD
ENDBRANCH   9  10
ENDBRANCH   8   9
ENDBRANCH   7   8
ENDBRANCH   1   7
BRANCH   5  13
ATOM     13  C   UNL     1      44.907   4.605   9.219  0.00  0.00    +0.000 C 
BRANCH  13  14
ATOM     14  N   UNL     1      45.270   3.221   8.940  0.00  0.00    +0.000 N 
ATOM     15  C   UNL     1      44.535   2.135   9.356  0.00  0.00    +0.000 A 
ATOM     16  C   UNL     1      45.052   1.010   8.751  0.00  0.00    +0.000 A 
ATOM     17  C   UNL     1      46.131   1.421   7.923  0.00  0.00    +0.000 A 
ATOM     18  C   UNL     1      47.002   0.745   7.056  0.00  0.00    +0.000 A 
ATOM     19  N   UNL     1      47.937   1.422   6.352  0.00  0.00    +0.000 NA
ATOM     20  C   UNL     1      48.017   2.758   6.499  0.00  0.00    +0.000 A 
ATOM     21  C   UNL     1      47.210   3.521   7.331  0.00  0.00    +0.000 A 
ATOM     22  C   UNL     1      46.247   2.810   8.052  0.00  0.00    +0.000 A 
ENDBRANCH  13  14
ENDBRANCH   5  13
TORSDOF 6
ENDMDL
MODEL 8
REMARK VINA RESULT:    -5.519      3.754      5.215
REMARK INTER + INTRA:          -7.861
REMARK INTER:                  -7.218
REMARK INTRA:                  -0.643
REMARK UNBOUND:                -0.567
REMARK  Name = 
REMARK  6 active torsions:
REMARK  status: ('A' for Active; 'I' for Inactive)
REMARK    1  A    between atoms: N_1  and  C_2
REMARK    2  A    between atoms: C_2  and  C_3
REMARK    3  A    between atoms: C_3  and  O_4
REMARK    4  A    between atoms: O_4  and  C_5
REMARK    5  A    between atoms: C_9  and  C_10
REMARK    6  A    between atoms: C_10  and  N_11
REMARK                            x       y       z     vdW  Elec       q    Type
REMARK                         _______ _______ _______ _____ _____    ______ ____
ROOT
ATOM      1  C   UNL     1      48.439   5.718  16.584  0.00  0.00    +0.000 A 
ATOM      2  C   UNL     1      48.916   7.016  16.773  0.00  0.00    +0.000 A 
ATOM      3  C   UNL     1      48.855   7.946  15.735  0.00  0.00    +0.000 A 
ATOM      4  C   UNL     1      48.354   7.577  14.490  0.00  0.00    +0.000 A 
ATOM      5  C   UNL     1      47.918   6.263  14.260  0.00  0.00    +0.000 A 
ATOM      6  C   UNL     1      47.924   5.354  15.333  0.00  0.00    +0.000 A 
ENDROOT
BRANCH   1   7
ATOM      7  O   UNL     1      48.449   4.723  17.531  0.00  0.00    +0.000 OA
BRANCH   7   8
ATOM      8  C   UNL     1      48.082   3.420  17.066  0.00  0.00    +0.000 C 
BRANCH   8   9
ATOM      9  C   UNL     1      49.261   2.457  17.230  0.00  0.00    +0.000 C 
BRANCH   9  10
ATOM     10  N   UNL     1      49.589   1.796  15.965  0.00  0.00    +0.000 NA
ATOM     11  H   UNL     1      48.863   2.003  15.279  0.00  0.00    +0.000 HD
ATOM     12  H   UNL     1      49.578   0.784  16.092  0.00  0.00    +0.000 HD
ENDBRANCH   9  10
ENDBRANCH   8   9
ENDBRANCH   7   8
ENDBRANCH   1   7
BRANCH   5  13
ATOM     13  C   UNL     1      47.568   5.814  12.864  0.00  0.00    +0.000 C 
BRANCH  13  14
ATOM     14  N   UNL     1      46.186   6.069  12.477  0.00  0.00    +0.000 N 
ATOM     15  C   UNL     1      45.710   7.300  12.090  0.00  0.00    +0.000 A 
ATOM     16  C   UNL     1      44.432   7.134  11.606  0.00  0.00    +0.000 A 
ATOM     17  C   UNL     1      44.116   5.750  11.683  0.00  0.00    +0.000 A 
ATOM     18  C   UNL     1      42.998   4.987  11.318  0.00  0.00    +0.000 A 
ATOM     19  N   UNL     1      42.996   3.645  11.483  0.00  0.00    +0.000 NA
ATOM     20  C   UNL     1      44.086   3.054  12.006  0.00  0.00    +0.000 A 
ATOM     21  C   UNL     1      45.241   3.715  12.403  0.00  0.00    +0.000 A 
ATOM     22  C   UNL     1      45.231   5.101  12.227  0.00  0.00    +0.000 A 
ENDBRANCH  13  14
ENDBRANCH   5  13
TORSDOF 6
ENDMDL
MODEL 9
REMARK VINA RESULT:    -5.370      4.073      6.707
REMARK INTER + INTRA:          -7.664
REMARK INTER:                  -6.973
REMARK INTRA:                  -0.691
REMARK UNBOUND:                -0.567
REMARK  Name = 
REMARK  6 active torsions:
REMARK  status: ('A' for Active; 'I' for Inactive)
REMARK    1  A    between atoms: N_1  and  C_2
REMARK    2  A    between atoms: C_2  and  C_3
REMARK    3  A    between atoms: C_3  and  O_4
REMARK    4  A    between atoms: O_4  and  C_5
REMARK    5  A    between atoms: C_9  and  C_10
REMARK    6  A    between atoms: C_10  and  N_11
REMARK                            x       y       z     vdW  Elec       q    Type
REMARK                         _______ _______ _______ _____ _____    ______ ____
ROOT
ATOM      1  C   UNL     1      46.569   3.965  13.408  0.00  0.00    +0.000 A 
ATOM      2  C   UNL     1      45.589   3.433  12.568  0.00  0.00    +0.000 A 
ATOM      3  C   UNL     1      45.066   4.196  11.524  0.00  0.00    +0.000 A 
ATOM      4  C   UNL     1      45.490   5.509  11.335  0.00  0.00    +0.000 A 
ATOM      5  C   UNL     1      46.434   6.084  12.198  0.00  0.00    +0.000 A 
ATOM      6  C   UNL     1      47.001   5.282  13.206  0.00  0.00    +0.000 A 
ENDROOT
BRANCH   1   7
ATOM      7  O   UNL     1      47.152   3.308  14.463  0.00  0.00    +0.000 OA
BRANCH   7   8
ATOM      8  C   UNL     1      47.273   4.062  15.674  0.00  0.00    +0.000 C 
BRANCH   8   9
ATOM      9  C   UNL     1      47.753   3.153  16.809  0.00  0.00    +0.000 C 
BRANCH   9  10
ATOM     10  N   UNL     1      46.664   2.835  17.734  0.00  0.00    +0.000 NA
ATOM     11  H   UNL     1      45.791   2.760  17.213  0.00  0.00    +0.000 HD
ATOM     12  H   UNL     1      46.535   3.604  18.392  0.00  0.00    +0.000 HD
ENDBRANCH   9  10
ENDBRANCH   8   9
ENDBRANCH   7   8
ENDBRANCH   1   7
BRANCH   5  13
ATOM     13  C   UNL     1      46.738   7.558  12.117  0.00  0.00    +0.000 C 
BRANCH  13  14
ATOM     14  N   UNL     1      48.130   7.903  12.377  0.00  0.00    +0.000 N 
ATOM     15  C   UNL     1      49.128   7.839  11.433  0.00  0.00    +0.000 A 
ATOM     16  C   UNL     1      50.258   8.422  11.962  0.00  0.00    +0.000 A 
ATOM     17  C   UNL     1      49.939   8.873  13.271  0.00  0.00    +0.000 A 
ATOM     18  C   UNL     1      50.657   9.555  14.265  0.00  0.00    +0.000 A 
ATOM     19  N   UNL     1      50.066   9.891  15.434  0.00  0.00    +0.000 NA
ATOM     20  C   UNL     1      48.775   9.559  15.627  0.00  0.00    +0.000 A 
ATOM     21  C   UNL     1      47.978   8.884  14.713  0.00  0.00    +0.000 A 
ATOM     22  C   UNL     1      48.600   8.542  13.510  0.00  0.00    +0.000 A 
ENDBRANCH  13  14
ENDBRANCH   5  13
TORSDOF 6
ENDMDL
