MODEL 1
REMARK VINA RESULT:    -8.610      0.000      0.000
REMARK INTER + INTRA:         -12.731
REMARK INTER:                 -11.631
REMARK INTRA:                  -1.100
REMARK UNBOUND:                -1.100
REMARK  Name = 
REMARK  6 active torsions:
REMARK  status: ('A' for Active; 'I' for Inactive)
REMARK    1  A    between atoms: C_2  and  C_25
REMARK    2  A    between atoms: N_3  and  C_4
REMARK    3  A    between atoms: C_4  and  C_5
REMARK    4  A    between atoms: C_8  and  C_9
REMARK    5  A    between atoms: C_9  and  N_10
REMARK    6  A    between atoms: C_11  and  C_13
REMARK                            x       y       z     vdW  Elec       q    Type
REMARK                         _______ _______ _______ _____ _____    ______ ____
ROOT
ATOM      1  C   UNL     1      44.682   5.726  10.926  0.00  0.00    +0.000 A 
ATOM      2  C   UNL     1      46.034   5.944  10.624  0.00  0.00    +0.000 A 
ATOM      3  C   UNL     1      46.828   6.754  11.444  0.00  0.00    +0.000 A 
ATOM      4  C   UNL     1      46.294   7.349  12.593  0.00  0.00    +0.000 A 
ATOM      5  C   UNL     1      44.938   7.145  12.885  0.00  0.00    +0.000 A 
ATOM      6  C   UNL     1      44.144   6.333  12.069  0.00  0.00    +0.000 A 
ENDROOT
BRANCH   1   7
ATOM      7  C   UNL     1      43.835   4.836  10.055  0.00  0.00    +0.000 C 
BRANCH   7  10
ATOM      8  O   UNL     1      45.205   2.410  10.115  0.00  0.00    +0.000 OA
ATOM      9  C   UNL     1      45.232   3.081   9.087  0.00  0.00    +0.000 C 
ATOM     10  N   UNL     1      44.596   4.284   8.958  0.00  0.00    +0.000 N 
ATOM     11  H   UNL     1      44.619   4.800   8.091  0.00  0.00    +0.000 HD
BRANCH   9  12
ATOM     12  C   UNL     1      45.972   2.630   7.884  0.00  0.00    +0.000 C 
ATOM     13  C   UNL     1      46.100   3.391   6.787  0.00  0.00    +0.000 C 
ATOM     14  C   UNL     1      46.867   2.703   5.711  0.00  0.00    +0.000 C 
ATOM     15  C   UNL     1      47.419   1.463   6.413  0.00  0.00    +0.000 C 
ATOM     16  C   UNL     1      46.626   1.302   7.713  0.00  0.00    +0.000 C 
ENDBRANCH   9  12
ENDBRANCH   7  10
ENDBRANCH   1   7
BRANCH   4  17
ATOM     17  C   UNL     1      47.148   8.206  13.494  0.00  0.00    +0.000 C 
BRANCH  17  18
ATOM     18  N   UNL     1      47.566   7.491  14.672  0.00  0.00    +0.000 N 
ATOM     19  C   UNL     1      48.798   6.890  14.741  0.00  0.00    +0.000 C 
ATOM     20  O   UNL     1      49.618   6.979  13.829  0.00  0.00    +0.000 OA
ATOM     21  H   UNL     1      46.838   7.209  15.322  0.00  0.00    +0.000 HD
BRANCH  19  22
ATOM     22  C   UNL     1      49.115   6.186  15.991  0.00  0.00    +0.000 A 
ATOM     23  C   UNL     1      50.184   6.607  16.772  0.00  0.00    +0.000 A 
ATOM     24  S   UNL     1      50.375   5.711  18.210  0.00  0.00    +0.000 S 
ATOM     25  C   UNL     1      49.071   4.692  17.814  0.00  0.00    +0.000 A 
ATOM     26  N   UNL     1      48.710   3.668  18.633  0.00  0.00    +0.000 NA
ATOM     27  C   UNL     1      47.724   2.957  18.194  0.00  0.00    +0.000 A 
ATOM     28  N   UNL     1      47.063   3.183  17.014  0.00  0.00    +0.000 N 
ATOM     29  C   UNL     1      47.374   4.223  16.172  0.00  0.00    +0.000 A 
ATOM     30  O   UNL     1      46.734   4.422  15.144  0.00  0.00    +0.000 OA
ATOM     31  C   UNL     1      48.485   5.044  16.611  0.00  0.00    +0.000 A 
ATOM     32  H   UNL     1      46.293   2.596  16.732  0.00  0.00    +0.000 HD
ENDBRANCH  19  22
ENDBRANCH  17  18
ENDBRANCH   4  17
TORSDOF 6
ENDMDL
MODEL 2
REMARK VINA RESULT:    -7.839      1.382      1.467
REMARK INTER + INTRA:         -11.688
REMARK INTER:                 -10.667
REMARK INTRA:                  -1.021
REMARK UNBOUND:                -1.100
REMARK  Name = 
REMARK  6 active torsions:
REMARK  status: ('A' for Active; 'I' for Inactive)
REMARK    1  A    between atoms: C_2  and  C_25
REMARK    2  A    between atoms: N_3  and  C_4
REMARK    3  A    between atoms: C_4  and  C_5
REMARK    4  A    between atoms: C_8  and  C_9
REMARK    5  A    between atoms: C_9  and  N_10
REMARK    6  A    between atoms: C_11  and  C_13
REMARK                            x       y       z     vdW  Elec       q    Type
REMARK                         _______ _______ _______ _____ _____    ______ ____
ROOT
ATOM      1  C   UNL     1      44.866   6.095  11.264  0.00  0.00    +0.000 A 
ATOM      2  C   UNL     1      46.018   5.612  11.900  0.00  0.00    +0.000 A 
ATOM      3  C   UNL     1      46.836   6.469  12.646  0.00  0.00    +0.000 A 
ATOM      4  C   UNL     1      46.509   7.823  12.788  0.00  0.00    +0.000 A 
ATOM      5  C   UNL     1      45.367   8.310  12.137  0.00  0.00    +0.000 A 
ATOM      6  C   UNL     1      44.547   7.454  11.395  0.00  0.00    +0.000 A 
ENDROOT
BRANCH   1   7
ATOM      7  C   UNL     1      43.974   5.167  10.481  0.00  0.00    +0.000 C 
BRANCH   7  10
ATOM      8  O   UNL     1      44.878   2.532  10.397  0.00  0.00    +0.000 OA
ATOM      9  C   UNL     1      45.078   3.258   9.427  0.00  0.00    +0.000 C 
ATOM     10  N   UNL     1      44.678   4.565   9.372  0.00  0.00    +0.000 N 
ATOM     11  H   UNL     1      44.838   5.128   8.550  0.00  0.00    +0.000 HD
BRANCH   9  12
ATOM     12  C   UNL     1      45.784   2.766   8.220  0.00  0.00    +0.000 C 
ATOM     13  C   UNL     1      45.969   3.527   7.131  0.00  0.00    +0.000 C 
ATOM     14  C   UNL     1      46.684   2.794   6.048  0.00  0.00    +0.000 C 
ATOM     15  C   UNL     1      47.143   1.510   6.738  0.00  0.00    +0.000 C 
ATOM     16  C   UNL     1      46.339   1.395   8.036  0.00  0.00    +0.000 C 
ENDBRANCH   9  12
ENDBRANCH   7  10
ENDBRANCH   1   7
BRANCH   4  17
ATOM     17  C   UNL     1      47.373   8.750  13.607  0.00  0.00    +0.000 C 
BRANCH  17  18
ATOM     18  N   UNL     1      47.582   8.246  14.940  0.00  0.00    +0.000 N 
ATOM     19  C   UNL     1      48.752   8.483  15.617  0.00  0.00    +0.000 C 
ATOM     20  O   UNL     1      49.650   9.176  15.142  0.00  0.00    +0.000 OA
ATOM     21  H   UNL     1      46.973   7.494  15.248  0.00  0.00    +0.000 HD
BRANCH  19  22
ATOM     22  C   UNL     1      48.854   7.916  16.968  0.00  0.00    +0.000 A 
ATOM     23  C   UNL     1      49.131   8.746  18.048  0.00  0.00    +0.000 A 
ATOM     24  S   UNL     1      49.161   7.932  19.546  0.00  0.00    +0.000 S 
ATOM     25  C   UNL     1      48.860   6.432  18.800  0.00  0.00    +0.000 A 
ATOM     26  N   UNL     1      48.787   5.288  19.532  0.00  0.00    +0.000 NA
ATOM     27  C   UNL     1      48.585   4.220  18.834  0.00  0.00    +0.000 A 
ATOM     28  N   UNL     1      48.443   4.194  17.471  0.00  0.00    +0.000 N 
ATOM     29  C   UNL     1      48.479   5.327  16.695  0.00  0.00    +0.000 A 
ATOM     30  O   UNL     1      48.304   5.274  15.482  0.00  0.00    +0.000 OA
ATOM     31  C   UNL     1      48.718   6.554  17.429  0.00  0.00    +0.000 A 
ATOM     32  H   UNL     1      48.277   3.326  16.984  0.00  0.00    +0.000 HD
ENDBRANCH  19  22
ENDBRANCH  17  18
ENDBRANCH   4  17
TORSDOF 6
ENDMDL
MODEL 3
REMARK VINA RESULT:    -7.737      2.128      2.536
REMARK INTER + INTRA:         -11.551
REMARK INTER:                 -10.731
REMARK INTRA:                  -0.820
REMARK UNBOUND:                -1.100
REMARK  Name = 
REMARK  6 active torsions:
REMARK  status: ('A' for Active; 'I' for Inactive)
REMARK    1  A    between atoms: C_2  and  C_25
REMARK    2  A    between atoms: N_3  and  C_4
REMARK    3  A    between atoms: C_4  and  C_5
REMARK    4  A    between atoms: C_8  and  C_9
REMARK    5  A    between atoms: C_9  and  N_10
REMARK    6  A    between atoms: C_11  and  C_13
REMARK                            x       y       z     vdW  Elec       q    Type
REMARK                         _______ _______ _______ _____ _____    ______ ____
ROOT
ATOM      1  C   UNL     1      44.908   5.499  11.349  0.00  0.00    +0.000 A 
ATOM      2  C   UNL     1      44.865   6.898  11.422  0.00  0.00    +0.000 A 
ATOM      3  C   UNL     1      45.785   7.602  12.209  0.00  0.00    +0.000 A 
ATOM      4  C   UNL     1      46.779   6.923  12.925  0.00  0.00    +0.000 A 
ATOM      5  C   UNL     1      46.810   5.522  12.865  0.00  0.00    +0.000 A 
ATOM      6  C   UNL     1      45.894   4.819  12.077  0.00  0.00    +0.000 A 
ENDROOT
BRANCH   1   7
ATOM      7  C   UNL     1      43.932   4.744  10.484  0.00  0.00    +0.000 C 
BRANCH   7  10
ATOM      8  O   UNL     1      45.709   5.166   8.379  0.00  0.00    +0.000 OA
ATOM      9  C   UNL     1      45.448   4.013   8.712  0.00  0.00    +0.000 C 
ATOM     10  N   UNL     1      44.587   3.702   9.729  0.00  0.00    +0.000 N 
ATOM     11  H   UNL     1      44.411   2.743   9.992  0.00  0.00    +0.000 HD
BRANCH   9  12
ATOM     12  C   UNL     1      46.054   2.849   8.024  0.00  0.00    +0.000 C 
ATOM     13  C   UNL     1      46.829   2.976   6.937  0.00  0.00    +0.000 C 
ATOM     14  C   UNL     1      47.295   1.658   6.420  0.00  0.00    +0.000 C 
ATOM     15  C   UNL     1      46.883   0.685   7.523  0.00  0.00    +0.000 C 
ATOM     16  C   UNL     1      45.869   1.420   8.405  0.00  0.00    +0.000 C 
ENDBRANCH   9  12
ENDBRANCH   7  10
ENDBRANCH   1   7
BRANCH   4  17
ATOM     17  C   UNL     1      47.787   7.674  13.758  0.00  0.00    +0.000 C 
BRANCH  17  18
ATOM     18  N   UNL     1      47.841   7.176  15.109  0.00  0.00    +0.000 N 
ATOM     19  C   UNL     1      49.018   6.737  15.660  0.00  0.00    +0.000 C 
ATOM     20  O   UNL     1      50.085   6.797  15.052  0.00  0.00    +0.000 OA
ATOM     21  H   UNL     1      46.960   6.900  15.533  0.00  0.00    +0.000 HD
BRANCH  19  22
ATOM     22  C   UNL     1      48.951   6.247  17.044  0.00  0.00    +0.000 A 
ATOM     23  C   UNL     1      49.338   4.945  17.337  0.00  0.00    +0.000 A 
ATOM     24  S   UNL     1      49.247   4.561  18.996  0.00  0.00    +0.000 S 
ATOM     25  C   UNL     1      48.634   6.103  19.375  0.00  0.00    +0.000 A 
ATOM     26  N   UNL     1      48.310   6.432  20.655  0.00  0.00    +0.000 NA
ATOM     27  C   UNL     1      47.828   7.623  20.793  0.00  0.00    +0.000 A 
ATOM     28  N   UNL     1      47.647   8.515  19.769  0.00  0.00    +0.000 N 
ATOM     29  C   UNL     1      47.987   8.237  18.467  0.00  0.00    +0.000 A 
ATOM     30  O   UNL     1      47.852   9.075  17.581  0.00  0.00    +0.000 OA
ATOM     31  C   UNL     1      48.521   6.905  18.254  0.00  0.00    +0.000 A 
ATOM     32  H   UNL     1      47.273   9.436  19.944  0.00  0.00    +0.000 HD
ENDBRANCH  19  22
ENDBRANCH  17  18
ENDBRANCH   4  17
TORSDOF 6
ENDMDL
MODEL 4
REMARK VINA RESULT:    -6.796      3.416      4.794
REMARK INTER + INTRA:         -10.280
REMARK INTER:                  -9.168
REMARK INTRA:                  -1.113
REMARK UNBOUND:                -1.100
REMARK  Name = 
REMARK  6 active torsions:
REMARK  status: ('A' for Active; 'I' for Inactive)
REMARK    1  A    between atoms: C_2  and  C_25
REMARK    2  A    between atoms: N_3  and  C_4
REMARK    3  A    between atoms: C_4  and  C_5
REMARK    4  A    between atoms: C_8  and  C_9
REMARK    5  A    between atoms: C_9  and  N_10
REMARK    6  A    between atoms: C_11  and  C_13
REMARK                            x       y       z     vdW  Elec       q    Type
REMARK                         _______ _______ _______ _____ _____    ______ ____
ROOT
ATOM      1  C   UNL     1      45.333   6.349  11.705  0.00  0.00    +0.000 A 
ATOM      2  C   UNL     1      46.519   5.862  12.271  0.00  0.00    +0.000 A 
ATOM      3  C   UNL     1      47.336   6.695  13.046  0.00  0.00    +0.000 A 
ATOM      4  C   UNL     1      46.975   8.026  13.287  0.00  0.00    +0.000 A 
ATOM      5  C   UNL     1      45.797   8.517  12.706  0.00  0.00    +0.000 A 
ATOM      6  C   UNL     1      44.979   7.685  11.935  0.00  0.00    +0.000 A 
ENDROOT
BRANCH   1   7
ATOM      7  C   UNL     1      44.444   5.446  10.891  0.00  0.00    +0.000 C 
BRANCH   7  10
ATOM      8  O   UNL     1      43.836   2.916   9.892  0.00  0.00    +0.000 OA
ATOM      9  C   UNL     1      44.803   3.517   9.434  0.00  0.00    +0.000 C 
ATOM     10  N   UNL     1      45.186   4.760   9.859  0.00  0.00    +0.000 N 
ATOM     11  H   UNL     1      45.974   5.235   9.445  0.00  0.00    +0.000 HD
BRANCH   9  12
ATOM     12  C   UNL     1      45.649   2.930   8.367  0.00  0.00    +0.000 C 
ATOM     13  C   UNL     1      46.091   3.644   7.321  0.00  0.00    +0.000 C 
ATOM     14  C   UNL     1      46.900   2.820   6.379  0.00  0.00    +0.000 C 
ATOM     15  C   UNL     1      47.102   1.513   7.143  0.00  0.00    +0.000 C 
ATOM     16  C   UNL     1      46.084   1.507   8.286  0.00  0.00    +0.000 C 
ENDBRANCH   9  12
ENDBRANCH   7  10
ENDBRANCH   1   7
BRANCH   4  17
ATOM     17  C   UNL     1      47.837   8.925  14.138  0.00  0.00    +0.000 C 
BRANCH  17  18
ATOM     18  N   UNL     1      49.159   9.076  13.585  0.00  0.00    +0.000 N 
ATOM     19  C   UNL     1      50.258   8.543  14.209  0.00  0.00    +0.000 C 
ATOM     20  O   UNL     1      50.163   7.869  15.232  0.00  0.00    +0.000 OA
ATOM     21  H   UNL     1      49.287   9.809  12.893  0.00  0.00    +0.000 HD
BRANCH  19  22
ATOM     22  C   UNL     1      51.555   8.764  13.555  0.00  0.00    +0.000 A 
ATOM     23  C   UNL     1      52.587   9.378  14.253  0.00  0.00    +0.000 A 
ATOM     24  S   UNL     1      54.035   9.507  13.361  0.00  0.00    +0.000 S 
ATOM     25  C   UNL     1      53.319   8.797  11.990  0.00  0.00    +0.000 A 
ATOM     26  N   UNL     1      54.024   8.631  10.839  0.00  0.00    +0.000 NA
ATOM     27  C   UNL     1      53.347   8.109   9.870  0.00  0.00    +0.000 A 
ATOM     28  N   UNL     1      52.031   7.731   9.952  0.00  0.00    +0.000 N 
ATOM     29  C   UNL     1      51.290   7.852  11.102  0.00  0.00    +0.000 A 
ATOM     30  O   UNL     1      50.127   7.464  11.153  0.00  0.00    +0.000 OA
ATOM     31  C   UNL     1      51.999   8.448  12.217  0.00  0.00    +0.000 A 
ATOM     32  H   UNL     1      51.561   7.319   9.160  0.00  0.00    +0.000 HD
ENDBRANCH  19  22
ENDBRANCH  17  18
ENDBRANCH   4  17
TORSDOF 6
ENDMDL
MODEL 5
REMARK VINA RESULT:    -6.706      3.323      4.653
REMARK INTER + INTRA:         -10.158
REMARK INTER:                  -9.307
REMARK INTRA:                  -0.851
REMARK UNBOUND:                -1.100
REMARK  Name = 
REMARK  6 active torsions:
REMARK  status: ('A' for Active; 'I' for Inactive)
REMARK    1  A    between atoms: C_2  and  C_25
REMARK    2  A    between atoms: N_3  and  C_4
REMARK    3  A    between atoms: C_4  and  C_5
REMARK    4  A    between atoms: C_8  and  C_9
REMARK    5  A    between atoms: C_9  and  N_10
REMARK    6  A    between atoms: C_11  and  C_13
REMARK                            x       y       z     vdW  Elec       q    Type
REMARK                         _______ _______ _______ _____ _____    ______ ____
ROOT
ATOM      1  C   UNL     1      44.596   5.789  11.297  0.00  0.00    +0.000 A 
ATOM      2  C   UNL     1      44.684   7.174  11.098  0.00  0.00    +0.000 A 
ATOM      3  C   UNL     1      45.497   7.964  11.921  0.00  0.00    +0.000 A 
ATOM      4  C   UNL     1      46.253   7.384  12.946  0.00  0.00    +0.000 A 
ATOM      5  C   UNL     1      46.151   6.002  13.155  0.00  0.00    +0.000 A 
ATOM      6  C   UNL     1      45.343   5.211  12.333  0.00  0.00    +0.000 A 
ENDROOT
BRANCH   1   7
ATOM      7  C   UNL     1      43.739   4.937  10.398  0.00  0.00    +0.000 C 
BRANCH   7  10
ATOM      8  O   UNL     1      44.869   2.391  10.319  0.00  0.00    +0.000 OA
ATOM      9  C   UNL     1      45.011   3.132   9.351  0.00  0.00    +0.000 C 
ATOM     10  N   UNL     1      44.499   4.399   9.293  0.00  0.00    +0.000 N 
ATOM     11  H   UNL     1      44.615   4.974   8.472  0.00  0.00    +0.000 HD
BRANCH   9  12
ATOM     12  C   UNL     1      45.765   2.704   8.148  0.00  0.00    +0.000 C 
ATOM     13  C   UNL     1      45.920   3.493   7.075  0.00  0.00    +0.000 C 
ATOM     14  C   UNL     1      46.695   2.823   5.992  0.00  0.00    +0.000 C 
ATOM     15  C   UNL     1      47.221   1.559   6.669  0.00  0.00    +0.000 C 
ATOM     16  C   UNL     1      46.405   1.373   7.952  0.00  0.00    +0.000 C 
ENDBRANCH   9  12
ENDBRANCH   7  10
ENDBRANCH   1   7
BRANCH   4  17
ATOM     17  C   UNL     1      47.148   8.224  13.823  0.00  0.00    +0.000 C 
BRANCH  17  18
ATOM     18  N   UNL     1      48.400   8.524  13.177  0.00  0.00    +0.000 N 
ATOM     19  C   UNL     1      49.526   7.780  13.425  0.00  0.00    +0.000 C 
ATOM     20  O   UNL     1      49.508   6.797  14.162  0.00  0.00    +0.000 OA
ATOM     21  H   UNL     1      48.495   9.448  12.764  0.00  0.00    +0.000 HD
BRANCH  19  22
ATOM     22  C   UNL     1      50.747   8.181  12.712  0.00  0.00    +0.000 A 
ATOM     23  C   UNL     1      50.747   8.252  11.325  0.00  0.00    +0.000 A 
ATOM     24  S   UNL     1      52.228   8.784  10.667  0.00  0.00    +0.000 S 
ATOM     25  C   UNL     1      52.940   8.886  12.209  0.00  0.00    +0.000 A 
ATOM     26  N   UNL     1      54.237   9.266  12.358  0.00  0.00    +0.000 NA
ATOM     27  C   UNL     1      54.655   9.269  13.581  0.00  0.00    +0.000 A 
ATOM     28  N   UNL     1      53.891   8.933  14.668  0.00  0.00    +0.000 N 
ATOM     29  C   UNL     1      52.569   8.572  14.568  0.00  0.00    +0.000 A 
ATOM     30  O   UNL     1      51.901   8.320  15.566  0.00  0.00    +0.000 OA
ATOM     31  C   UNL     1      52.053   8.538  13.213  0.00  0.00    +0.000 A 
ATOM     32  H   UNL     1      54.275   8.965  15.600  0.00  0.00    +0.000 HD
ENDBRANCH  19  22
ENDBRANCH  17  18
ENDBRANCH   4  17
TORSDOF 6
ENDMDL
MODEL 6
REMARK VINA RESULT:    -6.704      4.716      7.352
REMARK INTER + INTRA:         -10.155
REMARK INTER:                  -9.241
REMARK INTRA:                  -0.914
REMARK UNBOUND:                -1.100
REMARK  Name = 
REMARK  6 active torsions:
REMARK  status: ('A' for Active; 'I' for Inactive)
REMARK    1  A    between atoms: C_2  and  C_25
REMARK    2  A    between atoms: N_3  and  C_4
REMARK    3  A    between atoms: C_4  and  C_5
REMARK    4  A    between atoms: C_8  and  C_9
REMARK    5  A    between atoms: C_9  and  N_10
REMARK    6  A    between atoms: C_11  and  C_13
REMARK                            x       y       z     vdW  Elec       q    Type
REMARK                         _______ _______ _______ _____ _____    ______ ____
ROOT
ATOM      1  C   UNL     1      50.308   8.883  11.441  0.00  0.00    +0.000 A 
ATOM      2  C   UNL     1      49.432   9.951  11.678  0.00  0.00    +0.000 A 
ATOM      3  C   UNL     1      48.149   9.724  12.191  0.00  0.00    +0.000 A 
ATOM      4  C   UNL     1      47.722   8.426  12.497  0.00  0.00    +0.000 A 
ATOM      5  C   UNL     1      48.593   7.356  12.244  0.00  0.00    +0.000 A 
ATOM      6  C   UNL     1      49.875   7.583  11.735  0.00  0.00    +0.000 A 
ENDROOT
BRANCH   1   7
ATOM      7  C   UNL     1      51.696   9.132  10.910  0.00  0.00    +0.000 C 
BRANCH   7  10
ATOM      8  O   UNL     1      52.787   9.059   8.347  0.00  0.00    +0.000 OA
ATOM      9  C   UNL     1      52.756   8.024   9.007  0.00  0.00    +0.000 C 
ATOM     10  N   UNL     1      52.239   7.955  10.272  0.00  0.00    +0.000 N 
ATOM     11  H   UNL     1      52.249   7.093  10.796  0.00  0.00    +0.000 HD
BRANCH   9  12
ATOM     12  C   UNL     1      53.284   6.746   8.474  0.00  0.00    +0.000 C 
ATOM     13  C   UNL     1      52.876   6.227   7.306  0.00  0.00    +0.000 C 
ATOM     14  C   UNL     1      53.539   4.927   7.006  0.00  0.00    +0.000 C 
ATOM     15  C   UNL     1      54.629   4.836   8.072  0.00  0.00    +0.000 C 
ATOM     16  C   UNL     1      54.282   5.868   9.148  0.00  0.00    +0.000 C 
ENDBRANCH   9  12
ENDBRANCH   7  10
ENDBRANCH   1   7
BRANCH   4  17
ATOM     17  C   UNL     1      46.350   8.173  13.070  0.00  0.00    +0.000 C 
BRANCH  17  18
ATOM     18  N   UNL     1      45.876   6.849  12.757  0.00  0.00    +0.000 N 
ATOM     19  C   UNL     1      44.949   6.640  11.767  0.00  0.00    +0.000 C 
ATOM     20  O   UNL     1      44.523   7.558  11.069  0.00  0.00    +0.000 OA
ATOM     21  H   UNL     1      46.027   6.129  13.457  0.00  0.00    +0.000 HD
BRANCH  19  22
ATOM     22  C   UNL     1      44.536   5.249  11.539  0.00  0.00    +0.000 A 
ATOM     23  C   UNL     1      43.810   4.573  12.512  0.00  0.00    +0.000 A 
ATOM     24  S   UNL     1      43.370   2.989  12.061  0.00  0.00    +0.000 S 
ATOM     25  C   UNL     1      44.182   3.128  10.572  0.00  0.00    +0.000 A 
ATOM     26  N   UNL     1      44.217   2.090   9.693  0.00  0.00    +0.000 NA
ATOM     27  C   UNL     1      44.894   2.324   8.618  0.00  0.00    +0.000 A 
ATOM     28  N   UNL     1      45.532   3.505   8.339  0.00  0.00    +0.000 N 
ATOM     29  C   UNL     1      45.498   4.589   9.182  0.00  0.00    +0.000 A 
ATOM     30  O   UNL     1      46.044   5.646   8.881  0.00  0.00    +0.000 OA
ATOM     31  C   UNL     1      44.763   4.374  10.413  0.00  0.00    +0.000 A 
ATOM     32  H   UNL     1      46.038   3.628   7.475  0.00  0.00    +0.000 HD
ENDBRANCH  19  22
ENDBRANCH  17  18
ENDBRANCH   4  17
TORSDOF 6
ENDMDL
MODEL 7
REMARK VINA RESULT:    -6.650      3.625      8.437
REMARK INTER + INTRA:         -10.083
REMARK INTER:                  -9.152
REMARK INTRA:                  -0.931
REMARK UNBOUND:                -1.100
REMARK  Name = 
REMARK  6 active torsions:
REMARK  status: ('A' for Active; 'I' for Inactive)
REMARK    1  A    between atoms: C_2  and  C_25
REMARK    2  A    between atoms: N_3  and  C_4
REMARK    3  A    between atoms: C_4  and  C_5
REMARK    4  A    between atoms: C_8  and  C_9
REMARK    5  A    between atoms: C_9  and  N_10
REMARK    6  A    between atoms: C_11  and  C_13
REMARK                            x       y       z     vdW  Elec       q    Type
REMARK                         _______ _______ _______ _____ _____    ______ ____
ROOT
ATOM      1  C   UNL     1      49.505   5.460  17.280  0.00  0.00    +0.000 A 
ATOM      2  C   UNL     1      48.296   5.110  16.664  0.00  0.00    +0.000 A 
ATOM      3  C   UNL     1      47.931   5.673  15.435  0.00  0.00    +0.000 A 
ATOM      4  C   UNL     1      48.775   6.582  14.787  0.00  0.00    +0.000 A 
ATOM      5  C   UNL     1      49.977   6.945  15.412  0.00  0.00    +0.000 A 
ATOM      6  C   UNL     1      50.344   6.381  16.638  0.00  0.00    +0.000 A 
ENDROOT
BRANCH   1   7
ATOM      7  C   UNL     1      49.907   4.837  18.592  0.00  0.00    +0.000 C 
BRANCH   7  10
ATOM      8  O   UNL     1      50.106   2.333  17.385  0.00  0.00    +0.000 OA
ATOM      9  C   UNL     1      51.119   2.849  17.850  0.00  0.00    +0.000 C 
ATOM     10  N   UNL     1      51.125   4.071  18.464  0.00  0.00    +0.000 N 
ATOM     11  H   UNL     1      51.980   4.476  18.817  0.00  0.00    +0.000 HD
BRANCH   9  12
ATOM     12  C   UNL     1      52.436   2.172  17.783  0.00  0.00    +0.000 C 
ATOM     13  C   UNL     1      52.560   0.840  17.681  0.00  0.00    +0.000 C 
ATOM     14  C   UNL     1      53.985   0.408  17.655  0.00  0.00    +0.000 C 
ATOM     15  C   UNL     1      54.747   1.724  17.506  0.00  0.00    +0.000 C 
ATOM     16  C   UNL     1      53.764   2.845  17.852  0.00  0.00    +0.000 C 
ENDBRANCH   9  12
ENDBRANCH   7  10
ENDBRANCH   1   7
BRANCH   4  17
ATOM     17  C   UNL     1      48.400   7.177  13.452  0.00  0.00    +0.000 C 
BRANCH  17  18
ATOM     18  N   UNL     1      47.625   6.259  12.657  0.00  0.00    +0.000 N 
ATOM     19  C   UNL     1      46.564   6.691  11.902  0.00  0.00    +0.000 C 
ATOM     20  O   UNL     1      46.260   7.880  11.825  0.00  0.00    +0.000 OA
ATOM     21  H   UNL     1      47.704   5.273  12.886  0.00  0.00    +0.000 HD
BRANCH  19  22
ATOM     22  C   UNL     1      45.844   5.665  11.135  0.00  0.00    +0.000 A 
ATOM     23  C   UNL     1      45.918   5.658   9.748  0.00  0.00    +0.000 A 
ATOM     24  S   UNL     1      45.068   4.369   9.024  0.00  0.00    +0.000 S 
ATOM     25  C   UNL     1      44.524   3.806  10.535  0.00  0.00    +0.000 A 
ATOM     26  N   UNL     1      43.711   2.720  10.626  0.00  0.00    +0.000 NA
ATOM     27  C   UNL     1      43.350   2.423  11.831  0.00  0.00    +0.000 A 
ATOM     28  N   UNL     1      43.735   3.111  12.953  0.00  0.00    +0.000 N 
ATOM     29  C   UNL     1      44.579   4.195  12.911  0.00  0.00    +0.000 A 
ATOM     30  O   UNL     1      44.938   4.761  13.938  0.00  0.00    +0.000 OA
ATOM     31  C   UNL     1      45.002   4.579  11.578  0.00  0.00    +0.000 A 
ATOM     32  H   UNL     1      43.426   2.822  13.868  0.00  0.00    +0.000 HD
ENDBRANCH  19  22
ENDBRANCH  17  18
ENDBRANCH   4  17
TORSDOF 6
ENDMDL
MODEL 8
REMARK VINA RESULT:    -6.361      2.003      3.000
REMARK INTER + INTRA:          -9.693
REMARK INTER:                  -8.665
REMARK INTRA:                  -1.027
REMARK UNBOUND:                -1.100
REMARK  Name = 
REMARK  6 active torsions:
REMARK  status: ('A' for Active; 'I' for Inactive)
REMARK    1  A    between atoms: C_2  and  C_25
REMARK    2  A    between atoms: N_3  and  C_4
REMARK    3  A    between atoms: C_4  and  C_5
REMARK    4  A    between atoms: C_8  and  C_9
REMARK    5  A    between atoms: C_9  and  N_10
REMARK    6  A    between atoms: C_11  and  C_13
REMARK                            x       y       z     vdW  Elec       q    Type
REMARK                         _______ _______ _______ _____ _____    ______ ____
ROOT
ATOM      1  C   UNL     1      46.503   7.673  12.274  0.00  0.00    +0.000 A 
ATOM      2  C   UNL     1      46.616   8.509  13.393  0.00  0.00    +0.000 A 
ATOM      3  C   UNL     1      47.850   8.685  14.032  0.00  0.00    +0.000 A 
ATOM      4  C   UNL     1      49.000   8.046  13.554  0.00  0.00    +0.000 A 
ATOM      5  C   UNL     1      48.883   7.196  12.445  0.00  0.00    +0.000 A 
ATOM      6  C   UNL     1      47.652   7.022  11.804  0.00  0.00    +0.000 A 
ENDROOT
BRANCH   1   7
ATOM      7  C   UNL     1      45.181   7.502  11.573  0.00  0.00    +0.000 C 
BRANCH   7  10
ATOM      8  O   UNL     1      44.260   4.924  12.097  0.00  0.00    +0.000 OA
ATOM      9  C   UNL     1      44.732   5.171  10.991  0.00  0.00    +0.000 C 
ATOM     10  N   UNL     1      45.213   6.402  10.637  0.00  0.00    +0.000 N 
ATOM     11  H   UNL     1      45.575   6.577   9.712  0.00  0.00    +0.000 HD
BRANCH   9  12
ATOM     12  C   UNL     1      44.822   4.135   9.934  0.00  0.00    +0.000 C 
ATOM     13  C   UNL     1      45.340   4.382   8.722  0.00  0.00    +0.000 C 
ATOM     14  C   UNL     1      45.294   3.185   7.836  0.00  0.00    +0.000 C 
ATOM     15  C   UNL     1      44.883   2.062   8.786  0.00  0.00    +0.000 C 
ATOM     16  C   UNL     1      44.336   2.731  10.050  0.00  0.00    +0.000 C 
ENDBRANCH   9  12
ENDBRANCH   7  10
ENDBRANCH   1   7
BRANCH   4  17
ATOM     17  C   UNL     1      50.337   8.247  14.224  0.00  0.00    +0.000 C 
BRANCH  17  18
ATOM     18  N   UNL     1      50.321   7.799  15.593  0.00  0.00    +0.000 N 
ATOM     19  C   UNL     1      51.411   7.181  16.153  0.00  0.00    +0.000 C 
ATOM     20  O   UNL     1      52.463   7.030  15.536  0.00  0.00    +0.000 OA
ATOM     21  H   UNL     1      49.411   7.699  16.034  0.00  0.00    +0.000 HD
BRANCH  19  22
ATOM     22  C   UNL     1      51.279   6.764  17.556  0.00  0.00    +0.000 A 
ATOM     23  C   UNL     1      52.173   7.239  18.507  0.00  0.00    +0.000 A 
ATOM     24  S   UNL     1      51.842   6.696  20.089  0.00  0.00    +0.000 S 
ATOM     25  C   UNL     1      50.524   5.764  19.552  0.00  0.00    +0.000 A 
ATOM     26  N   UNL     1      49.798   5.010  20.422  0.00  0.00    +0.000 NA
ATOM     27  C   UNL     1      48.847   4.329  19.873  0.00  0.00    +0.000 A 
ATOM     28  N   UNL     1      48.553   4.339  18.535  0.00  0.00    +0.000 N 
ATOM     29  C   UNL     1      49.238   5.106  17.625  0.00  0.00    +0.000 A 
ATOM     30  O   UNL     1      48.920   5.125  16.440  0.00  0.00    +0.000 OA
ATOM     31  C   UNL     1      50.327   5.881  18.188  0.00  0.00    +0.000 A 
ATOM     32  H   UNL     1      47.789   3.790  18.169  0.00  0.00    +0.000 HD
ENDBRANCH  19  22
ENDBRANCH  17  18
ENDBRANCH   4  17
TORSDOF 6
ENDMDL
MODEL 9
REMARK VINA RESULT:    -6.026      2.985      4.462
REMARK INTER + INTRA:          -9.240
REMARK INTER:                  -8.212
REMARK INTRA:                  -1.027
REMARK UNBOUND:                -1.100
REMARK  Name = 
REMARK  6 active torsions:
REMARK  status: ('A' for Active; 'I' for Inactive)
REMARK    1  A    between atoms: C_2  and  C_25
REMARK    2  A    between atoms: N_3  and  C_4
REMARK    3  A    between atoms: C_4  and  C_5
REMARK    4  A    between atoms: C_8  and  C_9
REMARK    5  A    between atoms: C_9  and  N_10
REMARK    6  A    between atoms: C_11  and  C_13
REMARK                            x       y       z     vdW  Elec       q    Type
REMARK                         _______ _______ _______ _____ _____    ______ ____
ROOT
ATOM      1  C   UNL     1      47.826   7.572  13.146  0.00  0.00    +0.000 A 
ATOM      2  C   UNL     1      48.029   6.386  13.864  0.00  0.00    +0.000 A 
ATOM      3  C   UNL     1      48.567   6.415  15.156  0.00  0.00    +0.000 A 
ATOM      4  C   UNL     1      48.894   7.633  15.766  0.00  0.00    +0.000 A 
ATOM      5  C   UNL     1      48.707   8.818  15.041  0.00  0.00    +0.000 A 
ATOM      6  C   UNL     1      48.167   8.789  13.751  0.00  0.00    +0.000 A 
ENDROOT
BRANCH   1   7
ATOM      7  C   UNL     1      47.227   7.540  11.764  0.00  0.00    +0.000 C 
BRANCH   7  10
ATOM      8  O   UNL     1      44.467   7.289  11.462  0.00  0.00    +0.000 OA
ATOM      9  C   UNL     1      45.167   6.283  11.380  0.00  0.00    +0.000 C 
ATOM     10  N   UNL     1      46.527   6.301  11.517  0.00  0.00    +0.000 N 
ATOM     11  H   UNL     1      47.074   5.458  11.421  0.00  0.00    +0.000 HD
BRANCH   9  12
ATOM     12  C   UNL     1      44.578   4.947  11.124  0.00  0.00    +0.000 C 
ATOM     13  C   UNL     1      44.970   4.169  10.104  0.00  0.00    +0.000 C 
ATOM     14  C   UNL     1      44.210   2.888  10.049  0.00  0.00    +0.000 C 
ATOM     15  C   UNL     1      43.439   2.882  11.368  0.00  0.00    +0.000 C 
ATOM     16  C   UNL     1      43.484   4.313  11.912  0.00  0.00    +0.000 C 
ENDBRANCH   9  12
ENDBRANCH   7  10
ENDBRANCH   1   7
BRANCH   4  17
ATOM     17  C   UNL     1      49.454   7.676  17.166  0.00  0.00    +0.000 C 
BRANCH  17  18
ATOM     18  N   UNL     1      50.383   6.601  17.403  0.00  0.00    +0.000 N 
ATOM     19  C   UNL     1      50.494   6.014  18.639  0.00  0.00    +0.000 C 
ATOM     20  O   UNL     1      49.774   6.339  19.581  0.00  0.00    +0.000 OA
ATOM     21  H   UNL     1      51.133   6.483  16.728  0.00  0.00    +0.000 HD
BRANCH  19  22
ATOM     22  C   UNL     1      51.478   4.931  18.764  0.00  0.00    +0.000 A 
ATOM     23  C   UNL     1      52.641   5.132  19.496  0.00  0.00    +0.000 A 
ATOM     24  S   UNL     1      53.644   3.755  19.581  0.00  0.00    +0.000 S 
ATOM     25  C   UNL     1      52.586   2.857  18.596  0.00  0.00    +0.000 A 
ATOM     26  N   UNL     1      52.872   1.572  18.251  0.00  0.00    +0.000 NA
ATOM     27  C   UNL     1      51.999   1.022  17.474  0.00  0.00    +0.000 A 
ATOM     28  N   UNL     1      50.862   1.637  17.018  0.00  0.00    +0.000 N 
ATOM     29  C   UNL     1      50.518   2.921  17.365  0.00  0.00    +0.000 A 
ATOM     30  O   UNL     1      49.471   3.427  16.974  0.00  0.00    +0.000 OA
ATOM     31  C   UNL     1      51.474   3.591  18.225  0.00  0.00    +0.000 A 
ATOM     32  H   UNL     1      50.213   1.148  16.420  0.00  0.00    +0.000 HD
ENDBRANCH  19  22
ENDBRANCH  17  18
ENDBRANCH   4  17
TORSDOF 6
ENDMDL
