MODEL 1
REMARK VINA RESULT:    -8.152      0.000      0.000
REMARK INTER + INTRA:         -12.089
REMARK INTER:                 -11.012
REMARK INTRA:                  -1.077
REMARK UNBOUND:                -1.077
REMARK  Name = 
REMARK  7 active torsions:
REMARK  status: ('A' for Active; 'I' for Inactive)
REMARK    1  A    between atoms: C_1  and  C_2
REMARK    2  A    between atoms: C_6  and  C_7
REMARK    3  A    between atoms: N_9  and  C_10
REMARK    4  A    between atoms: C_10  and  C_11
REMARK    5  A    between atoms: C_14  and  C_15
REMARK    6  A    between atoms: C_15  and  N_16
REMARK    7  A    between atoms: C_17  and  C_19
REMARK                            x       y       z     vdW  Elec       q    Type
REMARK                         _______ _______ _______ _____ _____    ______ ____
ROOT
ATOM      1  C   UNL     1      45.273   6.600  11.501  0.00  0.00    +0.000 A 
ATOM      2  C   UNL     1      46.568   6.154  11.800  0.00  0.00    +0.000 A 
ATOM      3  C   UNL     1      47.414   6.895  12.641  0.00  0.00    +0.000 A 
ATOM      4  C   UNL     1      46.980   8.092  13.225  0.00  0.00    +0.000 A 
ATOM      5  C   UNL     1      45.694   8.552  12.908  0.00  0.00    +0.000 A 
ATOM      6  C   UNL     1      44.846   7.808  12.071  0.00  0.00    +0.000 A 
ENDROOT
BRANCH   1   7
ATOM      7  C   UNL     1      44.380   5.816  10.566  0.00  0.00    +0.000 C 
BRANCH   7  10
ATOM      8  C   UNL     1      44.805   3.696   9.356  0.00  0.00    +0.000 C 
ATOM      9  O   UNL     1      43.927   3.080   9.944  0.00  0.00    +0.000 OA
ATOM     10  N   UNL     1      45.105   5.027   9.598  0.00  0.00    +0.000 N 
ATOM     11  H   UNL     1      45.839   5.441   9.032  0.00  0.00    +0.000 HD
BRANCH   8  17
ATOM     12  C   UNL     1      46.779  -0.397   7.652  0.00  0.00    +0.000 C 
ATOM     13  C   UNL     1      46.589   1.080   7.486  0.00  0.00    +0.000 A 
ATOM     14  C   UNL     1      47.165   1.759   6.415  0.00  0.00    +0.000 A 
ATOM     15  C   UNL     1      46.968   3.133   6.304  0.00  0.00    +0.000 A 
ATOM     16  C   UNL     1      46.199   3.789   7.259  0.00  0.00    +0.000 A 
ATOM     17  C   UNL     1      45.653   3.042   8.296  0.00  0.00    +0.000 A 
ATOM     18  N   UNL     1      45.837   1.698   8.429  0.00  0.00    +0.000 NA
ENDBRANCH   8  17
ENDBRANCH   7  10
ENDBRANCH   1   7
BRANCH   4  19
ATOM     19  C   UNL     1      47.868   8.852  14.183  0.00  0.00    +0.000 C 
BRANCH  19  20
ATOM     20  N   UNL     1      48.172   8.098  15.375  0.00  0.00    +0.000 N 
ATOM     21  C   UNL     1      49.406   7.521  15.564  0.00  0.00    +0.000 C 
ATOM     22  O   UNL     1      50.327   7.663  14.765  0.00  0.00    +0.000 OA
ATOM     23  H   UNL     1      47.384   7.773  15.924  0.00  0.00    +0.000 HD
BRANCH  21  24
ATOM     24  C   UNL     1      49.587   6.763  16.810  0.00  0.00    +0.000 A 
ATOM     25  C   UNL     1      50.410   7.255  17.816  0.00  0.00    +0.000 A 
ATOM     26  S   UNL     1      50.477   6.253  19.196  0.00  0.00    +0.000 S 
ATOM     27  C   UNL     1      49.441   5.107  18.483  0.00  0.00    +0.000 A 
ATOM     28  N   UNL     1      49.102   3.964  19.139  0.00  0.00    +0.000 NA
ATOM     29  C   UNL     1      48.320   3.181  18.472  0.00  0.00    +0.000 A 
ATOM     30  N   UNL     1      47.844   3.437  17.215  0.00  0.00    +0.000 N 
ATOM     31  C   UNL     1      48.143   4.586  16.523  0.00  0.00    +0.000 A 
ATOM     32  O   UNL     1      47.664   4.805  15.416  0.00  0.00    +0.000 OA
ATOM     33  C   UNL     1      49.030   5.497  17.220  0.00  0.00    +0.000 A 
ATOM     34  H   UNL     1      47.219   2.794  16.752  0.00  0.00    +0.000 HD
ENDBRANCH  21  24
ENDBRANCH  19  20
ENDBRANCH   4  19
TORSDOF 6
ENDMDL
MODEL 2
REMARK VINA RESULT:    -7.486      5.033      9.970
REMARK INTER + INTRA:         -11.189
REMARK INTER:                 -10.369
REMARK INTRA:                  -0.821
REMARK UNBOUND:                -1.077
REMARK  Name = 
REMARK  7 active torsions:
REMARK  status: ('A' for Active; 'I' for Inactive)
REMARK    1  A    between atoms: C_1  and  C_2
REMARK    2  A    between atoms: C_6  and  C_7
REMARK    3  A    between atoms: N_9  and  C_10
REMARK    4  A    between atoms: C_10  and  C_11
REMARK    5  A    between atoms: C_14  and  C_15
REMARK    6  A    between atoms: C_15  and  N_16
REMARK    7  A    between atoms: C_17  and  C_19
REMARK                            x       y       z     vdW  Elec       q    Type
REMARK                         _______ _______ _______ _____ _____    ______ ____
ROOT
ATOM      1  C   UNL     1      51.419   2.817  17.762  0.00  0.00    +0.000 A 
ATOM      2  C   UNL     1      50.835   4.049  18.090  0.00  0.00    +0.000 A 
ATOM      3  C   UNL     1      49.487   4.313  17.794  0.00  0.00    +0.000 A 
ATOM      4  C   UNL     1      48.681   3.344  17.183  0.00  0.00    +0.000 A 
ATOM      5  C   UNL     1      49.270   2.121  16.832  0.00  0.00    +0.000 A 
ATOM      6  C   UNL     1      50.616   1.855  17.133  0.00  0.00    +0.000 A 
ENDROOT
BRANCH   1   7
ATOM      7  C   UNL     1      52.880   2.551  18.052  0.00  0.00    +0.000 C 
BRANCH   7  10
ATOM      8  C   UNL     1      54.163   0.474  17.633  0.00  0.00    +0.000 C 
ATOM      9  O   UNL     1      54.848   0.969  16.748  0.00  0.00    +0.000 OA
ATOM     10  N   UNL     1      53.174   1.163  18.317  0.00  0.00    +0.000 N 
ATOM     11  H   UNL     1      52.685   0.656  19.049  0.00  0.00    +0.000 HD
BRANCH   8  17
ATOM     12  C   UNL     1      52.869  -3.073  20.683  0.00  0.00    +0.000 C 
ATOM     13  C   UNL     1      53.715  -2.651  19.520  0.00  0.00    +0.000 A 
ATOM     14  C   UNL     1      54.585  -3.548  18.906  0.00  0.00    +0.000 A 
ATOM     15  C   UNL     1      55.357  -3.110  17.833  0.00  0.00    +0.000 A 
ATOM     16  C   UNL     1      55.236  -1.794  17.400  0.00  0.00    +0.000 A 
ATOM     17  C   UNL     1      54.343  -0.960  18.061  0.00  0.00    +0.000 A 
ATOM     18  N   UNL     1      53.581  -1.363  19.117  0.00  0.00    +0.000 NA
ENDBRANCH   8  17
ENDBRANCH   7  10
ENDBRANCH   1   7
BRANCH   4  19
ATOM     19  C   UNL     1      47.214   3.607  16.927  0.00  0.00    +0.000 C 
BRANCH  19  20
ATOM     20  N   UNL     1      47.000   4.606  15.909  0.00  0.00    +0.000 N 
ATOM     21  C   UNL     1      47.076   4.297  14.571  0.00  0.00    +0.000 C 
ATOM     22  O   UNL     1      47.270   3.151  14.173  0.00  0.00    +0.000 OA
ATOM     23  H   UNL     1      47.072   5.576  16.198  0.00  0.00    +0.000 HD
BRANCH  21  24
ATOM     24  C   UNL     1      46.857   5.405  13.631  0.00  0.00    +0.000 A 
ATOM     25  C   UNL     1      47.895   6.274  13.319  0.00  0.00    +0.000 A 
ATOM     26  S   UNL     1      47.460   7.480  12.191  0.00  0.00    +0.000 S 
ATOM     27  C   UNL     1      45.860   6.909  12.113  0.00  0.00    +0.000 A 
ATOM     28  N   UNL     1      44.932   7.524  11.330  0.00  0.00    +0.000 NA
ATOM     29  C   UNL     1      43.756   6.990  11.379  0.00  0.00    +0.000 A 
ATOM     30  N   UNL     1      43.425   5.897  12.133  0.00  0.00    +0.000 N 
ATOM     31  C   UNL     1      44.332   5.231  12.921  0.00  0.00    +0.000 A 
ATOM     32  O   UNL     1      44.013   4.228  13.550  0.00  0.00    +0.000 OA
ATOM     33  C   UNL     1      45.668   5.798  12.915  0.00  0.00    +0.000 A 
ATOM     34  H   UNL     1      42.493   5.513  12.114  0.00  0.00    +0.000 HD
ENDBRANCH  21  24
ENDBRANCH  19  20
ENDBRANCH   4  19
TORSDOF 6
ENDMDL
MODEL 3
REMARK VINA RESULT:    -7.376      1.318      1.614
REMARK INTER + INTRA:         -11.040
REMARK INTER:                 -10.188
REMARK INTRA:                  -0.852
REMARK UNBOUND:                -1.077
REMARK  Name = 
REMARK  7 active torsions:
REMARK  status: ('A' for Active; 'I' for Inactive)
REMARK    1  A    between atoms: C_1  and  C_2
REMARK    2  A    between atoms: C_6  and  C_7
REMARK    3  A    between atoms: N_9  and  C_10
REMARK    4  A    between atoms: C_10  and  C_11
REMARK    5  A    between atoms: C_14  and  C_15
REMARK    6  A    between atoms: C_15  and  N_16
REMARK    7  A    between atoms: C_17  and  C_19
REMARK                            x       y       z     vdW  Elec       q    Type
REMARK                         _______ _______ _______ _____ _____    ______ ____
ROOT
ATOM      1  C   UNL     1      45.547   4.938  12.189  0.00  0.00    +0.000 A 
ATOM      2  C   UNL     1      45.552   6.281  11.785  0.00  0.00    +0.000 A 
ATOM      3  C   UNL     1      46.363   7.228  12.432  0.00  0.00    +0.000 A 
ATOM      4  C   UNL     1      47.207   6.854  13.485  0.00  0.00    +0.000 A 
ATOM      5  C   UNL     1      47.184   5.517  13.907  0.00  0.00    +0.000 A 
ATOM      6  C   UNL     1      46.377   4.569  13.256  0.00  0.00    +0.000 A 
ENDROOT
BRANCH   1   7
ATOM      7  C   UNL     1      44.645   3.930  11.512  0.00  0.00    +0.000 C 
BRANCH   7  10
ATOM      8  C   UNL     1      45.200   3.847   9.099  0.00  0.00    +0.000 C 
ATOM      9  O   UNL     1      44.633   4.901   8.841  0.00  0.00    +0.000 OA
ATOM     10  N   UNL     1      45.249   3.290  10.367  0.00  0.00    +0.000 N 
ATOM     11  H   UNL     1      45.769   2.424  10.466  0.00  0.00    +0.000 HD
BRANCH   8  17
ATOM     12  C   UNL     1      46.763  -0.499   7.609  0.00  0.00    +0.000 C 
ATOM     13  C   UNL     1      46.645   0.967   7.326  0.00  0.00    +0.000 A 
ATOM     14  C   UNL     1      47.157   1.512   6.151  0.00  0.00    +0.000 A 
ATOM     15  C   UNL     1      47.031   2.882   5.932  0.00  0.00    +0.000 A 
ATOM     16  C   UNL     1      46.394   3.667   6.888  0.00  0.00    +0.000 A 
ATOM     17  C   UNL     1      45.905   3.050   8.032  0.00  0.00    +0.000 A 
ATOM     18  N   UNL     1      46.022   1.713   8.271  0.00  0.00    +0.000 NA
ENDBRANCH   8  17
ENDBRANCH   7  10
ENDBRANCH   1   7
BRANCH   4  19
ATOM     19  C   UNL     1      48.127   7.863  14.135  0.00  0.00    +0.000 C 
BRANCH  19  20
ATOM     20  N   UNL     1      48.231   7.681  15.562  0.00  0.00    +0.000 N 
ATOM     21  C   UNL     1      49.329   7.081  16.132  0.00  0.00    +0.000 C 
ATOM     22  O   UNL     1      50.300   6.724  15.469  0.00  0.00    +0.000 OA
ATOM     23  H   UNL     1      47.370   7.747  16.095  0.00  0.00    +0.000 HD
BRANCH  21  24
ATOM     24  C   UNL     1      49.309   6.937  17.593  0.00  0.00    +0.000 A 
ATOM     25  C   UNL     1      49.577   8.030  18.409  0.00  0.00    +0.000 A 
ATOM     26  S   UNL     1      49.481   7.678  20.076  0.00  0.00    +0.000 S 
ATOM     27  C   UNL     1      49.119   6.045  19.769  0.00  0.00    +0.000 A 
ATOM     28  N   UNL     1      48.936   5.162  20.788  0.00  0.00    +0.000 NA
ATOM     29  C   UNL     1      48.680   3.954  20.406  0.00  0.00    +0.000 A 
ATOM     30  N   UNL     1      48.587   3.551  19.102  0.00  0.00    +0.000 N 
ATOM     31  C   UNL     1      48.743   4.410  18.040  0.00  0.00    +0.000 A 
ATOM     32  O   UNL     1      48.609   4.024  16.885  0.00  0.00    +0.000 OA
ATOM     33  C   UNL     1      49.047   5.779  18.412  0.00  0.00    +0.000 A 
ATOM     34  H   UNL     1      48.364   2.595  18.866  0.00  0.00    +0.000 HD
ENDBRANCH  21  24
ENDBRANCH  19  20
ENDBRANCH   4  19
TORSDOF 6
ENDMDL
MODEL 4
REMARK VINA RESULT:    -7.255      3.818      5.101
REMARK INTER + INTRA:         -10.877
REMARK INTER:                  -9.888
REMARK INTRA:                  -0.990
REMARK UNBOUND:                -1.077
REMARK  Name = 
REMARK  7 active torsions:
REMARK  status: ('A' for Active; 'I' for Inactive)
REMARK    1  A    between atoms: C_1  and  C_2
REMARK    2  A    between atoms: C_6  and  C_7
REMARK    3  A    between atoms: N_9  and  C_10
REMARK    4  A    between atoms: C_10  and  C_11
REMARK    5  A    between atoms: C_14  and  C_15
REMARK    6  A    between atoms: C_15  and  N_16
REMARK    7  A    between atoms: C_17  and  C_19
REMARK                            x       y       z     vdW  Elec       q    Type
REMARK                         _______ _______ _______ _____ _____    ______ ____
ROOT
ATOM      1  C   UNL     1      45.088   4.972  12.273  0.00  0.00    +0.000 A 
ATOM      2  C   UNL     1      44.358   6.147  12.045  0.00  0.00    +0.000 A 
ATOM      3  C   UNL     1      44.842   7.395  12.472  0.00  0.00    +0.000 A 
ATOM      4  C   UNL     1      46.079   7.504  13.119  0.00  0.00    +0.000 A 
ATOM      5  C   UNL     1      46.798   6.328  13.371  0.00  0.00    +0.000 A 
ATOM      6  C   UNL     1      46.317   5.080  12.938  0.00  0.00    +0.000 A 
ENDROOT
BRANCH   1   7
ATOM      7  C   UNL     1      44.545   3.628  11.842  0.00  0.00    +0.000 C 
BRANCH   7  10
ATOM      8  C   UNL     1      44.933   3.521   9.398  0.00  0.00    +0.000 C 
ATOM      9  O   UNL     1      44.105   4.383   9.138  0.00  0.00    +0.000 OA
ATOM     10  N   UNL     1      45.209   3.081  10.682  0.00  0.00    +0.000 N 
ATOM     11  H   UNL     1      45.934   2.377  10.779  0.00  0.00    +0.000 HD
BRANCH   8  17
ATOM     12  C   UNL     1      46.792  -0.607   7.650  0.00  0.00    +0.000 C 
ATOM     13  C   UNL     1      46.621   0.872   7.485  0.00  0.00    +0.000 A 
ATOM     14  C   UNL     1      47.176   1.539   6.395  0.00  0.00    +0.000 A 
ATOM     15  C   UNL     1      46.997   2.916   6.285  0.00  0.00    +0.000 A 
ATOM     16  C   UNL     1      46.266   3.587   7.261  0.00  0.00    +0.000 A 
ATOM     17  C   UNL     1      45.740   2.851   8.315  0.00  0.00    +0.000 A 
ATOM     18  N   UNL     1      45.906   1.505   8.447  0.00  0.00    +0.000 NA
ENDBRANCH   8  17
ENDBRANCH   7  10
ENDBRANCH   1   7
BRANCH   4  19
ATOM     19  C   UNL     1      46.627   8.856  13.517  0.00  0.00    +0.000 C 
BRANCH  19  20
ATOM     20  N   UNL     1      47.928   9.116  12.951  0.00  0.00    +0.000 N 
ATOM     21  C   UNL     1      48.094   9.991  11.904  0.00  0.00    +0.000 C 
ATOM     22  O   UNL     1      47.161  10.639  11.436  0.00  0.00    +0.000 OA
ATOM     23  H   UNL     1      48.657   8.440  13.152  0.00  0.00    +0.000 HD
BRANCH  21  24
ATOM     24  C   UNL     1      49.465  10.157  11.403  0.00  0.00    +0.000 A 
ATOM     25  C   UNL     1      49.943  11.421  11.076  0.00  0.00    +0.000 A 
ATOM     26  S   UNL     1      51.563  11.420  10.539  0.00  0.00    +0.000 S 
ATOM     27  C   UNL     1      51.670   9.729  10.683  0.00  0.00    +0.000 A 
ATOM     28  N   UNL     1      52.810   9.066  10.350  0.00  0.00    +0.000 NA
ATOM     29  C   UNL     1      52.744   7.784  10.498  0.00  0.00    +0.000 A 
ATOM     30  N   UNL     1      51.645   7.107  10.952  0.00  0.00    +0.000 N 
ATOM     31  C   UNL     1      50.479   7.734  11.320  0.00  0.00    +0.000 A 
ATOM     32  O   UNL     1      49.528   7.101  11.765  0.00  0.00    +0.000 OA
ATOM     33  C   UNL     1      50.494   9.176  11.160  0.00  0.00    +0.000 A 
ATOM     34  H   UNL     1      51.660   6.104  11.065  0.00  0.00    +0.000 HD
ENDBRANCH  21  24
ENDBRANCH  19  20
ENDBRANCH   4  19
TORSDOF 6
ENDMDL
MODEL 5
REMARK VINA RESULT:    -6.935      1.934      2.728
REMARK INTER + INTRA:         -10.444
REMARK INTER:                  -9.486
REMARK INTRA:                  -0.958
REMARK UNBOUND:                -1.077
REMARK  Name = 
REMARK  7 active torsions:
REMARK  status: ('A' for Active; 'I' for Inactive)
REMARK    1  A    between atoms: C_1  and  C_2
REMARK    2  A    between atoms: C_6  and  C_7
REMARK    3  A    between atoms: N_9  and  C_10
REMARK    4  A    between atoms: C_10  and  C_11
REMARK    5  A    between atoms: C_14  and  C_15
REMARK    6  A    between atoms: C_15  and  N_16
REMARK    7  A    between atoms: C_17  and  C_19
REMARK                            x       y       z     vdW  Elec       q    Type
REMARK                         _______ _______ _______ _____ _____    ______ ____
ROOT
ATOM      1  C   UNL     1      45.186   4.774  12.167  0.00  0.00    +0.000 A 
ATOM      2  C   UNL     1      45.001   6.147  11.953  0.00  0.00    +0.000 A 
ATOM      3  C   UNL     1      45.802   7.097  12.608  0.00  0.00    +0.000 A 
ATOM      4  C   UNL     1      46.825   6.699  13.478  0.00  0.00    +0.000 A 
ATOM      5  C   UNL     1      46.995   5.327  13.713  0.00  0.00    +0.000 A 
ATOM      6  C   UNL     1      46.198   4.377  13.053  0.00  0.00    +0.000 A 
ENDROOT
BRANCH   1   7
ATOM      7  C   UNL     1      44.297   3.757  11.486  0.00  0.00    +0.000 C 
BRANCH   7  10
ATOM      8  C   UNL     1      44.985   3.355   9.140  0.00  0.00    +0.000 C 
ATOM      9  O   UNL     1      44.415   4.348   8.709  0.00  0.00    +0.000 OA
ATOM     10  N   UNL     1      44.975   2.981  10.474  0.00  0.00    +0.000 N 
ATOM     11  H   UNL     1      45.505   2.150  10.720  0.00  0.00    +0.000 HD
BRANCH   8  17
ATOM     12  C   UNL     1      47.613   2.874   5.088  0.00  0.00    +0.000 C 
ATOM     13  C   UNL     1      47.021   2.216   6.297  0.00  0.00    +0.000 A 
ATOM     14  C   UNL     1      47.205   0.856   6.533  0.00  0.00    +0.000 A 
ATOM     15  C   UNL     1      46.632   0.285   7.666  0.00  0.00    +0.000 A 
ATOM     16  C   UNL     1      45.897   1.086   8.535  0.00  0.00    +0.000 A 
ATOM     17  C   UNL     1      45.763   2.436   8.234  0.00  0.00    +0.000 A 
ATOM     18  N   UNL     1      46.309   3.016   7.128  0.00  0.00    +0.000 NA
ENDBRANCH   8  17
ENDBRANCH   7  10
ENDBRANCH   1   7
BRANCH   4  19
ATOM     19  C   UNL     1      47.728   7.721  14.129  0.00  0.00    +0.000 C 
BRANCH  19  20
ATOM     20  N   UNL     1      48.131   7.338  15.460  0.00  0.00    +0.000 N 
ATOM     21  C   UNL     1      49.427   6.971  15.740  0.00  0.00    +0.000 C 
ATOM     22  O   UNL     1      50.317   7.007  14.894  0.00  0.00    +0.000 OA
ATOM     23  H   UNL     1      47.393   7.078  16.104  0.00  0.00    +0.000 HD
BRANCH  21  24
ATOM     24  C   UNL     1      49.709   6.584  17.129  0.00  0.00    +0.000 A 
ATOM     25  C   UNL     1      50.456   5.443  17.400  0.00  0.00    +0.000 A 
ATOM     26  S   UNL     1      50.704   5.169  19.066  0.00  0.00    +0.000 S 
ATOM     27  C   UNL     1      49.788   6.540  19.486  0.00  0.00    +0.000 A 
ATOM     28  N   UNL     1      49.581   6.874  20.788  0.00  0.00    +0.000 NA
ATOM     29  C   UNL     1      48.857   7.932  20.958  0.00  0.00    +0.000 A 
ATOM     30  N   UNL     1      48.327   8.686  19.946  0.00  0.00    +0.000 N 
ATOM     31  C   UNL     1      48.527   8.399  18.617  0.00  0.00    +0.000 A 
ATOM     32  O   UNL     1      48.075   9.121  17.735  0.00  0.00    +0.000 OA
ATOM     33  C   UNL     1      49.323   7.212  18.369  0.00  0.00    +0.000 A 
ATOM     34  H   UNL     1      47.785   9.514  20.141  0.00  0.00    +0.000 HD
ENDBRANCH  21  24
ENDBRANCH  19  20
ENDBRANCH   4  19
TORSDOF 6
ENDMDL
MODEL 6
REMARK VINA RESULT:    -6.728      2.545      3.755
REMARK INTER + INTRA:         -10.166
REMARK INTER:                  -9.270
REMARK INTRA:                  -0.896
REMARK UNBOUND:                -1.077
REMARK  Name = 
REMARK  7 active torsions:
REMARK  status: ('A' for Active; 'I' for Inactive)
REMARK    1  A    between atoms: C_1  and  C_2
REMARK    2  A    between atoms: C_6  and  C_7
REMARK    3  A    between atoms: N_9  and  C_10
REMARK    4  A    between atoms: C_10  and  C_11
REMARK    5  A    between atoms: C_14  and  C_15
REMARK    6  A    between atoms: C_15  and  N_16
REMARK    7  A    between atoms: C_17  and  C_19
REMARK                            x       y       z     vdW  Elec       q    Type
REMARK                         _______ _______ _______ _____ _____    ______ ____
ROOT
ATOM      1  C   UNL     1      47.639   7.885  13.371  0.00  0.00    +0.000 A 
ATOM      2  C   UNL     1      47.988   6.657  13.951  0.00  0.00    +0.000 A 
ATOM      3  C   UNL     1      48.518   6.594  15.250  0.00  0.00    +0.000 A 
ATOM      4  C   UNL     1      48.693   7.756  16.013  0.00  0.00    +0.000 A 
ATOM      5  C   UNL     1      48.369   8.987  15.425  0.00  0.00    +0.000 A 
ATOM      6  C   UNL     1      47.833   9.049  14.128  0.00  0.00    +0.000 A 
ENDROOT
BRANCH   1   7
ATOM      7  C   UNL     1      47.101   7.949  11.959  0.00  0.00    +0.000 C 
BRANCH   7  10
ATOM      8  C   UNL     1      45.281   6.452  11.193  0.00  0.00    +0.000 C 
ATOM      9  O   UNL     1      44.403   7.287  11.363  0.00  0.00    +0.000 OA
ATOM     10  N   UNL     1      46.621   6.680  11.464  0.00  0.00    +0.000 N 
ATOM     11  H   UNL     1      47.264   5.921  11.261  0.00  0.00    +0.000 HD
BRANCH   8  17
ATOM     12  C   UNL     1      45.563   3.347   7.474  0.00  0.00    +0.000 C 
ATOM     13  C   UNL     1      45.114   3.597   8.881  0.00  0.00    +0.000 A 
ATOM     14  C   UNL     1      44.466   2.604   9.612  0.00  0.00    +0.000 A 
ATOM     15  C   UNL     1      44.060   2.883  10.914  0.00  0.00    +0.000 A 
ATOM     16  C   UNL     1      44.315   4.140  11.453  0.00  0.00    +0.000 A 
ATOM     17  C   UNL     1      44.971   5.076  10.662  0.00  0.00    +0.000 A 
ATOM     18  N   UNL     1      45.372   4.829   9.384  0.00  0.00    +0.000 NA
ENDBRANCH   8  17
ENDBRANCH   7  10
ENDBRANCH   1   7
BRANCH   4  19
ATOM     19  C   UNL     1      49.202   7.679  17.435  0.00  0.00    +0.000 C 
BRANCH  19  20
ATOM     20  N   UNL     1      50.234   6.685  17.601  0.00  0.00    +0.000 N 
ATOM     21  C   UNL     1      50.094   5.648  18.494  0.00  0.00    +0.000 C 
ATOM     22  O   UNL     1      49.069   5.478  19.148  0.00  0.00    +0.000 OA
ATOM     23  H   UNL     1      51.158   6.924  17.261  0.00  0.00    +0.000 HD
BRANCH  21  24
ATOM     24  C   UNL     1      51.222   4.710  18.586  0.00  0.00    +0.000 A 
ATOM     25  C   UNL     1      52.382   5.074  19.260  0.00  0.00    +0.000 A 
ATOM     26  S   UNL     1      53.570   3.848  19.285  0.00  0.00    +0.000 S 
ATOM     27  C   UNL     1      52.594   2.805  18.362  0.00  0.00    +0.000 A 
ATOM     28  N   UNL     1      53.034   1.569  17.999  0.00  0.00    +0.000 NA
ATOM     29  C   UNL     1      52.193   0.892  17.289  0.00  0.00    +0.000 A 
ATOM     30  N   UNL     1      50.954   1.335  16.914  0.00  0.00    +0.000 N 
ATOM     31  C   UNL     1      50.458   2.565  17.274  0.00  0.00    +0.000 A 
ATOM     32  O   UNL     1      49.326   2.912  16.958  0.00  0.00    +0.000 OA
ATOM     33  C   UNL     1      51.369   3.374  18.062  0.00  0.00    +0.000 A 
ATOM     34  H   UNL     1      50.333   0.750  16.375  0.00  0.00    +0.000 HD
ENDBRANCH  21  24
ENDBRANCH  19  20
ENDBRANCH   4  19
TORSDOF 6
ENDMDL
MODEL 7
REMARK VINA RESULT:    -6.673      5.175      7.847
REMARK INTER + INTRA:         -10.090
REMARK INTER:                  -9.168
REMARK INTRA:                  -0.922
REMARK UNBOUND:                -1.077
REMARK  Name = 
REMARK  7 active torsions:
REMARK  status: ('A' for Active; 'I' for Inactive)
REMARK    1  A    between atoms: C_1  and  C_2
REMARK    2  A    between atoms: C_6  and  C_7
REMARK    3  A    between atoms: N_9  and  C_10
REMARK    4  A    between atoms: C_10  and  C_11
REMARK    5  A    between atoms: C_14  and  C_15
REMARK    6  A    between atoms: C_15  and  N_16
REMARK    7  A    between atoms: C_17  and  C_19
REMARK                            x       y       z     vdW  Elec       q    Type
REMARK                         _______ _______ _______ _____ _____    ______ ____
ROOT
ATOM      1  C   UNL     1      50.337   9.039  11.369  0.00  0.00    +0.000 A 
ATOM      2  C   UNL     1      49.962   7.719  11.657  0.00  0.00    +0.000 A 
ATOM      3  C   UNL     1      48.693   7.424  12.180  0.00  0.00    +0.000 A 
ATOM      4  C   UNL     1      47.755   8.439  12.410  0.00  0.00    +0.000 A 
ATOM      5  C   UNL     1      48.137   9.762  12.147  0.00  0.00    +0.000 A 
ATOM      6  C   UNL     1      49.404  10.056  11.617  0.00  0.00    +0.000 A 
ENDROOT
BRANCH   1   7
ATOM      7  C   UNL     1      51.718   9.354  10.839  0.00  0.00    +0.000 C 
BRANCH   7  10
ATOM      8  C   UNL     1      52.944   8.017   9.152  0.00  0.00    +0.000 C 
ATOM      9  O   UNL     1      52.762   8.822   8.250  0.00  0.00    +0.000 OA
ATOM     10  N   UNL     1      52.466   8.185  10.442  0.00  0.00    +0.000 N 
ATOM     11  H   UNL     1      52.700   7.461  11.115  0.00  0.00    +0.000 HD
BRANCH   8  17
ATOM     12  C   UNL     1      54.083   4.400   6.123  0.00  0.00    +0.000 C 
ATOM     13  C   UNL     1      54.264   5.023   7.473  0.00  0.00    +0.000 A 
ATOM     14  C   UNL     1      55.102   4.441   8.422  0.00  0.00    +0.000 A 
ATOM     15  C   UNL     1      55.236   5.051   9.666  0.00  0.00    +0.000 A 
ATOM     16  C   UNL     1      54.535   6.224   9.929  0.00  0.00    +0.000 A 
ATOM     17  C   UNL     1      53.722   6.745   8.929  0.00  0.00    +0.000 A 
ATOM     18  N   UNL     1      53.571   6.164   7.706  0.00  0.00    +0.000 NA
ENDBRANCH   8  17
ENDBRANCH   7  10
ENDBRANCH   1   7
BRANCH   4  19
ATOM     19  C   UNL     1      46.366   8.111  12.910  0.00  0.00    +0.000 C 
BRANCH  19  20
ATOM     20  N   UNL     1      45.945   6.781  12.544  0.00  0.00    +0.000 N 
ATOM     21  C   UNL     1      44.861   6.572  11.724  0.00  0.00    +0.000 C 
ATOM     22  O   UNL     1      44.234   7.498  11.215  0.00  0.00    +0.000 OA
ATOM     23  H   UNL     1      46.284   6.019  13.120  0.00  0.00    +0.000 HD
BRANCH  21  24
ATOM     24  C   UNL     1      44.519   5.172  11.438  0.00  0.00    +0.000 A 
ATOM     25  C   UNL     1      43.769   4.435  12.346  0.00  0.00    +0.000 A 
ATOM     26  S   UNL     1      43.449   2.839  11.832  0.00  0.00    +0.000 S 
ATOM     27  C   UNL     1      44.335   3.063  10.398  0.00  0.00    +0.000 A 
ATOM     28  N   UNL     1      44.483   2.053   9.498  0.00  0.00    +0.000 NA
ATOM     29  C   UNL     1      45.191   2.362   8.462  0.00  0.00    +0.000 A 
ATOM     30  N   UNL     1      45.760   3.587   8.243  0.00  0.00    +0.000 N 
ATOM     31  C   UNL     1      45.622   4.643   9.112  0.00  0.00    +0.000 A 
ATOM     32  O   UNL     1      46.108   5.740   8.863  0.00  0.00    +0.000 OA
ATOM     33  C   UNL     1      44.846   4.346  10.301  0.00  0.00    +0.000 A 
ATOM     34  H   UNL     1      46.287   3.774   7.403  0.00  0.00    +0.000 HD
ENDBRANCH  21  24
ENDBRANCH  19  20
ENDBRANCH   4  19
TORSDOF 6
ENDMDL
MODEL 8
REMARK VINA RESULT:    -6.591      5.271      9.917
REMARK INTER + INTRA:          -9.980
REMARK INTER:                  -8.871
REMARK INTRA:                  -1.109
REMARK UNBOUND:                -1.077
REMARK  Name = 
REMARK  7 active torsions:
REMARK  status: ('A' for Active; 'I' for Inactive)
REMARK    1  A    between atoms: C_1  and  C_2
REMARK    2  A    between atoms: C_6  and  C_7
REMARK    3  A    between atoms: N_9  and  C_10
REMARK    4  A    between atoms: C_10  and  C_11
REMARK    5  A    between atoms: C_14  and  C_15
REMARK    6  A    between atoms: C_15  and  N_16
REMARK    7  A    between atoms: C_17  and  C_19
REMARK                            x       y       z     vdW  Elec       q    Type
REMARK                         _______ _______ _______ _____ _____    ______ ____
ROOT
ATOM      1  C   UNL     1      51.920   3.015  17.738  0.00  0.00    +0.000 A 
ATOM      2  C   UNL     1      51.346   4.271  17.977  0.00  0.00    +0.000 A 
ATOM      3  C   UNL     1      49.966   4.478  17.823  0.00  0.00    +0.000 A 
ATOM      4  C   UNL     1      49.118   3.428  17.447  0.00  0.00    +0.000 A 
ATOM      5  C   UNL     1      49.694   2.178  17.183  0.00  0.00    +0.000 A 
ATOM      6  C   UNL     1      51.074   1.969  17.343  0.00  0.00    +0.000 A 
ENDROOT
BRANCH   1   7
ATOM      7  C   UNL     1      53.413   2.807  17.871  0.00  0.00    +0.000 C 
BRANCH   7  10
ATOM      8  C   UNL     1      54.377   0.735  18.828  0.00  0.00    +0.000 C 
ATOM      9  O   UNL     1      54.592   1.235  19.924  0.00  0.00    +0.000 OA
ATOM     10  N   UNL     1      53.816   1.425  17.765  0.00  0.00    +0.000 N 
ATOM     11  H   UNL     1      53.662   0.900  16.909  0.00  0.00    +0.000 HD
BRANCH   8  17
ATOM     12  C   UNL     1      55.002  -2.720  15.478  0.00  0.00    +0.000 C 
ATOM     13  C   UNL     1      55.015  -2.349  16.929  0.00  0.00    +0.000 A 
ATOM     14  C   UNL     1      55.325  -3.293  17.906  0.00  0.00    +0.000 A 
ATOM     15  C   UNL     1      55.319  -2.905  19.243  0.00  0.00    +0.000 A 
ATOM     16  C   UNL     1      55.009  -1.589  19.569  0.00  0.00    +0.000 A 
ATOM     17  C   UNL     1      54.714  -0.705  18.538  0.00  0.00    +0.000 A 
ATOM     18  N   UNL     1      54.708  -1.061  17.223  0.00  0.00    +0.000 NA
ENDBRANCH   8  17
ENDBRANCH   7  10
ENDBRANCH   1   7
BRANCH   4  19
ATOM     19  C   UNL     1      47.624   3.638  17.347  0.00  0.00    +0.000 C 
BRANCH  19  20
ATOM     20  N   UNL     1      47.261   4.541  16.283  0.00  0.00    +0.000 N 
ATOM     21  C   UNL     1      47.209   4.123  14.973  0.00  0.00    +0.000 C 
ATOM     22  O   UNL     1      47.409   2.956  14.649  0.00  0.00    +0.000 OA
ATOM     23  H   UNL     1      47.321   5.533  16.484  0.00  0.00    +0.000 HD
BRANCH  21  24
ATOM     24  C   UNL     1      46.844   5.140  13.978  0.00  0.00    +0.000 A 
ATOM     25  C   UNL     1      45.683   5.001  13.227  0.00  0.00    +0.000 A 
ATOM     26  S   UNL     1      45.411   6.291  12.144  0.00  0.00    +0.000 S 
ATOM     27  C   UNL     1      46.855   7.061  12.609  0.00  0.00    +0.000 A 
ATOM     28  N   UNL     1      47.244   8.231  12.034  0.00  0.00    +0.000 NA
ATOM     29  C   UNL     1      48.367   8.694  12.476  0.00  0.00    +0.000 A 
ATOM     30  N   UNL     1      49.131   8.098  13.442  0.00  0.00    +0.000 N 
ATOM     31  C   UNL     1      48.769   6.928  14.066  0.00  0.00    +0.000 A 
ATOM     32  O   UNL     1      49.455   6.444  14.959  0.00  0.00    +0.000 OA
ATOM     33  C   UNL     1      47.521   6.356  13.597  0.00  0.00    +0.000 A 
ATOM     34  H   UNL     1      49.991   8.519  13.760  0.00  0.00    +0.000 HD
ENDBRANCH  21  24
ENDBRANCH  19  20
ENDBRANCH   4  19
TORSDOF 6
ENDMDL
MODEL 9
REMARK VINA RESULT:    -6.428      3.379      4.740
REMARK INTER + INTRA:          -9.760
REMARK INTER:                  -8.699
REMARK INTRA:                  -1.062
REMARK UNBOUND:                -1.077
REMARK  Name = 
REMARK  7 active torsions:
REMARK  status: ('A' for Active; 'I' for Inactive)
REMARK    1  A    between atoms: C_1  and  C_2
REMARK    2  A    between atoms: C_6  and  C_7
REMARK    3  A    between atoms: N_9  and  C_10
REMARK    4  A    between atoms: C_10  and  C_11
REMARK    5  A    between atoms: C_14  and  C_15
REMARK    6  A    between atoms: C_15  and  N_16
REMARK    7  A    between atoms: C_17  and  C_19
REMARK                            x       y       z     vdW  Elec       q    Type
REMARK                         _______ _______ _______ _____ _____    ______ ____
ROOT
ATOM      1  C   UNL     1      45.264   4.777  12.265  0.00  0.00    +0.000 A 
ATOM      2  C   UNL     1      44.818   6.105  12.218  0.00  0.00    +0.000 A 
ATOM      3  C   UNL     1      45.549   7.137  12.830  0.00  0.00    +0.000 A 
ATOM      4  C   UNL     1      46.758   6.871  13.486  0.00  0.00    +0.000 A 
ATOM      5  C   UNL     1      47.192   5.540  13.556  0.00  0.00    +0.000 A 
ATOM      6  C   UNL     1      46.464   4.509  12.939  0.00  0.00    +0.000 A 
ENDROOT
BRANCH   1   7
ATOM      7  C   UNL     1      44.454   3.665  11.635  0.00  0.00    +0.000 C 
BRANCH   7  10
ATOM      8  C   UNL     1      45.125   3.716   9.250  0.00  0.00    +0.000 C 
ATOM      9  O   UNL     1      44.622   4.812   9.040  0.00  0.00    +0.000 OA
ATOM     10  N   UNL     1      45.085   3.075  10.478  0.00  0.00    +0.000 N 
ATOM     11  H   UNL     1      45.558   2.178  10.541  0.00  0.00    +0.000 HD
BRANCH   8  17
ATOM     12  C   UNL     1      46.769  -0.564   7.660  0.00  0.00    +0.000 C 
ATOM     13  C   UNL     1      46.623   0.907   7.411  0.00  0.00    +0.000 A 
ATOM     14  C   UNL     1      47.125   1.488   6.249  0.00  0.00    +0.000 A 
ATOM     15  C   UNL     1      46.973   2.860   6.062  0.00  0.00    +0.000 A 
ATOM     16  C   UNL     1      46.321   3.611   7.036  0.00  0.00    +0.000 A 
ATOM     17  C   UNL     1      45.845   2.957   8.166  0.00  0.00    +0.000 A 
ATOM     18  N   UNL     1      45.986   1.618   8.373  0.00  0.00    +0.000 NA
ENDBRANCH   8  17
ENDBRANCH   7  10
ENDBRANCH   1   7
BRANCH   4  19
ATOM     19  C   UNL     1      47.575   7.993  14.085  0.00  0.00    +0.000 C 
BRANCH  19  20
ATOM     20  N   UNL     1      48.951   7.968  13.654  0.00  0.00    +0.000 N 
ATOM     21  C   UNL     1      49.334   8.494  12.443  0.00  0.00    +0.000 C 
ATOM     22  O   UNL     1      48.543   9.062  11.694  0.00  0.00    +0.000 OA
ATOM     23  H   UNL     1      49.567   7.315  14.127  0.00  0.00    +0.000 HD
BRANCH  21  24
ATOM     24  C   UNL     1      50.762   8.392  12.109  0.00  0.00    +0.000 A 
ATOM     25  C   UNL     1      51.163   7.761  10.937  0.00  0.00    +0.000 A 
ATOM     26  S   UNL     1      52.854   7.762  10.706  0.00  0.00    +0.000 S 
ATOM     27  C   UNL     1      53.112   8.569  12.181  0.00  0.00    +0.000 A 
ATOM     28  N   UNL     1      54.370   8.864  12.610  0.00  0.00    +0.000 NA
ATOM     29  C   UNL     1      54.415   9.466  13.753  0.00  0.00    +0.000 A 
ATOM     30  N   UNL     1      53.320   9.803  14.501  0.00  0.00    +0.000 N 
ATOM     31  C   UNL     1      52.031   9.545  14.100  0.00  0.00    +0.000 A 
ATOM     32  O   UNL     1      51.071   9.900  14.774  0.00  0.00    +0.000 OA
ATOM     33  C   UNL     1      51.923   8.856  12.828  0.00  0.00    +0.000 A 
ATOM     34  H   UNL     1      53.418  10.291  15.379  0.00  0.00    +0.000 HD
ENDBRANCH  21  24
ENDBRANCH  19  20
ENDBRANCH   4  19
TORSDOF 6
ENDMDL
