MODEL 1
REMARK VINA RESULT:    -8.477      0.000      0.000
REMARK INTER + INTRA:         -11.477
REMARK INTER:                 -10.955
REMARK INTRA:                  -0.523
REMARK UNBOUND:                -0.523
REMARK  Name = 
REMARK  6 active torsions:
REMARK  status: ('A' for Active; 'I' for Inactive)
REMARK    1  A    between atoms: C_1  and  C_2
REMARK    2  A    between atoms: C_2  and  N_3
REMARK    3  A    between atoms: C_2  and  C_16
REMARK    4  A    between atoms: C_4  and  C_6
REMARK    5  A    between atoms: C_19  and  O_20
REMARK    6  A    between atoms: O_20  and  C_21
REMARK                            x       y       z     vdW  Elec       q    Type
REMARK                         _______ _______ _______ _____ _____    ______ ____
ROOT
ATOM      1  C   UNL     1      42.873   5.093  13.338  0.00  0.00    +0.000 C 
ATOM      2  C   UNL     1      44.219   4.436  13.008  0.00  0.00    +0.000 C 
ENDROOT
BRANCH   2   3
ATOM      3  C   UNL     1      44.514   4.375  11.520  0.00  0.00    +0.000 A 
ATOM      4  C   UNL     1      45.373   5.333  10.960  0.00  0.00    +0.000 A 
ATOM      5  C   UNL     1      45.675   5.313   9.597  0.00  0.00    +0.000 A 
ATOM      6  C   UNL     1      45.143   4.318   8.776  0.00  0.00    +0.000 A 
ATOM      7  C   UNL     1      44.243   3.396   9.307  0.00  0.00    +0.000 A 
ATOM      8  C   UNL     1      43.925   3.428  10.668  0.00  0.00    +0.000 A 
BRANCH   6   9
ATOM      9  O   UNL     1      45.384   4.233   7.426  0.00  0.00    +0.000 OA
BRANCH   9  10
ATOM     10  C   UNL     1      46.285   3.271   6.979  0.00  0.00    +0.000 A 
ATOM     11  C   UNL     1      46.817   3.472   5.714  0.00  0.00    +0.000 A 
ATOM     12  C   UNL     1      47.733   2.545   5.230  0.00  0.00    +0.000 A 
ATOM     13  C   UNL     1      48.077   1.451   6.017  0.00  0.00    +0.000 A 
ATOM     14  C   UNL     1      47.474   1.320   7.258  0.00  0.00    +0.000 A 
ATOM     15  N   UNL     1      46.576   2.199   7.749  0.00  0.00    +0.000 NA
ENDBRANCH   9  10
ENDBRANCH   6   9
ENDBRANCH   2   3
BRANCH   2  16
ATOM     16  N   UNL     1      45.311   5.116  13.682  0.00  0.00    +0.000 N 
ATOM     17  C   UNL     1      46.439   4.469  14.107  0.00  0.00    +0.000 C 
ATOM     18  O   UNL     1      46.600   3.265  13.914  0.00  0.00    +0.000 OA
ATOM     19  H   UNL     1      45.187   6.108  13.860  0.00  0.00    +0.000 HD
BRANCH  17  20
ATOM     20  C   UNL     1      47.458   5.269  14.809  0.00  0.00    +0.000 A 
ATOM     21  C   UNL     1      48.110   6.283  14.117  0.00  0.00    +0.000 A 
ATOM     22  S   UNL     1      49.285   7.105  15.035  0.00  0.00    +0.000 S 
ATOM     23  C   UNL     1      48.970   6.139  16.398  0.00  0.00    +0.000 A 
ATOM     24  N   UNL     1      49.673   6.317  17.549  0.00  0.00    +0.000 NA
ATOM     25  C   UNL     1      49.337   5.522  18.508  0.00  0.00    +0.000 A 
ATOM     26  N   UNL     1      48.356   4.570  18.423  0.00  0.00    +0.000 N 
ATOM     27  C   UNL     1      47.619   4.355  17.282  0.00  0.00    +0.000 A 
ATOM     28  O   UNL     1      46.746   3.493  17.250  0.00  0.00    +0.000 OA
ATOM     29  C   UNL     1      47.967   5.212  16.163  0.00  0.00    +0.000 A 
ATOM     30  H   UNL     1      48.133   3.984  19.214  0.00  0.00    +0.000 HD
ENDBRANCH  17  20
ENDBRANCH   2  16
TORSDOF 5
ENDMDL
MODEL 2
REMARK VINA RESULT:    -8.180      1.663      2.274
REMARK INTER + INTRA:         -11.093
REMARK INTER:                 -11.369
REMARK INTRA:                   0.275
REMARK UNBOUND:                -0.523
REMARK  Name = 
REMARK  6 active torsions:
REMARK  status: ('A' for Active; 'I' for Inactive)
REMARK    1  A    between atoms: C_1  and  C_2
REMARK    2  A    between atoms: C_2  and  N_3
REMARK    3  A    between atoms: C_2  and  C_16
REMARK    4  A    between atoms: C_4  and  C_6
REMARK    5  A    between atoms: C_19  and  O_20
REMARK    6  A    between atoms: O_20  and  C_21
REMARK                            x       y       z     vdW  Elec       q    Type
REMARK                         _______ _______ _______ _____ _____    ______ ____
ROOT
ATOM      1  C   UNL     1      45.990   8.430  11.767  0.00  0.00    +0.000 C 
ATOM      2  C   UNL     1      45.400   7.236  12.528  0.00  0.00    +0.000 C 
ENDROOT
BRANCH   2   3
ATOM      3  C   UNL     1      45.197   6.007  11.660  0.00  0.00    +0.000 A 
ATOM      4  C   UNL     1      44.557   4.887  12.214  0.00  0.00    +0.000 A 
ATOM      5  C   UNL     1      44.346   3.736  11.452  0.00  0.00    +0.000 A 
ATOM      6  C   UNL     1      44.748   3.696  10.116  0.00  0.00    +0.000 A 
ATOM      7  C   UNL     1      45.436   4.778   9.572  0.00  0.00    +0.000 A 
ATOM      8  C   UNL     1      45.665   5.923  10.340  0.00  0.00    +0.000 A 
BRANCH   6   9
ATOM      9  O   UNL     1      44.584   2.600   9.303  0.00  0.00    +0.000 OA
BRANCH   9  10
ATOM     10  C   UNL     1      45.545   2.360   8.325  0.00  0.00    +0.000 A 
ATOM     11  C   UNL     1      45.662   3.323   7.334  0.00  0.00    +0.000 A 
ATOM     12  C   UNL     1      46.618   3.134   6.342  0.00  0.00    +0.000 A 
ATOM     13  C   UNL     1      47.414   1.993   6.369  0.00  0.00    +0.000 A 
ATOM     14  C   UNL     1      47.206   1.074   7.385  0.00  0.00    +0.000 A 
ATOM     15  N   UNL     1      46.280   1.226   8.355  0.00  0.00    +0.000 NA
ENDBRANCH   9  10
ENDBRANCH   6   9
ENDBRANCH   2   3
BRANCH   2  16
ATOM     16  N   UNL     1      46.227   6.884  13.668  0.00  0.00    +0.000 N 
ATOM     17  C   UNL     1      47.588   6.766  13.591  0.00  0.00    +0.000 C 
ATOM     18  O   UNL     1      48.192   6.982  12.542  0.00  0.00    +0.000 OA
ATOM     19  H   UNL     1      45.741   6.691  14.538  0.00  0.00    +0.000 HD
BRANCH  17  20
ATOM     20  C   UNL     1      48.307   6.369  14.815  0.00  0.00    +0.000 A 
ATOM     21  C   UNL     1      49.375   7.146  15.248  0.00  0.00    +0.000 A 
ATOM     22  S   UNL     1      50.136   6.556  16.653  0.00  0.00    +0.000 S 
ATOM     23  C   UNL     1      49.067   5.237  16.740  0.00  0.00    +0.000 A 
ATOM     24  N   UNL     1      49.192   4.310  17.728  0.00  0.00    +0.000 NA
ATOM     25  C   UNL     1      48.319   3.361  17.683  0.00  0.00    +0.000 A 
ATOM     26  N   UNL     1      47.327   3.259  16.744  0.00  0.00    +0.000 N 
ATOM     27  C   UNL     1      47.161   4.172  15.730  0.00  0.00    +0.000 A 
ATOM     28  O   UNL     1      46.256   4.045  14.911  0.00  0.00    +0.000 OA
ATOM     29  C   UNL     1      48.127   5.255  15.721  0.00  0.00    +0.000 A 
ATOM     30  H   UNL     1      46.667   2.496  16.769  0.00  0.00    +0.000 HD
ENDBRANCH  17  20
ENDBRANCH   2  16
TORSDOF 5
ENDMDL
MODEL 3
REMARK VINA RESULT:    -8.022      2.023      3.204
REMARK INTER + INTRA:         -10.889
REMARK INTER:                 -10.929
REMARK INTRA:                   0.040
REMARK UNBOUND:                -0.523
REMARK  Name = 
REMARK  6 active torsions:
REMARK  status: ('A' for Active; 'I' for Inactive)
REMARK    1  A    between atoms: C_1  and  C_2
REMARK    2  A    between atoms: C_2  and  N_3
REMARK    3  A    between atoms: C_2  and  C_16
REMARK    4  A    between atoms: C_4  and  C_6
REMARK    5  A    between atoms: C_19  and  O_20
REMARK    6  A    between atoms: O_20  and  C_21
REMARK                            x       y       z     vdW  Elec       q    Type
REMARK                         _______ _______ _______ _____ _____    ______ ____
ROOT
ATOM      1  C   UNL     1      48.088   8.974  12.460  0.00  0.00    +0.000 C 
ATOM      2  C   UNL     1      46.932   8.287  13.197  0.00  0.00    +0.000 C 
ENDROOT
BRANCH   2   3
ATOM      3  C   UNL     1      46.212   7.247  12.356  0.00  0.00    +0.000 A 
ATOM      4  C   UNL     1      45.057   6.641  12.874  0.00  0.00    +0.000 A 
ATOM      5  C   UNL     1      44.362   5.682  12.135  0.00  0.00    +0.000 A 
ATOM      6  C   UNL     1      44.794   5.334  10.854  0.00  0.00    +0.000 A 
ATOM      7  C   UNL     1      45.971   5.886  10.352  0.00  0.00    +0.000 A 
ATOM      8  C   UNL     1      46.679   6.831  11.100  0.00  0.00    +0.000 A 
BRANCH   6   9
ATOM      9  O   UNL     1      44.172   4.395  10.067  0.00  0.00    +0.000 OA
BRANCH   9  10
ATOM     10  C   UNL     1      44.943   3.699   9.141  0.00  0.00    +0.000 A 
ATOM     11  C   UNL     1      45.142   2.352   9.401  0.00  0.00    +0.000 A 
ATOM     12  C   UNL     1      45.895   1.611   8.497  0.00  0.00    +0.000 A 
ATOM     13  C   UNL     1      46.427   2.240   7.375  0.00  0.00    +0.000 A 
ATOM     14  C   UNL     1      46.196   3.597   7.213  0.00  0.00    +0.000 A 
ATOM     15  N   UNL     1      45.478   4.342   8.078  0.00  0.00    +0.000 NA
ENDBRANCH   9  10
ENDBRANCH   6   9
ENDBRANCH   2   3
BRANCH   2  16
ATOM     16  N   UNL     1      47.391   7.670  14.428  0.00  0.00    +0.000 N 
ATOM     17  C   UNL     1      48.491   6.857  14.487  0.00  0.00    +0.000 C 
ATOM     18  O   UNL     1      49.171   6.625  13.489  0.00  0.00    +0.000 OA
ATOM     19  H   UNL     1      46.832   7.842  15.258  0.00  0.00    +0.000 HD
BRANCH  17  20
ATOM     20  C   UNL     1      48.830   6.266  15.793  0.00  0.00    +0.000 A 
ATOM     21  C   UNL     1      49.808   6.875  16.572  0.00  0.00    +0.000 A 
ATOM     22  S   UNL     1      50.125   6.071  18.039  0.00  0.00    +0.000 S 
ATOM     23  C   UNL     1      48.967   4.874  17.694  0.00  0.00    +0.000 A 
ATOM     24  N   UNL     1      48.755   3.847  18.560  0.00  0.00    +0.000 NA
ATOM     25  C   UNL     1      47.850   3.008  18.182  0.00  0.00    +0.000 A 
ATOM     26  N   UNL     1      47.132   3.108  17.019  0.00  0.00    +0.000 N 
ATOM     27  C   UNL     1      47.312   4.129  16.116  0.00  0.00    +0.000 A 
ATOM     28  O   UNL     1      46.644   4.183  15.087  0.00  0.00    +0.000 OA
ATOM     29  C   UNL     1      48.331   5.095  16.482  0.00  0.00    +0.000 A 
ATOM     30  H   UNL     1      46.430   2.423  16.784  0.00  0.00    +0.000 HD
ENDBRANCH  17  20
ENDBRANCH   2  16
TORSDOF 5
ENDMDL
MODEL 4
REMARK VINA RESULT:    -7.725      1.700      2.587
REMARK INTER + INTRA:         -10.506
REMARK INTER:                  -9.869
REMARK INTRA:                  -0.637
REMARK UNBOUND:                -0.523
REMARK  Name = 
REMARK  6 active torsions:
REMARK  status: ('A' for Active; 'I' for Inactive)
REMARK    1  A    between atoms: C_1  and  C_2
REMARK    2  A    between atoms: C_2  and  N_3
REMARK    3  A    between atoms: C_2  and  C_16
REMARK    4  A    between atoms: C_4  and  C_6
REMARK    5  A    between atoms: C_19  and  O_20
REMARK    6  A    between atoms: O_20  and  C_21
REMARK                            x       y       z     vdW  Elec       q    Type
REMARK                         _______ _______ _______ _____ _____    ______ ____
ROOT
ATOM      1  C   UNL     1      43.280   5.281  13.530  0.00  0.00    +0.000 C 
ATOM      2  C   UNL     1      44.593   4.610  13.108  0.00  0.00    +0.000 C 
ENDROOT
BRANCH   2   3
ATOM      3  C   UNL     1      44.727   4.433  11.606  0.00  0.00    +0.000 A 
ATOM      4  C   UNL     1      45.441   5.393  10.873  0.00  0.00    +0.000 A 
ATOM      5  C   UNL     1      45.592   5.269   9.491  0.00  0.00    +0.000 A 
ATOM      6  C   UNL     1      45.055   4.168   8.823  0.00  0.00    +0.000 A 
ATOM      7  C   UNL     1      44.295   3.238   9.530  0.00  0.00    +0.000 A 
ATOM      8  C   UNL     1      44.126   3.373  10.910  0.00  0.00    +0.000 A 
BRANCH   6   9
ATOM      9  O   UNL     1      45.152   3.976   7.465  0.00  0.00    +0.000 OA
BRANCH   9  10
ATOM     10  C   UNL     1      46.144   3.122   6.992  0.00  0.00    +0.000 A 
ATOM     11  C   UNL     1      46.646   3.406   5.732  0.00  0.00    +0.000 A 
ATOM     12  C   UNL     1      47.649   2.589   5.222  0.00  0.00    +0.000 A 
ATOM     13  C   UNL     1      48.106   1.516   5.982  0.00  0.00    +0.000 A 
ATOM     14  C   UNL     1      47.526   1.296   7.220  0.00  0.00    +0.000 A 
ATOM     15  N   UNL     1      46.546   2.067   7.736  0.00  0.00    +0.000 NA
ENDBRANCH   9  10
ENDBRANCH   6   9
ENDBRANCH   2   3
BRANCH   2  16
ATOM     16  N   UNL     1      45.739   5.348  13.605  0.00  0.00    +0.000 N 
ATOM     17  C   UNL     1      46.746   4.763  14.324  0.00  0.00    +0.000 C 
ATOM     18  O   UNL     1      46.744   3.557  14.567  0.00  0.00    +0.000 OA
ATOM     19  H   UNL     1      45.750   6.347  13.423  0.00  0.00    +0.000 HD
BRANCH  17  20
ATOM     20  C   UNL     1      47.837   5.632  14.799  0.00  0.00    +0.000 A 
ATOM     21  C   UNL     1      48.284   5.494  16.108  0.00  0.00    +0.000 A 
ATOM     22  S   UNL     1      49.523   6.581  16.536  0.00  0.00    +0.000 S 
ATOM     23  C   UNL     1      49.514   7.282  14.987  0.00  0.00    +0.000 A 
ATOM     24  N   UNL     1      50.347   8.315  14.691  0.00  0.00    +0.000 NA
ATOM     25  C   UNL     1      50.242   8.756  13.483  0.00  0.00    +0.000 A 
ATOM     26  N   UNL     1      49.385   8.251  12.541  0.00  0.00    +0.000 N 
ATOM     27  C   UNL     1      48.527   7.207  12.794  0.00  0.00    +0.000 A 
ATOM     28  O   UNL     1      47.778   6.782  11.920  0.00  0.00    +0.000 OA
ATOM     29  C   UNL     1      48.590   6.682  14.146  0.00  0.00    +0.000 A 
ATOM     30  H   UNL     1      49.358   8.634  11.608  0.00  0.00    +0.000 HD
ENDBRANCH  17  20
ENDBRANCH   2  16
TORSDOF 5
ENDMDL
MODEL 5
REMARK VINA RESULT:    -7.504      2.014      2.717
REMARK INTER + INTRA:         -10.221
REMARK INTER:                 -10.726
REMARK INTRA:                   0.505
REMARK UNBOUND:                -0.523
REMARK  Name = 
REMARK  6 active torsions:
REMARK  status: ('A' for Active; 'I' for Inactive)
REMARK    1  A    between atoms: C_1  and  C_2
REMARK    2  A    between atoms: C_2  and  N_3
REMARK    3  A    between atoms: C_2  and  C_16
REMARK    4  A    between atoms: C_4  and  C_6
REMARK    5  A    between atoms: C_19  and  O_20
REMARK    6  A    between atoms: O_20  and  C_21
REMARK                            x       y       z     vdW  Elec       q    Type
REMARK                         _______ _______ _______ _____ _____    ______ ____
ROOT
ATOM      1  C   UNL     1      47.975   7.377  12.777  0.00  0.00    +0.000 C 
ATOM      2  C   UNL     1      46.676   6.678  13.193  0.00  0.00    +0.000 C 
ENDROOT
BRANCH   2   3
ATOM      3  C   UNL     1      46.117   5.754  12.126  0.00  0.00    +0.000 A 
ATOM      4  C   UNL     1      46.107   6.190  10.792  0.00  0.00    +0.000 A 
ATOM      5  C   UNL     1      45.605   5.373   9.777  0.00  0.00    +0.000 A 
ATOM      6  C   UNL     1      45.131   4.095  10.076  0.00  0.00    +0.000 A 
ATOM      7  C   UNL     1      45.082   3.673  11.403  0.00  0.00    +0.000 A 
ATOM      8  C   UNL     1      45.565   4.498  12.422  0.00  0.00    +0.000 A 
BRANCH   6   9
ATOM      9  O   UNL     1      44.614   3.233   9.138  0.00  0.00    +0.000 OA
BRANCH   9  10
ATOM     10  C   UNL     1      45.499   2.605   8.266  0.00  0.00    +0.000 A 
ATOM     11  C   UNL     1      45.876   3.333   7.148  0.00  0.00    +0.000 A 
ATOM     12  C   UNL     1      46.770   2.752   6.255  0.00  0.00    +0.000 A 
ATOM     13  C   UNL     1      47.247   1.469   6.504  0.00  0.00    +0.000 A 
ATOM     14  C   UNL     1      46.793   0.809   7.635  0.00  0.00    +0.000 A 
ATOM     15  N   UNL     1      45.920   1.344   8.514  0.00  0.00    +0.000 NA
ENDBRANCH   9  10
ENDBRANCH   6   9
ENDBRANCH   2   3
BRANCH   2  16
ATOM     16  N   UNL     1      46.856   5.929  14.424  0.00  0.00    +0.000 N 
ATOM     17  C   UNL     1      48.066   5.812  15.052  0.00  0.00    +0.000 C 
ATOM     18  O   UNL     1      49.073   6.366  14.613  0.00  0.00    +0.000 OA
ATOM     19  H   UNL     1      46.036   5.457  14.792  0.00  0.00    +0.000 HD
BRANCH  17  20
ATOM     20  C   UNL     1      48.120   4.995  16.277  0.00  0.00    +0.000 A 
ATOM     21  C   UNL     1      47.666   3.682  16.229  0.00  0.00    +0.000 A 
ATOM     22  S   UNL     1      47.754   2.864  17.720  0.00  0.00    +0.000 S 
ATOM     23  C   UNL     1      48.404   4.232  18.492  0.00  0.00    +0.000 A 
ATOM     24  N   UNL     1      48.694   4.204  19.821  0.00  0.00    +0.000 NA
ATOM     25  C   UNL     1      49.182   5.305  20.284  0.00  0.00    +0.000 A 
ATOM     26  N   UNL     1      49.414   6.429  19.537  0.00  0.00    +0.000 N 
ATOM     27  C   UNL     1      49.138   6.503  18.192  0.00  0.00    +0.000 A 
ATOM     28  O   UNL     1      49.365   7.530  17.559  0.00  0.00    +0.000 OA
ATOM     29  C   UNL     1      48.571   5.296  17.620  0.00  0.00    +0.000 A 
ATOM     30  H   UNL     1      49.807   7.258  19.957  0.00  0.00    +0.000 HD
ENDBRANCH  17  20
ENDBRANCH   2  16
TORSDOF 5
ENDMDL
MODEL 6
REMARK VINA RESULT:    -7.374      3.836      8.838
REMARK INTER + INTRA:         -10.052
REMARK INTER:                  -9.173
REMARK INTRA:                  -0.880
REMARK UNBOUND:                -0.523
REMARK  Name = 
REMARK  6 active torsions:
REMARK  status: ('A' for Active; 'I' for Inactive)
REMARK    1  A    between atoms: C_1  and  C_2
REMARK    2  A    between atoms: C_2  and  N_3
REMARK    3  A    between atoms: C_2  and  C_16
REMARK    4  A    between atoms: C_4  and  C_6
REMARK    5  A    between atoms: C_19  and  O_20
REMARK    6  A    between atoms: O_20  and  C_21
REMARK                            x       y       z     vdW  Elec       q    Type
REMARK                         _______ _______ _______ _____ _____    ______ ____
ROOT
ATOM      1  C   UNL     1      48.719   7.403  17.848  0.00  0.00    +0.000 C 
ATOM      2  C   UNL     1      49.178   6.594  16.628  0.00  0.00    +0.000 C 
ENDROOT
BRANCH   2   3
ATOM      3  C   UNL     1      49.767   5.241  16.987  0.00  0.00    +0.000 A 
ATOM      4  C   UNL     1      51.141   5.152  17.259  0.00  0.00    +0.000 A 
ATOM      5  C   UNL     1      51.724   3.930  17.595  0.00  0.00    +0.000 A 
ATOM      6  C   UNL     1      50.938   2.781  17.692  0.00  0.00    +0.000 A 
ATOM      7  C   UNL     1      49.584   2.844  17.368  0.00  0.00    +0.000 A 
ATOM      8  C   UNL     1      49.003   4.064  17.012  0.00  0.00    +0.000 A 
BRANCH   6   9
ATOM      9  O   UNL     1      51.436   1.539  18.010  0.00  0.00    +0.000 OA
BRANCH   9  10
ATOM     10  C   UNL     1      52.816   1.363  17.997  0.00  0.00    +0.000 A 
ATOM     11  C   UNL     1      53.332   0.655  16.922  0.00  0.00    +0.000 A 
ATOM     12  C   UNL     1      54.708   0.465  16.858  0.00  0.00    +0.000 A 
ATOM     13  C   UNL     1      55.516   0.980  17.868  0.00  0.00    +0.000 A 
ATOM     14  C   UNL     1      54.907   1.652  18.916  0.00  0.00    +0.000 A 
ATOM     15  N   UNL     1      53.575   1.843  19.008  0.00  0.00    +0.000 NA
ENDBRANCH   9  10
ENDBRANCH   6   9
ENDBRANCH   2   3
BRANCH   2  16
ATOM     16  N   UNL     1      48.089   6.406  15.687  0.00  0.00    +0.000 N 
ATOM     17  C   UNL     1      48.252   6.503  14.332  0.00  0.00    +0.000 C 
ATOM     18  O   UNL     1      49.353   6.733  13.834  0.00  0.00    +0.000 OA
ATOM     19  H   UNL     1      47.171   6.227  16.084  0.00  0.00    +0.000 HD
BRANCH  17  20
ATOM     20  C   UNL     1      47.058   6.323  13.488  0.00  0.00    +0.000 A 
ATOM     21  C   UNL     1      46.428   7.447  12.967  0.00  0.00    +0.000 A 
ATOM     22  S   UNL     1      45.043   7.099  12.039  0.00  0.00    +0.000 S 
ATOM     23  C   UNL     1      45.228   5.428  12.296  0.00  0.00    +0.000 A 
ATOM     24  N   UNL     1      44.334   4.545  11.776  0.00  0.00    +0.000 NA
ATOM     25  C   UNL     1      44.588   3.308  12.042  0.00  0.00    +0.000 A 
ATOM     26  N   UNL     1      45.661   2.874  12.775  0.00  0.00    +0.000 N 
ATOM     27  C   UNL     1      46.590   3.729  13.318  0.00  0.00    +0.000 A 
ATOM     28  O   UNL     1      47.539   3.297  13.966  0.00  0.00    +0.000 OA
ATOM     29  C   UNL     1      46.345   5.137  13.064  0.00  0.00    +0.000 A 
ATOM     30  H   UNL     1      45.810   1.890  12.941  0.00  0.00    +0.000 HD
ENDBRANCH  17  20
ENDBRANCH   2  16
TORSDOF 5
ENDMDL
MODEL 7
REMARK VINA RESULT:    -7.360      2.501      4.079
REMARK INTER + INTRA:         -10.034
REMARK INTER:                  -9.029
REMARK INTRA:                  -1.005
REMARK UNBOUND:                -0.523
REMARK  Name = 
REMARK  6 active torsions:
REMARK  status: ('A' for Active; 'I' for Inactive)
REMARK    1  A    between atoms: C_1  and  C_2
REMARK    2  A    between atoms: C_2  and  N_3
REMARK    3  A    between atoms: C_2  and  C_16
REMARK    4  A    between atoms: C_4  and  C_6
REMARK    5  A    between atoms: C_19  and  O_20
REMARK    6  A    between atoms: O_20  and  C_21
REMARK                            x       y       z     vdW  Elec       q    Type
REMARK                         _______ _______ _______ _____ _____    ______ ____
ROOT
ATOM      1  C   UNL     1      49.830   7.437  13.642  0.00  0.00    +0.000 C 
ATOM      2  C   UNL     1      48.382   7.661  14.093  0.00  0.00    +0.000 C 
ENDROOT
BRANCH   2   3
ATOM      3  C   UNL     1      47.363   6.923  13.243  0.00  0.00    +0.000 A 
ATOM      4  C   UNL     1      46.741   7.607  12.187  0.00  0.00    +0.000 A 
ATOM      5  C   UNL     1      45.800   6.968  11.378  0.00  0.00    +0.000 A 
ATOM      6  C   UNL     1      45.487   5.625  11.594  0.00  0.00    +0.000 A 
ATOM      7  C   UNL     1      46.053   4.952  12.674  0.00  0.00    +0.000 A 
ATOM      8  C   UNL     1      46.980   5.597  13.497  0.00  0.00    +0.000 A 
BRANCH   6   9
ATOM      9  O   UNL     1      44.567   4.927  10.848  0.00  0.00    +0.000 OA
BRANCH   9  10
ATOM     10  C   UNL     1      45.033   4.151   9.791  0.00  0.00    +0.000 A 
ATOM     11  C   UNL     1      44.891   2.779   9.930  0.00  0.00    +0.000 A 
ATOM     12  C   UNL     1      45.329   1.963   8.893  0.00  0.00    +0.000 A 
ATOM     13  C   UNL     1      45.898   2.542   7.763  0.00  0.00    +0.000 A 
ATOM     14  C   UNL     1      46.021   3.921   7.725  0.00  0.00    +0.000 A 
ATOM     15  N   UNL     1      45.613   4.737   8.719  0.00  0.00    +0.000 NA
ENDBRANCH   9  10
ENDBRANCH   6   9
ENDBRANCH   2   3
BRANCH   2  16
ATOM     16  N   UNL     1      48.205   7.284  15.484  0.00  0.00    +0.000 N 
ATOM     17  C   UNL     1      48.586   8.085  16.526  0.00  0.00    +0.000 C 
ATOM     18  O   UNL     1      49.082   9.194  16.334  0.00  0.00    +0.000 OA
ATOM     19  H   UNL     1      47.807   6.366  15.658  0.00  0.00    +0.000 HD
BRANCH  17  20
ATOM     20  C   UNL     1      48.380   7.569  17.891  0.00  0.00    +0.000 A 
ATOM     21  C   UNL     1      47.899   8.431  18.869  0.00  0.00    +0.000 A 
ATOM     22  S   UNL     1      47.741   7.716  20.406  0.00  0.00    +0.000 S 
ATOM     23  C   UNL     1      48.310   6.222  19.827  0.00  0.00    +0.000 A 
ATOM     24  N   UNL     1      48.442   5.160  20.666  0.00  0.00    +0.000 NA
ATOM     25  C   UNL     1      48.882   4.086  20.103  0.00  0.00    +0.000 A 
ATOM     26  N   UNL     1      49.194   3.976  18.774  0.00  0.00    +0.000 N 
ATOM     27  C   UNL     1      49.075   5.021  17.889  0.00  0.00    +0.000 A 
ATOM     28  O   UNL     1      49.362   4.877  16.704  0.00  0.00    +0.000 OA
ATOM     29  C   UNL     1      48.599   6.262  18.472  0.00  0.00    +0.000 A 
ATOM     30  H   UNL     1      49.526   3.103  18.391  0.00  0.00    +0.000 HD
ENDBRANCH  17  20
ENDBRANCH   2  16
TORSDOF 5
ENDMDL
MODEL 8
REMARK VINA RESULT:    -7.240      2.942      4.030
REMARK INTER + INTRA:          -9.878
REMARK INTER:                  -8.847
REMARK INTRA:                  -1.031
REMARK UNBOUND:                -0.523
REMARK  Name = 
REMARK  6 active torsions:
REMARK  status: ('A' for Active; 'I' for Inactive)
REMARK    1  A    between atoms: C_1  and  C_2
REMARK    2  A    between atoms: C_2  and  N_3
REMARK    3  A    between atoms: C_2  and  C_16
REMARK    4  A    between atoms: C_4  and  C_6
REMARK    5  A    between atoms: C_19  and  O_20
REMARK    6  A    between atoms: O_20  and  C_21
REMARK                            x       y       z     vdW  Elec       q    Type
REMARK                         _______ _______ _______ _____ _____    ______ ____
ROOT
ATOM      1  C   UNL     1      47.390   4.147  16.311  0.00  0.00    +0.000 C 
ATOM      2  C   UNL     1      47.865   5.051  15.168  0.00  0.00    +0.000 C 
ENDROOT
BRANCH   2   3
ATOM      3  C   UNL     1      47.034   4.915  13.904  0.00  0.00    +0.000 A 
ATOM      4  C   UNL     1      46.404   3.690  13.637  0.00  0.00    +0.000 A 
ATOM      5  C   UNL     1      45.628   3.521  12.489  0.00  0.00    +0.000 A 
ATOM      6  C   UNL     1      45.446   4.584  11.604  0.00  0.00    +0.000 A 
ATOM      7  C   UNL     1      46.112   5.787  11.827  0.00  0.00    +0.000 A 
ATOM      8  C   UNL     1      46.906   5.951  12.965  0.00  0.00    +0.000 A 
BRANCH   6   9
ATOM      9  O   UNL     1      44.705   4.497  10.449  0.00  0.00    +0.000 OA
BRANCH   9  10
ATOM     10  C   UNL     1      45.285   3.887   9.341  0.00  0.00    +0.000 A 
ATOM     11  C   UNL     1      45.259   2.501   9.324  0.00  0.00    +0.000 A 
ATOM     12  C   UNL     1      45.815   1.845   8.230  0.00  0.00    +0.000 A 
ATOM     13  C   UNL     1      46.381   2.593   7.202  0.00  0.00    +0.000 A 
ATOM     14  C   UNL     1      46.383   3.973   7.320  0.00  0.00    +0.000 A 
ATOM     15  N   UNL     1      45.860   4.635   8.373  0.00  0.00    +0.000 NA
ENDBRANCH   9  10
ENDBRANCH   6   9
ENDBRANCH   2   3
BRANCH   2  16
ATOM     16  N   UNL     1      47.885   6.444  15.578  0.00  0.00    +0.000 N 
ATOM     17  C   UNL     1      49.042   7.160  15.722  0.00  0.00    +0.000 C 
ATOM     18  O   UNL     1      50.140   6.659  15.483  0.00  0.00    +0.000 OA
ATOM     19  H   UNL     1      46.987   6.867  15.790  0.00  0.00    +0.000 HD
BRANCH  17  20
ATOM     20  C   UNL     1      48.926   8.556  16.177  0.00  0.00    +0.000 A 
ATOM     21  C   UNL     1      49.417   9.571  15.362  0.00  0.00    +0.000 A 
ATOM     22  S   UNL     1      49.248  11.131  16.023  0.00  0.00    +0.000 S 
ATOM     23  C   UNL     1      48.512  10.515  17.426  0.00  0.00    +0.000 A 
ATOM     24  N   UNL     1      48.133  11.349  18.431  0.00  0.00    +0.000 NA
ATOM     25  C   UNL     1      47.586  10.757  19.439  0.00  0.00    +0.000 A 
ATOM     26  N   UNL     1      47.376   9.406  19.528  0.00  0.00    +0.000 N 
ATOM     27  C   UNL     1      47.741   8.526  18.537  0.00  0.00    +0.000 A 
ATOM     28  O   UNL     1      47.531   7.323  18.656  0.00  0.00    +0.000 OA
ATOM     29  C   UNL     1      48.378   9.136  17.384  0.00  0.00    +0.000 A 
ATOM     30  H   UNL     1      46.934   9.004  20.341  0.00  0.00    +0.000 HD
ENDBRANCH  17  20
ENDBRANCH   2  16
TORSDOF 5
ENDMDL
MODEL 9
REMARK VINA RESULT:    -7.117      4.009      8.539
REMARK INTER + INTRA:          -9.720
REMARK INTER:                  -8.675
REMARK INTRA:                  -1.045
REMARK UNBOUND:                -0.523
REMARK  Name = 
REMARK  6 active torsions:
REMARK  status: ('A' for Active; 'I' for Inactive)
REMARK    1  A    between atoms: C_1  and  C_2
REMARK    2  A    between atoms: C_2  and  N_3
REMARK    3  A    between atoms: C_2  and  C_16
REMARK    4  A    between atoms: C_4  and  C_6
REMARK    5  A    between atoms: C_19  and  O_20
REMARK    6  A    between atoms: O_20  and  C_21
REMARK                            x       y       z     vdW  Elec       q    Type
REMARK                         _______ _______ _______ _____ _____    ______ ____
ROOT
ATOM      1  C   UNL     1      48.780   9.865  15.359  0.00  0.00    +0.000 C 
ATOM      2  C   UNL     1      49.055   8.465  14.797  0.00  0.00    +0.000 C 
ENDROOT
BRANCH   2   3
ATOM      3  C   UNL     1      49.592   7.492  15.832  0.00  0.00    +0.000 A 
ATOM      4  C   UNL     1      48.749   7.086  16.879  0.00  0.00    +0.000 A 
ATOM      5  C   UNL     1      49.199   6.190  17.851  0.00  0.00    +0.000 A 
ATOM      6  C   UNL     1      50.491   5.665  17.776  0.00  0.00    +0.000 A 
ATOM      7  C   UNL     1      51.355   6.105  16.776  0.00  0.00    +0.000 A 
ATOM      8  C   UNL     1      50.912   7.017  15.814  0.00  0.00    +0.000 A 
BRANCH   6   9
ATOM      9  O   UNL     1      51.012   4.787  18.696  0.00  0.00    +0.000 OA
BRANCH   9  10
ATOM     10  C   UNL     1      51.390   3.523  18.255  0.00  0.00    +0.000 A 
ATOM     11  C   UNL     1      52.703   3.154  18.509  0.00  0.00    +0.000 A 
ATOM     12  C   UNL     1      53.124   1.894  18.099  0.00  0.00    +0.000 A 
ATOM     13  C   UNL     1      52.227   1.054  17.446  0.00  0.00    +0.000 A 
ATOM     14  C   UNL     1      50.943   1.519  17.215  0.00  0.00    +0.000 A 
ATOM     15  N   UNL     1      50.509   2.740  17.593  0.00  0.00    +0.000 NA
ENDBRANCH   9  10
ENDBRANCH   6   9
ENDBRANCH   2   3
BRANCH   2  16
ATOM     16  N   UNL     1      47.863   7.903  14.188  0.00  0.00    +0.000 N 
ATOM     17  C   UNL     1      47.907   6.923  13.235  0.00  0.00    +0.000 C 
ATOM     18  O   UNL     1      48.974   6.441  12.858  0.00  0.00    +0.000 OA
ATOM     19  H   UNL     1      46.975   8.299  14.480  0.00  0.00    +0.000 HD
BRANCH  17  20
ATOM     20  C   UNL     1      46.624   6.463  12.673  0.00  0.00    +0.000 A 
ATOM     21  C   UNL     1      45.798   7.386  12.042  0.00  0.00    +0.000 A 
ATOM     22  S   UNL     1      44.336   6.730  11.469  0.00  0.00    +0.000 S 
ATOM     23  C   UNL     1      44.746   5.182  12.041  0.00  0.00    +0.000 A 
ATOM     24  N   UNL     1      43.888   4.138  11.887  0.00  0.00    +0.000 NA
ATOM     25  C   UNL     1      44.319   3.018  12.363  0.00  0.00    +0.000 A 
ATOM     26  N   UNL     1      45.534   2.847  12.972  0.00  0.00    +0.000 N 
ATOM     27  C   UNL     1      46.433   3.872  13.147  0.00  0.00    +0.000 A 
ATOM     28  O   UNL     1      47.513   3.674  13.695  0.00  0.00    +0.000 OA
ATOM     29  C   UNL     1      45.994   5.161  12.645  0.00  0.00    +0.000 A 
ATOM     30  H   UNL     1      45.817   1.942  13.315  0.00  0.00    +0.000 HD
ENDBRANCH  17  20
ENDBRANCH   2  16
TORSDOF 5
ENDMDL
