MODEL 1
REMARK VINA RESULT:    -7.790      0.000      0.000
REMARK INTER + INTRA:         -14.118
REMARK INTER:                 -12.345
REMARK INTRA:                  -1.774
REMARK UNBOUND:                -1.774
REMARK  Name = 
REMARK  11 active torsions:
REMARK  status: ('A' for Active; 'I' for Inactive)
REMARK    1  A    between atoms: C_1  and  C_2
REMARK    2  A    between atoms: C_2  and  C_3
REMARK    3  A    between atoms: C_3  and  O_4
REMARK    4  A    between atoms: O_4  and  C_5
REMARK    5  A    between atoms: C_7  and  C_8
REMARK    6  A    between atoms: C_8  and  N_9
REMARK    7  A    between atoms: C_10  and  C_12
REMARK    8  A    between atoms: C_24  and  C_25
REMARK    9  A    between atoms: C_25  and  N_26
REMARK   10  A    between atoms: N_26  and  C_27
REMARK   11  A    between atoms: C_27  and  C_28
REMARK                            x       y       z     vdW  Elec       q    Type
REMARK                         _______ _______ _______ _____ _____    ______ ____
ROOT
ATOM      1  C   UNL     1      45.528   4.958  13.069  0.00  0.00    +0.000 A 
ATOM      2  C   UNL     1      45.990   6.245  13.378  0.00  0.00    +0.000 A 
ATOM      3  C   UNL     1      45.726   7.341  12.548  0.00  0.00    +0.000 A 
ATOM      4  C   UNL     1      44.955   7.147  11.401  0.00  0.00    +0.000 A 
ATOM      5  C   UNL     1      44.447   5.880  11.103  0.00  0.00    +0.000 A 
ATOM      6  C   UNL     1      44.709   4.774  11.938  0.00  0.00    +0.000 A 
ENDROOT
BRANCH   1   7
ATOM      7  O   UNL     1      45.840   3.846  13.815  0.00  0.00    +0.000 OA
BRANCH   7   8
ATOM      8  C   UNL     1      47.183   3.781  14.303  0.00  0.00    +0.000 C 
BRANCH   8  10
ATOM      9  C   UNL     1      48.101   2.960  16.485  0.00  0.00    +0.000 C 
ATOM     10  C   UNL     1      47.193   3.980  15.814  0.00  0.00    +0.000 C 
ENDBRANCH   8  10
ENDBRANCH   7   8
ENDBRANCH   1   7
BRANCH   3  11
ATOM     11  C   UNL     1      46.249   8.699  12.932  0.00  0.00    +0.000 C 
BRANCH  11  12
ATOM     12  N   UNL     1      47.010   8.645  14.153  0.00  0.00    +0.000 N 
ATOM     13  C   UNL     1      48.099   9.440  14.393  0.00  0.00    +0.000 C 
ATOM     14  O   UNL     1      48.504  10.263  13.576  0.00  0.00    +0.000 OA
ATOM     15  H   UNL     1      46.842   7.842  14.752  0.00  0.00    +0.000 HD
BRANCH  13  16
ATOM     16  C   UNL     1      48.716   9.317  15.722  0.00  0.00    +0.000 A 
ATOM     17  C   UNL     1      48.686  10.399  16.593  0.00  0.00    +0.000 A 
ATOM     18  S   UNL     1      49.394  10.080  18.111  0.00  0.00    +0.000 S 
ATOM     19  C   UNL     1      49.812   8.498  17.643  0.00  0.00    +0.000 A 
ATOM     20  N   UNL     1      50.480   7.673  18.495  0.00  0.00    +0.000 NA
ATOM     21  C   UNL     1      50.767   6.516  18.000  0.00  0.00    +0.000 A 
ATOM     22  N   UNL     1      50.436   6.104  16.735  0.00  0.00    +0.000 N 
ATOM     23  C   UNL     1      49.704   6.877  15.867  0.00  0.00    +0.000 A 
ATOM     24  O   UNL     1      49.326   6.432  14.787  0.00  0.00    +0.000 OA
ATOM     25  C   UNL     1      49.393   8.207  16.356  0.00  0.00    +0.000 A 
ATOM     26  H   UNL     1      50.668   5.174  16.419  0.00  0.00    +0.000 HD
ENDBRANCH  13  16
ENDBRANCH  11  12
ENDBRANCH   3  11
BRANCH   6  27
ATOM     27  C   UNL     1      44.077   3.437  11.602  0.00  0.00    +0.000 C 
BRANCH  27  28
ATOM     28  N   UNL     1      44.979   2.622  10.796  0.00  0.00    +0.000 NA
ATOM     29  H   UNL     1      45.191   1.756  11.286  0.00  0.00    +0.000 HD
BRANCH  28  30
ATOM     30  C   UNL     1      44.428   2.301   9.479  0.00  0.00    +0.000 C 
BRANCH  30  31
ATOM     31  C   UNL     1      45.525   2.278   8.425  0.00  0.00    +0.000 A 
ATOM     32  C   UNL     1      45.818   3.440   7.712  0.00  0.00    +0.000 A 
ATOM     33  C   UNL     1      46.868   3.425   6.799  0.00  0.00    +0.000 A 
ATOM     34  C   UNL     1      47.589   2.252   6.617  0.00  0.00    +0.000 A 
ATOM     35  C   UNL     1      47.228   1.137   7.355  0.00  0.00    +0.000 A 
ATOM     36  N   UNL     1      46.219   1.120   8.254  0.00  0.00    +0.000 NA
ENDBRANCH  30  31
ENDBRANCH  28  30
ENDBRANCH  27  28
ENDBRANCH   6  27
TORSDOF 10
ENDMDL
MODEL 2
REMARK VINA RESULT:    -7.522      2.032      2.408
REMARK INTER + INTRA:         -13.693
REMARK INTER:                 -11.845
REMARK INTRA:                  -1.848
REMARK UNBOUND:                -1.774
REMARK  Name = 
REMARK  11 active torsions:
REMARK  status: ('A' for Active; 'I' for Inactive)
REMARK    1  A    between atoms: C_1  and  C_2
REMARK    2  A    between atoms: C_2  and  C_3
REMARK    3  A    between atoms: C_3  and  O_4
REMARK    4  A    between atoms: O_4  and  C_5
REMARK    5  A    between atoms: C_7  and  C_8
REMARK    6  A    between atoms: C_8  and  N_9
REMARK    7  A    between atoms: C_10  and  C_12
REMARK    8  A    between atoms: C_24  and  C_25
REMARK    9  A    between atoms: C_25  and  N_26
REMARK   10  A    between atoms: N_26  and  C_27
REMARK   11  A    between atoms: C_27  and  C_28
REMARK                            x       y       z     vdW  Elec       q    Type
REMARK                         _______ _______ _______ _____ _____    ______ ____
ROOT
ATOM      1  C   UNL     1      46.735   4.960  13.417  0.00  0.00    +0.000 A 
ATOM      2  C   UNL     1      47.760   5.913  13.504  0.00  0.00    +0.000 A 
ATOM      3  C   UNL     1      47.936   6.896  12.523  0.00  0.00    +0.000 A 
ATOM      4  C   UNL     1      47.046   6.942  11.449  0.00  0.00    +0.000 A 
ATOM      5  C   UNL     1      45.991   6.031  11.372  0.00  0.00    +0.000 A 
ATOM      6  C   UNL     1      45.808   5.041  12.359  0.00  0.00    +0.000 A 
ENDROOT
BRANCH   1   7
ATOM      7  O   UNL     1      46.584   3.930  14.317  0.00  0.00    +0.000 OA
BRANCH   7   8
ATOM      8  C   UNL     1      47.000   4.210  15.656  0.00  0.00    +0.000 C 
BRANCH   8  10
ATOM      9  C   UNL     1      47.685   2.894  17.676  0.00  0.00    +0.000 C 
ATOM     10  C   UNL     1      47.868   3.070  16.176  0.00  0.00    +0.000 C 
ENDBRANCH   8  10
ENDBRANCH   7   8
ENDBRANCH   1   7
BRANCH   3  11
ATOM     11  C   UNL     1      49.055   7.891  12.670  0.00  0.00    +0.000 C 
BRANCH  11  12
ATOM     12  N   UNL     1      50.103   7.385  13.519  0.00  0.00    +0.000 N 
ATOM     13  C   UNL     1      50.536   8.036  14.643  0.00  0.00    +0.000 C 
ATOM     14  O   UNL     1      50.056   9.105  15.010  0.00  0.00    +0.000 OA
ATOM     15  H   UNL     1      50.662   6.627  13.139  0.00  0.00    +0.000 HD
BRANCH  13  16
ATOM     16  C   UNL     1      51.558   7.344  15.443  0.00  0.00    +0.000 A 
ATOM     17  C   UNL     1      52.902   7.510  15.129  0.00  0.00    +0.000 A 
ATOM     18  S   UNL     1      53.961   6.687  16.180  0.00  0.00    +0.000 S 
ATOM     19  C   UNL     1      52.662   6.037  17.067  0.00  0.00    +0.000 A 
ATOM     20  N   UNL     1      52.885   5.202  18.118  0.00  0.00    +0.000 NA
ATOM     21  C   UNL     1      51.812   4.751  18.677  0.00  0.00    +0.000 A 
ATOM     22  N   UNL     1      50.537   5.070  18.288  0.00  0.00    +0.000 N 
ATOM     23  C   UNL     1      50.266   5.960  17.278  0.00  0.00    +0.000 A 
ATOM     24  O   UNL     1      49.115   6.311  17.034  0.00  0.00    +0.000 OA
ATOM     25  C   UNL     1      51.437   6.463  16.584  0.00  0.00    +0.000 A 
ATOM     26  H   UNL     1      49.739   4.703  18.786  0.00  0.00    +0.000 HD
ENDBRANCH  13  16
ENDBRANCH  11  12
ENDBRANCH   3  11
BRANCH   6  27
ATOM     27  C   UNL     1      44.608   4.120  12.260  0.00  0.00    +0.000 C 
BRANCH  27  28
ATOM     28  N   UNL     1      44.934   2.917  11.503  0.00  0.00    +0.000 NA
ATOM     29  H   UNL     1      44.731   2.092  12.063  0.00  0.00    +0.000 HD
BRANCH  28  30
ATOM     30  C   UNL     1      44.202   2.826  10.239  0.00  0.00    +0.000 C 
BRANCH  30  31
ATOM     31  C   UNL     1      45.162   2.728   9.064  0.00  0.00    +0.000 A 
ATOM     32  C   UNL     1      45.482   3.876   8.339  0.00  0.00    +0.000 A 
ATOM     33  C   UNL     1      46.413   3.786   7.309  0.00  0.00    +0.000 A 
ATOM     34  C   UNL     1      46.992   2.556   7.026  0.00  0.00    +0.000 A 
ATOM     35  C   UNL     1      46.611   1.461   7.783  0.00  0.00    +0.000 A 
ATOM     36  N   UNL     1      45.716   1.515   8.794  0.00  0.00    +0.000 NA
ENDBRANCH  30  31
ENDBRANCH  28  30
ENDBRANCH  27  28
ENDBRANCH   6  27
TORSDOF 10
ENDMDL
MODEL 3
REMARK VINA RESULT:    -7.347      2.398      3.896
REMARK INTER + INTRA:         -13.415
REMARK INTER:                 -12.267
REMARK INTRA:                  -1.148
REMARK UNBOUND:                -1.774
REMARK  Name = 
REMARK  11 active torsions:
REMARK  status: ('A' for Active; 'I' for Inactive)
REMARK    1  A    between atoms: C_1  and  C_2
REMARK    2  A    between atoms: C_2  and  C_3
REMARK    3  A    between atoms: C_3  and  O_4
REMARK    4  A    between atoms: O_4  and  C_5
REMARK    5  A    between atoms: C_7  and  C_8
REMARK    6  A    between atoms: C_8  and  N_9
REMARK    7  A    between atoms: C_10  and  C_12
REMARK    8  A    between atoms: C_24  and  C_25
REMARK    9  A    between atoms: C_25  and  N_26
REMARK   10  A    between atoms: N_26  and  C_27
REMARK   11  A    between atoms: C_27  and  C_28
REMARK                            x       y       z     vdW  Elec       q    Type
REMARK                         _______ _______ _______ _____ _____    ______ ____
ROOT
ATOM      1  C   UNL     1      45.207   6.882  11.723  0.00  0.00    +0.000 A 
ATOM      2  C   UNL     1      46.402   7.237  12.363  0.00  0.00    +0.000 A 
ATOM      3  C   UNL     1      47.120   6.322  13.142  0.00  0.00    +0.000 A 
ATOM      4  C   UNL     1      46.644   5.015  13.255  0.00  0.00    +0.000 A 
ATOM      5  C   UNL     1      45.480   4.631  12.584  0.00  0.00    +0.000 A 
ATOM      6  C   UNL     1      44.756   5.548  11.797  0.00  0.00    +0.000 A 
ENDROOT
BRANCH   1   7
ATOM      7  O   UNL     1      44.432   7.776  11.020  0.00  0.00    +0.000 OA
BRANCH   7   8
ATOM      8  C   UNL     1      44.557   9.146  11.410  0.00  0.00    +0.000 C 
BRANCH   8  10
ATOM      9  C   UNL     1      42.453  10.236  10.598  0.00  0.00    +0.000 C 
ATOM     10  C   UNL     1      43.940  10.044  10.345  0.00  0.00    +0.000 C 
ENDBRANCH   8  10
ENDBRANCH   7   8
ENDBRANCH   1   7
BRANCH   3  11
ATOM     11  C   UNL     1      48.397   6.762  13.805  0.00  0.00    +0.000 C 
BRANCH  11  12
ATOM     12  N   UNL     1      48.258   6.806  15.238  0.00  0.00    +0.000 N 
ATOM     13  C   UNL     1      49.318   6.696  16.097  0.00  0.00    +0.000 C 
ATOM     14  O   UNL     1      50.472   6.551  15.702  0.00  0.00    +0.000 OA
ATOM     15  H   UNL     1      47.314   6.709  15.601  0.00  0.00    +0.000 HD
BRANCH  13  16
ATOM     16  C   UNL     1      49.015   6.843  17.529  0.00  0.00    +0.000 A 
ATOM     17  C   UNL     1      48.765   8.108  18.049  0.00  0.00    +0.000 A 
ATOM     18  S   UNL     1      48.377   8.103  19.709  0.00  0.00    +0.000 S 
ATOM     19  C   UNL     1      48.576   6.416  19.807  0.00  0.00    +0.000 A 
ATOM     20  N   UNL     1      48.410   5.762  20.988  0.00  0.00    +0.000 NA
ATOM     21  C   UNL     1      48.627   4.492  20.929  0.00  0.00    +0.000 A 
ATOM     22  N   UNL     1      48.985   3.813  19.793  0.00  0.00    +0.000 N 
ATOM     23  C   UNL     1      49.098   4.421  18.566  0.00  0.00    +0.000 A 
ATOM     24  O   UNL     1      49.305   3.764  17.550  0.00  0.00    +0.000 OA
ATOM     25  C   UNL     1      48.908   5.859  18.584  0.00  0.00    +0.000 A 
ATOM     26  H   UNL     1      49.115   2.813  19.809  0.00  0.00    +0.000 HD
ENDBRANCH  13  16
ENDBRANCH  11  12
ENDBRANCH   3  11
BRANCH   6  27
ATOM     27  C   UNL     1      43.536   5.061  11.039  0.00  0.00    +0.000 C 
BRANCH  27  28
ATOM     28  N   UNL     1      43.891   4.665   9.680  0.00  0.00    +0.000 NA
ATOM     29  H   UNL     1      44.695   5.201   9.364  0.00  0.00    +0.000 HD
BRANCH  28  30
ATOM     30  C   UNL     1      44.196   3.238   9.567  0.00  0.00    +0.000 C 
BRANCH  30  31
ATOM     31  C   UNL     1      45.345   3.007   8.598  0.00  0.00    +0.000 A 
ATOM     32  C   UNL     1      45.888   1.728   8.467  0.00  0.00    +0.000 A 
ATOM     33  C   UNL     1      46.894   1.515   7.529  0.00  0.00    +0.000 A 
ATOM     34  C   UNL     1      47.334   2.581   6.755  0.00  0.00    +0.000 A 
ATOM     35  C   UNL     1      46.753   3.822   6.955  0.00  0.00    +0.000 A 
ATOM     36  N   UNL     1      45.770   4.062   7.852  0.00  0.00    +0.000 NA
ENDBRANCH  30  31
ENDBRANCH  28  30
ENDBRANCH  27  28
ENDBRANCH   6  27
TORSDOF 10
ENDMDL
MODEL 4
REMARK VINA RESULT:    -7.308      2.491      3.854
REMARK INTER + INTRA:         -13.354
REMARK INTER:                 -11.916
REMARK INTRA:                  -1.438
REMARK UNBOUND:                -1.774
REMARK  Name = 
REMARK  11 active torsions:
REMARK  status: ('A' for Active; 'I' for Inactive)
REMARK    1  A    between atoms: C_1  and  C_2
REMARK    2  A    between atoms: C_2  and  C_3
REMARK    3  A    between atoms: C_3  and  O_4
REMARK    4  A    between atoms: O_4  and  C_5
REMARK    5  A    between atoms: C_7  and  C_8
REMARK    6  A    between atoms: C_8  and  N_9
REMARK    7  A    between atoms: C_10  and  C_12
REMARK    8  A    between atoms: C_24  and  C_25
REMARK    9  A    between atoms: C_25  and  N_26
REMARK   10  A    between atoms: N_26  and  C_27
REMARK   11  A    between atoms: C_27  and  C_28
REMARK                            x       y       z     vdW  Elec       q    Type
REMARK                         _______ _______ _______ _____ _____    ______ ____
ROOT
ATOM      1  C   UNL     1      46.369   5.930  12.332  0.00  0.00    +0.000 A 
ATOM      2  C   UNL     1      47.008   5.260  13.384  0.00  0.00    +0.000 A 
ATOM      3  C   UNL     1      46.702   3.933  13.705  0.00  0.00    +0.000 A 
ATOM      4  C   UNL     1      45.758   3.254  12.933  0.00  0.00    +0.000 A 
ATOM      5  C   UNL     1      45.147   3.891  11.851  0.00  0.00    +0.000 A 
ATOM      6  C   UNL     1      45.454   5.228  11.523  0.00  0.00    +0.000 A 
ENDROOT
BRANCH   1   7
ATOM      7  O   UNL     1      46.583   7.258  12.042  0.00  0.00    +0.000 OA
BRANCH   7   8
ATOM      8  C   UNL     1      47.817   7.560  11.385  0.00  0.00    +0.000 C 
BRANCH   8  10
ATOM      9  C   UNL     1      50.232   8.000  11.888  0.00  0.00    +0.000 C 
ATOM     10  C   UNL     1      48.802   8.152  12.385  0.00  0.00    +0.000 C 
ENDBRANCH   8  10
ENDBRANCH   7   8
ENDBRANCH   1   7
BRANCH   3  11
ATOM     11  C   UNL     1      47.421   3.266  14.847  0.00  0.00    +0.000 C 
BRANCH  11  12
ATOM     12  N   UNL     1      47.773   4.213  15.873  0.00  0.00    +0.000 N 
ATOM     13  C   UNL     1      47.334   4.114  17.166  0.00  0.00    +0.000 C 
ATOM     14  O   UNL     1      46.603   3.202  17.544  0.00  0.00    +0.000 OA
ATOM     15  H   UNL     1      48.190   5.083  15.556  0.00  0.00    +0.000 HD
BRANCH  13  16
ATOM     16  C   UNL     1      47.851   5.118  18.108  0.00  0.00    +0.000 A 
ATOM     17  C   UNL     1      46.962   5.833  18.903  0.00  0.00    +0.000 A 
ATOM     18  S   UNL     1      47.720   6.917  19.977  0.00  0.00    +0.000 S 
ATOM     19  C   UNL     1      49.263   6.509  19.387  0.00  0.00    +0.000 A 
ATOM     20  N   UNL     1      50.379   7.111  19.879  0.00  0.00    +0.000 NA
ATOM     21  C   UNL     1      51.479   6.737  19.317  0.00  0.00    +0.000 A 
ATOM     22  N   UNL     1      51.565   5.805  18.315  0.00  0.00    +0.000 N 
ATOM     23  C   UNL     1      50.473   5.123  17.835  0.00  0.00    +0.000 A 
ATOM     24  O   UNL     1      50.602   4.213  17.021  0.00  0.00    +0.000 OA
ATOM     25  C   UNL     1      49.203   5.539  18.401  0.00  0.00    +0.000 A 
ATOM     26  H   UNL     1      52.461   5.537  17.935  0.00  0.00    +0.000 HD
ENDBRANCH  13  16
ENDBRANCH  11  12
ENDBRANCH   3  11
BRANCH   6  27
ATOM     27  C   UNL     1      44.810   5.848  10.299  0.00  0.00    +0.000 C 
BRANCH  27  28
ATOM     28  N   UNL     1      45.442   5.367   9.076  0.00  0.00    +0.000 NA
ATOM     29  H   UNL     1      46.409   5.112   9.266  0.00  0.00    +0.000 HD
BRANCH  28  30
ATOM     30  C   UNL     1      44.751   4.215   8.495  0.00  0.00    +0.000 C 
BRANCH  30  31
ATOM     31  C   UNL     1      45.742   3.260   7.848  0.00  0.00    +0.000 A 
ATOM     32  C   UNL     1      45.896   1.973   8.365  0.00  0.00    +0.000 A 
ATOM     33  C   UNL     1      46.756   1.087   7.724  0.00  0.00    +0.000 A 
ATOM     34  C   UNL     1      47.443   1.510   6.593  0.00  0.00    +0.000 A 
ATOM     35  C   UNL     1      47.246   2.807   6.151  0.00  0.00    +0.000 A 
ATOM     36  N   UNL     1      46.413   3.690   6.746  0.00  0.00    +0.000 NA
ENDBRANCH  30  31
ENDBRANCH  28  30
ENDBRANCH  27  28
ENDBRANCH   6  27
TORSDOF 10
ENDMDL
MODEL 5
REMARK VINA RESULT:    -7.237      1.924      3.774
REMARK INTER + INTRA:         -13.241
REMARK INTER:                 -11.792
REMARK INTRA:                  -1.449
REMARK UNBOUND:                -1.774
REMARK  Name = 
REMARK  11 active torsions:
REMARK  status: ('A' for Active; 'I' for Inactive)
REMARK    1  A    between atoms: C_1  and  C_2
REMARK    2  A    between atoms: C_2  and  C_3
REMARK    3  A    between atoms: C_3  and  O_4
REMARK    4  A    between atoms: O_4  and  C_5
REMARK    5  A    between atoms: C_7  and  C_8
REMARK    6  A    between atoms: C_8  and  N_9
REMARK    7  A    between atoms: C_10  and  C_12
REMARK    8  A    between atoms: C_24  and  C_25
REMARK    9  A    between atoms: C_25  and  N_26
REMARK   10  A    between atoms: N_26  and  C_27
REMARK   11  A    between atoms: C_27  and  C_28
REMARK                            x       y       z     vdW  Elec       q    Type
REMARK                         _______ _______ _______ _____ _____    ______ ____
ROOT
ATOM      1  C   UNL     1      45.478   5.926  12.867  0.00  0.00    +0.000 A 
ATOM      2  C   UNL     1      46.295   5.576  13.952  0.00  0.00    +0.000 A 
ATOM      3  C   UNL     1      46.701   4.254  14.171  0.00  0.00    +0.000 A 
ATOM      4  C   UNL     1      46.305   3.270  13.265  0.00  0.00    +0.000 A 
ATOM      5  C   UNL     1      45.531   3.609  12.152  0.00  0.00    +0.000 A 
ATOM      6  C   UNL     1      45.122   4.939  11.927  0.00  0.00    +0.000 A 
ENDROOT
BRANCH   1   7
ATOM      7  O   UNL     1      44.992   7.198  12.669  0.00  0.00    +0.000 OA
BRANCH   7   8
ATOM      8  C   UNL     1      45.973   8.205  12.411  0.00  0.00    +0.000 C 
BRANCH   8  10
ATOM      9  C   UNL     1      44.210   9.405  11.095  0.00  0.00    +0.000 C 
ATOM     10  C   UNL     1      45.287   9.542  12.161  0.00  0.00    +0.000 C 
ENDBRANCH   8  10
ENDBRANCH   7   8
ENDBRANCH   1   7
BRANCH   3  11
ATOM     11  C   UNL     1      47.576   3.939  15.353  0.00  0.00    +0.000 C 
BRANCH  11  12
ATOM     12  N   UNL     1      47.529   4.987  16.339  0.00  0.00    +0.000 N 
ATOM     13  C   UNL     1      48.642   5.468  16.976  0.00  0.00    +0.000 C 
ATOM     14  O   UNL     1      49.768   5.035  16.748  0.00  0.00    +0.000 OA
ATOM     15  H   UNL     1      46.610   5.217  16.706  0.00  0.00    +0.000 HD
BRANCH  13  16
ATOM     16  C   UNL     1      48.430   6.596  17.896  0.00  0.00    +0.000 A 
ATOM     17  C   UNL     1      48.346   6.357  19.263  0.00  0.00    +0.000 A 
ATOM     18  S   UNL     1      48.153   7.770  20.197  0.00  0.00    +0.000 S 
ATOM     19  C   UNL     1      48.125   8.750  18.806  0.00  0.00    +0.000 A 
ATOM     20  N   UNL     1      47.960  10.097  18.907  0.00  0.00    +0.000 NA
ATOM     21  C   UNL     1      47.919  10.714  17.774  0.00  0.00    +0.000 A 
ATOM     22  N   UNL     1      48.042  10.109  16.550  0.00  0.00    +0.000 N 
ATOM     23  C   UNL     1      48.278   8.764  16.404  0.00  0.00    +0.000 A 
ATOM     24  O   UNL     1      48.499   8.275  15.300  0.00  0.00    +0.000 OA
ATOM     25  C   UNL     1      48.287   8.013  17.646  0.00  0.00    +0.000 A 
ATOM     26  H   UNL     1      48.028  10.655  15.701  0.00  0.00    +0.000 HD
ENDBRANCH  13  16
ENDBRANCH  11  12
ENDBRANCH   3  11
BRANCH   6  27
ATOM     27  C   UNL     1      44.340   5.262  10.669  0.00  0.00    +0.000 C 
BRANCH  27  28
ATOM     28  N   UNL     1      45.135   4.993   9.476  0.00  0.00    +0.000 NA
ATOM     29  H   UNL     1      46.050   4.637   9.745  0.00  0.00    +0.000 HD
BRANCH  28  30
ATOM     30  C   UNL     1      44.498   4.034   8.573  0.00  0.00    +0.000 C 
BRANCH  30  31
ATOM     31  C   UNL     1      45.529   3.095   7.966  0.00  0.00    +0.000 A 
ATOM     32  C   UNL     1      46.345   3.548   6.929  0.00  0.00    +0.000 A 
ATOM     33  C   UNL     1      47.330   2.702   6.427  0.00  0.00    +0.000 A 
ATOM     34  C   UNL     1      47.469   1.430   6.967  0.00  0.00    +0.000 A 
ATOM     35  C   UNL     1      46.611   1.052   7.986  0.00  0.00    +0.000 A 
ATOM     36  N   UNL     1      45.649   1.850   8.501  0.00  0.00    +0.000 NA
ENDBRANCH  30  31
ENDBRANCH  28  30
ENDBRANCH  27  28
ENDBRANCH   6  27
TORSDOF 10
ENDMDL
MODEL 6
REMARK VINA RESULT:    -7.183      1.855      2.767
REMARK INTER + INTRA:         -13.156
REMARK INTER:                 -11.229
REMARK INTRA:                  -1.927
REMARK UNBOUND:                -1.774
REMARK  Name = 
REMARK  11 active torsions:
REMARK  status: ('A' for Active; 'I' for Inactive)
REMARK    1  A    between atoms: C_1  and  C_2
REMARK    2  A    between atoms: C_2  and  C_3
REMARK    3  A    between atoms: C_3  and  O_4
REMARK    4  A    between atoms: O_4  and  C_5
REMARK    5  A    between atoms: C_7  and  C_8
REMARK    6  A    between atoms: C_8  and  N_9
REMARK    7  A    between atoms: C_10  and  C_12
REMARK    8  A    between atoms: C_24  and  C_25
REMARK    9  A    between atoms: C_25  and  N_26
REMARK   10  A    between atoms: N_26  and  C_27
REMARK   11  A    between atoms: C_27  and  C_28
REMARK                            x       y       z     vdW  Elec       q    Type
REMARK                         _______ _______ _______ _____ _____    ______ ____
ROOT
ATOM      1  C   UNL     1      46.292   6.276  12.392  0.00  0.00    +0.000 A 
ATOM      2  C   UNL     1      47.035   7.026  13.315  0.00  0.00    +0.000 A 
ATOM      3  C   UNL     1      46.874   8.411  13.436  0.00  0.00    +0.000 A 
ATOM      4  C   UNL     1      45.926   9.052  12.638  0.00  0.00    +0.000 A 
ATOM      5  C   UNL     1      45.143   8.313  11.747  0.00  0.00    +0.000 A 
ATOM      6  C   UNL     1      45.300   6.918  11.623  0.00  0.00    +0.000 A 
ENDROOT
BRANCH   1   7
ATOM      7  O   UNL     1      46.483   4.930  12.187  0.00  0.00    +0.000 OA
BRANCH   7   8
ATOM      8  C   UNL     1      45.817   4.060  13.106  0.00  0.00    +0.000 C 
BRANCH   8  10
ATOM      9  C   UNL     1      43.663   3.011  12.374  0.00  0.00    +0.000 C 
ATOM     10  C   UNL     1      45.180   2.901  12.351  0.00  0.00    +0.000 C 
ENDBRANCH   8  10
ENDBRANCH   7   8
ENDBRANCH   1   7
BRANCH   3  11
ATOM     11  C   UNL     1      47.701   9.163  14.444  0.00  0.00    +0.000 C 
BRANCH  11  12
ATOM     12  N   UNL     1      47.939   8.374  15.625  0.00  0.00    +0.000 N 
ATOM     13  C   UNL     1      49.185   8.182  16.159  0.00  0.00    +0.000 C 
ATOM     14  O   UNL     1      50.195   8.673  15.664  0.00  0.00    +0.000 OA
ATOM     15  H   UNL     1      47.171   7.784  15.933  0.00  0.00    +0.000 HD
BRANCH  13  16
ATOM     16  C   UNL     1      49.245   7.416  17.414  0.00  0.00    +0.000 A 
ATOM     17  C   UNL     1      49.647   8.050  18.583  0.00  0.00    +0.000 A 
ATOM     18  S   UNL     1      49.612   7.042  19.958  0.00  0.00    +0.000 S 
ATOM     19  C   UNL     1      49.105   5.707  19.033  0.00  0.00    +0.000 A 
ATOM     20  N   UNL     1      48.907   4.492  19.613  0.00  0.00    +0.000 NA
ATOM     21  C   UNL     1      48.561   3.559  18.791  0.00  0.00    +0.000 A 
ATOM     22  N   UNL     1      48.384   3.733  17.443  0.00  0.00    +0.000 N 
ATOM     23  C   UNL     1      48.506   4.954  16.826  0.00  0.00    +0.000 A 
ATOM     24  O   UNL     1      48.227   5.096  15.639  0.00  0.00    +0.000 OA
ATOM     25  C   UNL     1      48.939   6.031  17.697  0.00  0.00    +0.000 A 
ATOM     26  H   UNL     1      48.087   2.965  16.859  0.00  0.00    +0.000 HD
ENDBRANCH  13  16
ENDBRANCH  11  12
ENDBRANCH   3  11
BRANCH   6  27
ATOM     27  C   UNL     1      44.379   6.156  10.690  0.00  0.00    +0.000 C 
BRANCH  27  28
ATOM     28  N   UNL     1      45.132   5.538   9.604  0.00  0.00    +0.000 NA
ATOM     29  H   UNL     1      46.057   5.272   9.934  0.00  0.00    +0.000 HD
BRANCH  28  30
ATOM     30  C   UNL     1      44.466   4.357   9.053  0.00  0.00    +0.000 C 
BRANCH  30  31
ATOM     31  C   UNL     1      45.468   3.443   8.365  0.00  0.00    +0.000 A 
ATOM     32  C   UNL     1      45.526   2.095   8.719  0.00  0.00    +0.000 A 
ATOM     33  C   UNL     1      46.400   1.255   8.036  0.00  0.00    +0.000 A 
ATOM     34  C   UNL     1      47.195   1.782   7.028  0.00  0.00    +0.000 A 
ATOM     35  C   UNL     1      47.088   3.133   6.745  0.00  0.00    +0.000 A 
ATOM     36  N   UNL     1      46.245   3.975   7.384  0.00  0.00    +0.000 NA
ENDBRANCH  30  31
ENDBRANCH  28  30
ENDBRANCH  27  28
ENDBRANCH   6  27
TORSDOF 10
ENDMDL
MODEL 7
REMARK VINA RESULT:    -7.133      2.952      3.528
REMARK INTER + INTRA:         -13.076
REMARK INTER:                 -11.456
REMARK INTRA:                  -1.619
REMARK UNBOUND:                -1.774
REMARK  Name = 
REMARK  11 active torsions:
REMARK  status: ('A' for Active; 'I' for Inactive)
REMARK    1  A    between atoms: C_1  and  C_2
REMARK    2  A    between atoms: C_2  and  C_3
REMARK    3  A    between atoms: C_3  and  O_4
REMARK    4  A    between atoms: O_4  and  C_5
REMARK    5  A    between atoms: C_7  and  C_8
REMARK    6  A    between atoms: C_8  and  N_9
REMARK    7  A    between atoms: C_10  and  C_12
REMARK    8  A    between atoms: C_24  and  C_25
REMARK    9  A    between atoms: C_25  and  N_26
REMARK   10  A    between atoms: N_26  and  C_27
REMARK   11  A    between atoms: C_27  and  C_28
REMARK                            x       y       z     vdW  Elec       q    Type
REMARK                         _______ _______ _______ _____ _____    ______ ____
ROOT
ATOM      1  C   UNL     1      45.671   4.998  12.939  0.00  0.00    +0.000 A 
ATOM      2  C   UNL     1      46.054   6.314  13.234  0.00  0.00    +0.000 A 
ATOM      3  C   UNL     1      45.679   7.389  12.421  0.00  0.00    +0.000 A 
ATOM      4  C   UNL     1      44.877   7.143  11.306  0.00  0.00    +0.000 A 
ATOM      5  C   UNL     1      44.446   5.844  11.024  0.00  0.00    +0.000 A 
ATOM      6  C   UNL     1      44.820   4.758  11.842  0.00  0.00    +0.000 A 
ENDROOT
BRANCH   1   7
ATOM      7  O   UNL     1      46.091   3.908  13.666  0.00  0.00    +0.000 OA
BRANCH   7   8
ATOM      8  C   UNL     1      47.302   4.085  14.406  0.00  0.00    +0.000 C 
BRANCH   8  10
ATOM      9  C   UNL     1      48.213   4.541  16.696  0.00  0.00    +0.000 C 
ATOM     10  C   UNL     1      47.000   4.081  15.899  0.00  0.00    +0.000 C 
ENDBRANCH   8  10
ENDBRANCH   7   8
ENDBRANCH   1   7
BRANCH   3  11
ATOM     11  C   UNL     1      46.121   8.780  12.789  0.00  0.00    +0.000 C 
BRANCH  11  12
ATOM     12  N   UNL     1      47.343   9.139  12.117  0.00  0.00    +0.000 N 
ATOM     13  C   UNL     1      48.327   9.891  12.702  0.00  0.00    +0.000 C 
ATOM     14  O   UNL     1      48.234  10.315  13.851  0.00  0.00    +0.000 OA
ATOM     15  H   UNL     1      47.363   8.994  11.112  0.00  0.00    +0.000 HD
BRANCH  13  16
ATOM     16  C   UNL     1      49.547  10.101  11.908  0.00  0.00    +0.000 A 
ATOM     17  C   UNL     1      49.935  11.394  11.578  0.00  0.00    +0.000 A 
ATOM     18  S   UNL     1      51.395  11.471  10.703  0.00  0.00    +0.000 S 
ATOM     19  C   UNL     1      51.539   9.776  10.688  0.00  0.00    +0.000 A 
ATOM     20  N   UNL     1      52.584   9.170  10.062  0.00  0.00    +0.000 NA
ATOM     21  C   UNL     1      52.551   7.880  10.095  0.00  0.00    +0.000 A 
ATOM     22  N   UNL     1      51.573   7.141  10.707  0.00  0.00    +0.000 N 
ATOM     23  C   UNL     1      50.537   7.709  11.408  0.00  0.00    +0.000 A 
ATOM     24  O   UNL     1      49.745   7.017  12.042  0.00  0.00    +0.000 OA
ATOM     25  C   UNL     1      50.501   9.159  11.365  0.00  0.00    +0.000 A 
ATOM     26  H   UNL     1      51.619   6.133  10.719  0.00  0.00    +0.000 HD
ENDBRANCH  13  16
ENDBRANCH  11  12
ENDBRANCH   3  11
BRANCH   6  27
ATOM     27  C   UNL     1      44.270   3.381  11.527  0.00  0.00    +0.000 C 
BRANCH  27  28
ATOM     28  N   UNL     1      44.009   3.237  10.099  0.00  0.00    +0.000 NA
ATOM     29  H   UNL     1      44.469   3.986   9.587  0.00  0.00    +0.000 HD
BRANCH  28  30
ATOM     30  C   UNL     1      44.459   1.950   9.567  0.00  0.00    +0.000 C 
BRANCH  30  31
ATOM     31  C   UNL     1      45.513   2.151   8.489  0.00  0.00    +0.000 A 
ATOM     32  C   UNL     1      45.643   3.398   7.876  0.00  0.00    +0.000 A 
ATOM     33  C   UNL     1      46.654   3.587   6.940  0.00  0.00    +0.000 A 
ATOM     34  C   UNL     1      47.501   2.529   6.635  0.00  0.00    +0.000 A 
ATOM     35  C   UNL     1      47.298   1.319   7.277  0.00  0.00    +0.000 A 
ATOM     36  N   UNL     1      46.330   1.103   8.196  0.00  0.00    +0.000 NA
ENDBRANCH  30  31
ENDBRANCH  28  30
ENDBRANCH  27  28
ENDBRANCH   6  27
TORSDOF 10
ENDMDL
MODEL 8
REMARK VINA RESULT:    -6.779      2.145      2.547
REMARK INTER + INTRA:         -12.516
REMARK INTER:                 -10.807
REMARK INTRA:                  -1.709
REMARK UNBOUND:                -1.774
REMARK  Name = 
REMARK  11 active torsions:
REMARK  status: ('A' for Active; 'I' for Inactive)
REMARK    1  A    between atoms: C_1  and  C_2
REMARK    2  A    between atoms: C_2  and  C_3
REMARK    3  A    between atoms: C_3  and  O_4
REMARK    4  A    between atoms: O_4  and  C_5
REMARK    5  A    between atoms: C_7  and  C_8
REMARK    6  A    between atoms: C_8  and  N_9
REMARK    7  A    between atoms: C_10  and  C_12
REMARK    8  A    between atoms: C_24  and  C_25
REMARK    9  A    between atoms: C_25  and  N_26
REMARK   10  A    between atoms: N_26  and  C_27
REMARK   11  A    between atoms: C_27  and  C_28
REMARK                            x       y       z     vdW  Elec       q    Type
REMARK                         _______ _______ _______ _____ _____    ______ ____
ROOT
ATOM      1  C   UNL     1      45.772   5.237  13.288  0.00  0.00    +0.000 A 
ATOM      2  C   UNL     1      46.878   6.095  13.217  0.00  0.00    +0.000 A 
ATOM      3  C   UNL     1      46.825   7.308  12.521  0.00  0.00    +0.000 A 
ATOM      4  C   UNL     1      45.628   7.682  11.909  0.00  0.00    +0.000 A 
ATOM      5  C   UNL     1      44.502   6.861  12.010  0.00  0.00    +0.000 A 
ATOM      6  C   UNL     1      44.550   5.640  12.712  0.00  0.00    +0.000 A 
ENDROOT
BRANCH   1   7
ATOM      7  O   UNL     1      45.813   4.001  13.890  0.00  0.00    +0.000 OA
BRANCH   7   8
ATOM      8  C   UNL     1      47.079   3.617  14.435  0.00  0.00    +0.000 C 
BRANCH   8  10
ATOM      9  C   UNL     1      48.109   3.081  16.655  0.00  0.00    +0.000 C 
ATOM     10  C   UNL     1      47.138   3.986  15.912  0.00  0.00    +0.000 C 
ENDBRANCH   8  10
ENDBRANCH   7   8
ENDBRANCH   1   7
BRANCH   3  11
ATOM     11  C   UNL     1      48.045   8.188  12.480  0.00  0.00    +0.000 C 
BRANCH  11  12
ATOM     12  N   UNL     1      49.079   7.697  13.354  0.00  0.00    +0.000 N 
ATOM     13  C   UNL     1      49.154   8.022  14.682  0.00  0.00    +0.000 C 
ATOM     14  O   UNL     1      48.337   8.761  15.225  0.00  0.00    +0.000 OA
ATOM     15  H   UNL     1      49.881   7.266  12.903  0.00  0.00    +0.000 HD
BRANCH  13  16
ATOM     16  C   UNL     1      50.225   7.372  15.453  0.00  0.00    +0.000 A 
ATOM     17  C   UNL     1      49.893   6.498  16.481  0.00  0.00    +0.000 A 
ATOM     18  S   UNL     1      51.244   5.787  17.241  0.00  0.00    +0.000 S 
ATOM     19  C   UNL     1      52.324   6.657  16.255  0.00  0.00    +0.000 A 
ATOM     20  N   UNL     1      53.669   6.524  16.409  0.00  0.00    +0.000 NA
ATOM     21  C   UNL     1      54.372   7.268  15.624  0.00  0.00    +0.000 A 
ATOM     22  N   UNL     1      53.852   8.126  14.689  0.00  0.00    +0.000 N 
ATOM     23  C   UNL     1      52.503   8.242  14.453  0.00  0.00    +0.000 A 
ATOM     24  O   UNL     1      52.079   8.932  13.530  0.00  0.00    +0.000 OA
ATOM     25  C   UNL     1      51.664   7.460  15.341  0.00  0.00    +0.000 A 
ATOM     26  H   UNL     1      54.458   8.662  14.087  0.00  0.00    +0.000 HD
ENDBRANCH  13  16
ENDBRANCH  11  12
ENDBRANCH   3  11
BRANCH   6  27
ATOM     27  C   UNL     1      43.282   4.820  12.846  0.00  0.00    +0.000 C 
BRANCH  27  28
ATOM     28  N   UNL     1      42.893   4.247  11.562  0.00  0.00    +0.000 NA
ATOM     29  H   UNL     1      43.122   4.895  10.812  0.00  0.00    +0.000 HD
BRANCH  28  30
ATOM     30  C   UNL     1      43.540   2.962  11.295  0.00  0.00    +0.000 C 
BRANCH  30  31
ATOM     31  C   UNL     1      44.387   3.035  10.034  0.00  0.00    +0.000 A 
ATOM     32  C   UNL     1      44.671   4.278   9.467  0.00  0.00    +0.000 A 
ATOM     33  C   UNL     1      45.502   4.337   8.352  0.00  0.00    +0.000 A 
ATOM     34  C   UNL     1      46.019   3.158   7.831  0.00  0.00    +0.000 A 
ATOM     35  C   UNL     1      45.679   1.964   8.444  0.00  0.00    +0.000 A 
ATOM     36  N   UNL     1      44.881   1.872   9.531  0.00  0.00    +0.000 NA
ENDBRANCH  30  31
ENDBRANCH  28  30
ENDBRANCH  27  28
ENDBRANCH   6  27
TORSDOF 10
ENDMDL
MODEL 9
REMARK VINA RESULT:    -6.760      1.924      3.337
REMARK INTER + INTRA:         -12.485
REMARK INTER:                 -11.062
REMARK INTRA:                  -1.423
REMARK UNBOUND:                -1.774
REMARK  Name = 
REMARK  11 active torsions:
REMARK  status: ('A' for Active; 'I' for Inactive)
REMARK    1  A    between atoms: C_1  and  C_2
REMARK    2  A    between atoms: C_2  and  C_3
REMARK    3  A    between atoms: C_3  and  O_4
REMARK    4  A    between atoms: O_4  and  C_5
REMARK    5  A    between atoms: C_7  and  C_8
REMARK    6  A    between atoms: C_8  and  N_9
REMARK    7  A    between atoms: C_10  and  C_12
REMARK    8  A    between atoms: C_24  and  C_25
REMARK    9  A    between atoms: C_25  and  N_26
REMARK   10  A    between atoms: N_26  and  C_27
REMARK   11  A    between atoms: C_27  and  C_28
REMARK                            x       y       z     vdW  Elec       q    Type
REMARK                         _______ _______ _______ _____ _____    ______ ____
ROOT
ATOM      1  C   UNL     1      45.837   4.456  12.207  0.00  0.00    +0.000 A 
ATOM      2  C   UNL     1      46.398   4.269  13.478  0.00  0.00    +0.000 A 
ATOM      3  C   UNL     1      47.170   5.260  14.095  0.00  0.00    +0.000 A 
ATOM      4  C   UNL     1      47.357   6.476  13.436  0.00  0.00    +0.000 A 
ATOM      5  C   UNL     1      46.765   6.697  12.190  0.00  0.00    +0.000 A 
ATOM      6  C   UNL     1      45.985   5.703  11.566  0.00  0.00    +0.000 A 
ENDROOT
BRANCH   1   7
ATOM      7  O   UNL     1      45.145   3.475  11.535  0.00  0.00    +0.000 OA
BRANCH   7   8
ATOM      8  C   UNL     1      43.883   3.108  12.099  0.00  0.00    +0.000 C 
BRANCH   8  10
ATOM      9  C   UNL     1      42.716   5.179  12.891  0.00  0.00    +0.000 C 
ATOM     10  C   UNL     1      42.840   4.166  11.763  0.00  0.00    +0.000 C 
ENDBRANCH   8  10
ENDBRANCH   7   8
ENDBRANCH   1   7
BRANCH   3  11
ATOM     11  C   UNL     1      47.747   5.001  15.460  0.00  0.00    +0.000 C 
BRANCH  11  12
ATOM     12  N   UNL     1      48.431   6.159  15.972  0.00  0.00    +0.000 N 
ATOM     13  C   UNL     1      49.596   6.086  16.688  0.00  0.00    +0.000 C 
ATOM     14  O   UNL     1      50.144   5.017  16.944  0.00  0.00    +0.000 OA
ATOM     15  H   UNL     1      47.906   7.029  15.968  0.00  0.00    +0.000 HD
BRANCH  13  16
ATOM     16  C   UNL     1      50.209   7.368  17.068  0.00  0.00    +0.000 A 
ATOM     17  C   UNL     1      50.371   7.676  18.414  0.00  0.00    +0.000 A 
ATOM     18  S   UNL     1      51.144   9.171  18.688  0.00  0.00    +0.000 S 
ATOM     19  C   UNL     1      51.247   9.486  17.019  0.00  0.00    +0.000 A 
ATOM     20  N   UNL     1      51.796  10.643  16.561  0.00  0.00    +0.000 NA
ATOM     21  C   UNL     1      51.776  10.770  15.277  0.00  0.00    +0.000 A 
ATOM     22  N   UNL     1      51.268   9.840  14.408  0.00  0.00    +0.000 N 
ATOM     23  C   UNL     1      50.767   8.629  14.821  0.00  0.00    +0.000 A 
ATOM     24  O   UNL     1      50.428   7.773  14.009  0.00  0.00    +0.000 OA
ATOM     25  C   UNL     1      50.723   8.452  16.261  0.00  0.00    +0.000 A 
ATOM     26  H   UNL     1      51.308   9.989  13.411  0.00  0.00    +0.000 HD
ENDBRANCH  13  16
ENDBRANCH  11  12
ENDBRANCH   3  11
BRANCH   6  27
ATOM     27  C   UNL     1      45.313   6.020  10.245  0.00  0.00    +0.000 C 
BRANCH  27  28
ATOM     28  N   UNL     1      45.952   5.302   9.147  0.00  0.00    +0.000 NA
ATOM     29  H   UNL     1      46.759   4.789   9.496  0.00  0.00    +0.000 HD
BRANCH  28  30
ATOM     30  C   UNL     1      45.047   4.367   8.478  0.00  0.00    +0.000 C 
BRANCH  30  31
ATOM     31  C   UNL     1      45.824   3.228   7.836  0.00  0.00    +0.000 A 
ATOM     32  C   UNL     1      46.547   3.461   6.666  0.00  0.00    +0.000 A 
ATOM     33  C   UNL     1      47.307   2.428   6.126  0.00  0.00    +0.000 A 
ATOM     34  C   UNL     1      47.321   1.194   6.762  0.00  0.00    +0.000 A 
ATOM     35  C   UNL     1      46.566   1.040   7.913  0.00  0.00    +0.000 A 
ATOM     36  N   UNL     1      45.822   2.023   8.467  0.00  0.00    +0.000 NA
ENDBRANCH  30  31
ENDBRANCH  28  30
ENDBRANCH  27  28
ENDBRANCH   6  27
TORSDOF 10
ENDMDL
