MODEL 1
REMARK VINA RESULT:    -8.520      0.000      0.000
REMARK INTER + INTRA:         -11.796
REMARK INTER:                 -11.010
REMARK INTRA:                  -0.786
REMARK UNBOUND:                -0.786
REMARK  Name = 
REMARK  5 active torsions:
REMARK  status: ('A' for Active; 'I' for Inactive)
REMARK    1  A    between atoms: C_2  and  C_4
REMARK    2  A    between atoms: C_7  and  O_8
REMARK    3  A    between atoms: O_8  and  C_9
REMARK    4  A    between atoms: C_9  and  C_10
REMARK    5  A    between atoms: C_14  and  C_15
REMARK                            x       y       z     vdW  Elec       q    Type
REMARK                         _______ _______ _______ _____ _____    ______ ____
ROOT
ATOM      1  C   UNL     1      43.712   5.011  10.655  0.00  0.00    +0.000 C 
ENDROOT
BRANCH   1   2
ATOM      2  C   UNL     1      44.794   4.964  11.701  0.00  0.00    +0.000 A 
ATOM      3  C   UNL     1      44.731   4.025  12.723  0.00  0.00    +0.000 A 
ATOM      4  N   UNL     1      45.616   3.958  13.738  0.00  0.00    +0.000 NA
ATOM      5  C   UNL     1      46.607   4.882  13.743  0.00  0.00    +0.000 A 
ATOM      6  C   UNL     1      46.786   5.880  12.783  0.00  0.00    +0.000 A 
ATOM      7  C   UNL     1      45.835   5.899  11.750  0.00  0.00    +0.000 A 
BRANCH   6   8
ATOM      8  C   UNL     1      47.892   6.857  12.846  0.00  0.00    +0.000 A 
ATOM      9  C   UNL     1      48.867   6.806  13.853  0.00  0.00    +0.000 A 
ATOM     10  C   UNL     1      49.892   7.743  13.864  0.00  0.00    +0.000 A 
ATOM     11  N   UNL     1      50.025   8.720  12.946  0.00  0.00    +0.000 NA
ATOM     12  C   UNL     1      49.088   8.760  11.982  0.00  0.00    +0.000 A 
ATOM     13  F   UNL     1      49.199   9.716  11.049  0.00  0.00    +0.000 F 
ATOM     14  C   UNL     1      48.025   7.876  11.893  0.00  0.00    +0.000 A 
ENDBRANCH   6   8
ENDBRANCH   1   2
BRANCH   1  15
ATOM     15  O   UNL     1      43.491   3.711  10.095  0.00  0.00    +0.000 OA
BRANCH  15  19
ATOM     16  C   UNL     1      46.445   2.593   7.455  0.00  0.00    +0.000 A 
ATOM     17  C   UNL     1      45.979   1.676   8.399  0.00  0.00    +0.000 A 
ATOM     18  C   UNL     1      44.980   2.067   9.293  0.00  0.00    +0.000 A 
ATOM     19  C   UNL     1      44.483   3.359   9.203  0.00  0.00    +0.000 A 
ATOM     20  N   UNL     1      44.921   4.267   8.307  0.00  0.00    +0.000 NA
ATOM     21  C   UNL     1      45.898   3.869   7.459  0.00  0.00    +0.000 A 
BRANCH  16  23
ATOM     22  N   UNL     1      47.461   2.953   5.276  0.00  0.00    +0.000 N 
ATOM     23  C   UNL     1      47.501   2.289   6.469  0.00  0.00    +0.000 C 
ATOM     24  O   UNL     1      48.403   1.502   6.725  0.00  0.00    +0.000 OA
ATOM     25  H   UNL     1      48.255   2.813   4.663  0.00  0.00    +0.000 HD
ATOM     26  H   UNL     1      46.901   3.779   5.129  0.00  0.00    +0.000 HD
ENDBRANCH  16  23
ENDBRANCH  15  19
ENDBRANCH   1  15
TORSDOF 5
ENDMDL
MODEL 2
REMARK VINA RESULT:    -8.474      2.671      3.345
REMARK INTER + INTRA:         -11.736
REMARK INTER:                 -11.039
REMARK INTRA:                  -0.697
REMARK UNBOUND:                -0.786
REMARK  Name = 
REMARK  5 active torsions:
REMARK  status: ('A' for Active; 'I' for Inactive)
REMARK    1  A    between atoms: C_2  and  C_4
REMARK    2  A    between atoms: C_7  and  O_8
REMARK    3  A    between atoms: O_8  and  C_9
REMARK    4  A    between atoms: C_9  and  C_10
REMARK    5  A    between atoms: C_14  and  C_15
REMARK                            x       y       z     vdW  Elec       q    Type
REMARK                         _______ _______ _______ _____ _____    ______ ____
ROOT
ATOM      1  C   UNL     1      43.811   4.455  11.274  0.00  0.00    +0.000 C 
ENDROOT
BRANCH   1   2
ATOM      2  C   UNL     1      44.862   5.316  11.924  0.00  0.00    +0.000 A 
ATOM      3  C   UNL     1      45.227   6.524  11.342  0.00  0.00    +0.000 A 
ATOM      4  N   UNL     1      46.205   7.322  11.816  0.00  0.00    +0.000 NA
ATOM      5  C   UNL     1      46.864   6.888  12.918  0.00  0.00    +0.000 A 
ATOM      6  C   UNL     1      46.602   5.697  13.599  0.00  0.00    +0.000 A 
ATOM      7  C   UNL     1      45.571   4.909  13.060  0.00  0.00    +0.000 A 
BRANCH   6   8
ATOM      8  C   UNL     1      47.357   5.283  14.799  0.00  0.00    +0.000 A 
ATOM      9  C   UNL     1      48.317   6.116  15.392  0.00  0.00    +0.000 A 
ATOM     10  C   UNL     1      48.993   5.683  16.525  0.00  0.00    +0.000 A 
ATOM     11  N   UNL     1      48.783   4.492  17.116  0.00  0.00    +0.000 NA
ATOM     12  C   UNL     1      47.859   3.700  16.542  0.00  0.00    +0.000 A 
ATOM     13  F   UNL     1      47.622   2.510  17.113  0.00  0.00    +0.000 F 
ATOM     14  C   UNL     1      47.141   4.039  15.409  0.00  0.00    +0.000 A 
ENDBRANCH   6   8
ENDBRANCH   1   2
BRANCH   1  15
ATOM     15  O   UNL     1      43.752   4.704   9.864  0.00  0.00    +0.000 OA
BRANCH  15  19
ATOM     16  C   UNL     1      46.354   2.271   7.801  0.00  0.00    +0.000 A 
ATOM     17  C   UNL     1      45.502   1.717   8.757  0.00  0.00    +0.000 A 
ATOM     18  C   UNL     1      44.627   2.552   9.455  0.00  0.00    +0.000 A 
ATOM     19  C   UNL     1      44.634   3.907   9.164  0.00  0.00    +0.000 A 
ATOM     20  N   UNL     1      45.453   4.471   8.251  0.00  0.00    +0.000 NA
ATOM     21  C   UNL     1      46.301   3.644   7.596  0.00  0.00    +0.000 A 
BRANCH  16  23
ATOM     22  N   UNL     1      48.399   2.145   6.493  0.00  0.00    +0.000 N 
ATOM     23  C   UNL     1      47.322   1.484   7.012  0.00  0.00    +0.000 C 
ATOM     24  O   UNL     1      47.188   0.277   6.861  0.00  0.00    +0.000 OA
ATOM     25  H   UNL     1      49.106   1.567   6.053  0.00  0.00    +0.000 HD
ATOM     26  H   UNL     1      48.679   3.064   6.804  0.00  0.00    +0.000 HD
ENDBRANCH  16  23
ENDBRANCH  15  19
ENDBRANCH   1  15
TORSDOF 5
ENDMDL
MODEL 3
REMARK VINA RESULT:    -8.409      1.376      1.882
REMARK INTER + INTRA:         -11.653
REMARK INTER:                 -10.894
REMARK INTRA:                  -0.760
REMARK UNBOUND:                -0.786
REMARK  Name = 
REMARK  5 active torsions:
REMARK  status: ('A' for Active; 'I' for Inactive)
REMARK    1  A    between atoms: C_2  and  C_4
REMARK    2  A    between atoms: C_7  and  O_8
REMARK    3  A    between atoms: O_8  and  C_9
REMARK    4  A    between atoms: C_9  and  C_10
REMARK    5  A    between atoms: C_14  and  C_15
REMARK                            x       y       z     vdW  Elec       q    Type
REMARK                         _______ _______ _______ _____ _____    ______ ____
ROOT
ATOM      1  C   UNL     1      43.926   3.866  11.624  0.00  0.00    +0.000 C 
ENDROOT
BRANCH   1   2
ATOM      2  C   UNL     1      45.184   4.492  12.166  0.00  0.00    +0.000 A 
ATOM      3  C   UNL     1      45.994   3.777  13.039  0.00  0.00    +0.000 A 
ATOM      4  N   UNL     1      47.098   4.283  13.626  0.00  0.00    +0.000 NA
ATOM      5  C   UNL     1      47.403   5.571  13.339  0.00  0.00    +0.000 A 
ATOM      6  C   UNL     1      46.676   6.402  12.484  0.00  0.00    +0.000 A 
ATOM      7  C   UNL     1      45.539   5.820  11.901  0.00  0.00    +0.000 A 
BRANCH   6   8
ATOM      8  C   UNL     1      47.066   7.800  12.211  0.00  0.00    +0.000 A 
ATOM      9  C   UNL     1      46.148   8.856  12.307  0.00  0.00    +0.000 A 
ATOM     10  C   UNL     1      46.568  10.155  12.047  0.00  0.00    +0.000 A 
ATOM     11  N   UNL     1      47.829  10.483  11.709  0.00  0.00    +0.000 NA
ATOM     12  C   UNL     1      48.704   9.465  11.621  0.00  0.00    +0.000 A 
ATOM     13  F   UNL     1      49.970   9.761  11.294  0.00  0.00    +0.000 F 
ATOM     14  C   UNL     1      48.379   8.139  11.852  0.00  0.00    +0.000 A 
ENDBRANCH   6   8
ENDBRANCH   1   2
BRANCH   1  15
ATOM     15  O   UNL     1      43.721   4.241  10.256  0.00  0.00    +0.000 OA
BRANCH  15  19
ATOM     16  C   UNL     1      46.430   2.460   7.719  0.00  0.00    +0.000 A 
ATOM     17  C   UNL     1      46.228   3.839   7.656  0.00  0.00    +0.000 A 
ATOM     18  C   UNL     1      45.304   4.433   8.518  0.00  0.00    +0.000 A 
ATOM     19  C   UNL     1      44.622   3.622   9.413  0.00  0.00    +0.000 A 
ATOM     20  N   UNL     1      44.790   2.286   9.490  0.00  0.00    +0.000 NA
ATOM     21  C   UNL     1      45.683   1.732   8.636  0.00  0.00    +0.000 A 
BRANCH  16  23
ATOM     22  N   UNL     1      48.486   2.398   6.423  0.00  0.00    +0.000 N 
ATOM     23  C   UNL     1      47.376   1.729   6.852  0.00  0.00    +0.000 C 
ATOM     24  O   UNL     1      47.194   0.554   6.562  0.00  0.00    +0.000 OA
ATOM     25  H   UNL     1      49.173   1.846   5.925  0.00  0.00    +0.000 HD
ATOM     26  H   UNL     1      48.799   3.263   6.840  0.00  0.00    +0.000 HD
ENDBRANCH  16  23
ENDBRANCH  15  19
ENDBRANCH   1  15
TORSDOF 5
ENDMDL
MODEL 4
REMARK VINA RESULT:    -8.194      1.305      1.726
REMARK INTER + INTRA:         -11.375
REMARK INTER:                 -10.698
REMARK INTRA:                  -0.677
REMARK UNBOUND:                -0.786
REMARK  Name = 
REMARK  5 active torsions:
REMARK  status: ('A' for Active; 'I' for Inactive)
REMARK    1  A    between atoms: C_2  and  C_4
REMARK    2  A    between atoms: C_7  and  O_8
REMARK    3  A    between atoms: O_8  and  C_9
REMARK    4  A    between atoms: C_9  and  C_10
REMARK    5  A    between atoms: C_14  and  C_15
REMARK                            x       y       z     vdW  Elec       q    Type
REMARK                         _______ _______ _______ _____ _____    ______ ____
ROOT
ATOM      1  C   UNL     1      44.267   3.377  11.572  0.00  0.00    +0.000 C 
ENDROOT
BRANCH   1   2
ATOM      2  C   UNL     1      44.642   4.827  11.729  0.00  0.00    +0.000 A 
ATOM      3  C   UNL     1      43.715   5.819  11.436  0.00  0.00    +0.000 A 
ATOM      4  N   UNL     1      43.987   7.139  11.480  0.00  0.00    +0.000 NA
ATOM      5  C   UNL     1      45.250   7.489  11.820  0.00  0.00    +0.000 A 
ATOM      6  C   UNL     1      46.278   6.597  12.136  0.00  0.00    +0.000 A 
ATOM      7  C   UNL     1      45.935   5.237  12.075  0.00  0.00    +0.000 A 
BRANCH   6   8
ATOM      8  C   UNL     1      47.637   7.046  12.503  0.00  0.00    +0.000 A 
ATOM      9  C   UNL     1      48.168   6.825  13.782  0.00  0.00    +0.000 A 
ATOM     10  C   UNL     1      49.454   7.259  14.074  0.00  0.00    +0.000 A 
ATOM     11  N   UNL     1      50.254   7.888  13.192  0.00  0.00    +0.000 NA
ATOM     12  C   UNL     1      49.738   8.093  11.966  0.00  0.00    +0.000 A 
ATOM     13  F   UNL     1      50.513   8.709  11.062  0.00  0.00    +0.000 F 
ATOM     14  C   UNL     1      48.465   7.705  11.583  0.00  0.00    +0.000 A 
ENDBRANCH   6   8
ENDBRANCH   1   2
BRANCH   1  15
ATOM     15  O   UNL     1      43.677   3.140  10.288  0.00  0.00    +0.000 OA
BRANCH  15  19
ATOM     16  C   UNL     1      46.527   2.594   7.368  0.00  0.00    +0.000 A 
ATOM     17  C   UNL     1      45.929   3.845   7.524  0.00  0.00    +0.000 A 
ATOM     18  C   UNL     1      44.960   4.018   8.514  0.00  0.00    +0.000 A 
ATOM     19  C   UNL     1      44.632   2.934   9.314  0.00  0.00    +0.000 A 
ATOM     20  N   UNL     1      45.187   1.711   9.179  0.00  0.00    +0.000 NA
ATOM     21  C   UNL     1      46.115   1.564   8.204  0.00  0.00    +0.000 A 
BRANCH  16  23
ATOM     22  N   UNL     1      47.531   3.027   5.197  0.00  0.00    +0.000 N 
ATOM     23  C   UNL     1      47.555   2.297   6.350  0.00  0.00    +0.000 C 
ATOM     24  O   UNL     1      48.421   1.456   6.549  0.00  0.00    +0.000 OA
ATOM     25  H   UNL     1      48.309   2.885   4.564  0.00  0.00    +0.000 HD
ATOM     26  H   UNL     1      47.007   3.885   5.104  0.00  0.00    +0.000 HD
ENDBRANCH  16  23
ENDBRANCH  15  19
ENDBRANCH   1  15
TORSDOF 5
ENDMDL
MODEL 5
REMARK VINA RESULT:    -7.998      2.943      6.592
REMARK INTER + INTRA:         -11.121
REMARK INTER:                 -10.251
REMARK INTRA:                  -0.870
REMARK UNBOUND:                -0.786
REMARK  Name = 
REMARK  5 active torsions:
REMARK  status: ('A' for Active; 'I' for Inactive)
REMARK    1  A    between atoms: C_2  and  C_4
REMARK    2  A    between atoms: C_7  and  O_8
REMARK    3  A    between atoms: O_8  and  C_9
REMARK    4  A    between atoms: C_9  and  C_10
REMARK    5  A    between atoms: C_14  and  C_15
REMARK                            x       y       z     vdW  Elec       q    Type
REMARK                         _______ _______ _______ _____ _____    ______ ____
ROOT
ATOM      1  C   UNL     1      43.699   6.340  11.334  0.00  0.00    +0.000 C 
ENDROOT
BRANCH   1   2
ATOM      2  C   UNL     1      43.797   4.905  10.887  0.00  0.00    +0.000 A 
ATOM      3  C   UNL     1      43.131   3.911  11.593  0.00  0.00    +0.000 A 
ATOM      4  N   UNL     1      43.220   2.596  11.306  0.00  0.00    +0.000 NA
ATOM      5  C   UNL     1      44.024   2.253  10.271  0.00  0.00    +0.000 A 
ATOM      6  C   UNL     1      44.752   3.147   9.482  0.00  0.00    +0.000 A 
ATOM      7  C   UNL     1      44.617   4.501   9.827  0.00  0.00    +0.000 A 
BRANCH   6   8
ATOM      8  C   UNL     1      45.610   2.705   8.364  0.00  0.00    +0.000 A 
ATOM      9  C   UNL     1      46.213   1.439   8.350  0.00  0.00    +0.000 A 
ATOM     10  C   UNL     1      47.005   1.069   7.271  0.00  0.00    +0.000 A 
ATOM     11  N   UNL     1      47.235   1.856   6.203  0.00  0.00    +0.000 NA
ATOM     12  C   UNL     1      46.650   3.068   6.223  0.00  0.00    +0.000 A 
ATOM     13  F   UNL     1      46.854   3.872   5.169  0.00  0.00    +0.000 F 
ATOM     14  C   UNL     1      45.853   3.530   7.256  0.00  0.00    +0.000 A 
ENDBRANCH   6   8
ENDBRANCH   1   2
BRANCH   1  15
ATOM     15  O   UNL     1      44.246   6.500  12.648  0.00  0.00    +0.000 OA
BRANCH  15  19
ATOM     16  C   UNL     1      48.302   7.202  12.569  0.00  0.00    +0.000 A 
ATOM     17  C   UNL     1      47.814   6.036  13.161  0.00  0.00    +0.000 A 
ATOM     18  C   UNL     1      46.436   5.810  13.187  0.00  0.00    +0.000 A 
ATOM     19  C   UNL     1      45.602   6.757  12.614  0.00  0.00    +0.000 A 
ATOM     20  N   UNL     1      46.045   7.897  12.043  0.00  0.00    +0.000 NA
ATOM     21  C   UNL     1      47.383   8.100  12.041  0.00  0.00    +0.000 A 
BRANCH  16  23
ATOM     22  N   UNL     1      50.456   7.512  13.653  0.00  0.00    +0.000 N 
ATOM     23  C   UNL     1      49.736   7.545  12.493  0.00  0.00    +0.000 C 
ATOM     24  O   UNL     1      50.270   7.810  11.425  0.00  0.00    +0.000 OA
ATOM     25  H   UNL     1      51.456   7.640  13.559  0.00  0.00    +0.000 HD
ATOM     26  H   UNL     1      50.122   7.057  14.491  0.00  0.00    +0.000 HD
ENDBRANCH  16  23
ENDBRANCH  15  19
ENDBRANCH   1  15
TORSDOF 5
ENDMDL
MODEL 6
REMARK VINA RESULT:    -7.878      3.406      6.843
REMARK INTER + INTRA:         -10.967
REMARK INTER:                 -10.117
REMARK INTRA:                  -0.850
REMARK UNBOUND:                -0.786
REMARK  Name = 
REMARK  5 active torsions:
REMARK  status: ('A' for Active; 'I' for Inactive)
REMARK    1  A    between atoms: C_2  and  C_4
REMARK    2  A    between atoms: C_7  and  O_8
REMARK    3  A    between atoms: O_8  and  C_9
REMARK    4  A    between atoms: C_9  and  C_10
REMARK    5  A    between atoms: C_14  and  C_15
REMARK                            x       y       z     vdW  Elec       q    Type
REMARK                         _______ _______ _______ _____ _____    ______ ____
ROOT
ATOM      1  C   UNL     1      44.148   6.603  11.379  0.00  0.00    +0.000 C 
ENDROOT
BRANCH   1   2
ATOM      2  C   UNL     1      44.070   5.161  10.949  0.00  0.00    +0.000 A 
ATOM      3  C   UNL     1      43.255   4.274  11.640  0.00  0.00    +0.000 A 
ATOM      4  N   UNL     1      43.179   2.955  11.369  0.00  0.00    +0.000 NA
ATOM      5  C   UNL     1      43.966   2.494  10.368  0.00  0.00    +0.000 A 
ATOM      6  C   UNL     1      44.831   3.273   9.596  0.00  0.00    +0.000 A 
ATOM      7  C   UNL     1      44.866   4.638   9.923  0.00  0.00    +0.000 A 
BRANCH   6   8
ATOM      8  C   UNL     1      45.661   2.706   8.513  0.00  0.00    +0.000 A 
ATOM      9  C   UNL     1      46.214   3.512   7.507  0.00  0.00    +0.000 A 
ATOM     10  C   UNL     1      46.994   2.931   6.515  0.00  0.00    +0.000 A 
ATOM     11  N   UNL     1      47.272   1.615   6.453  0.00  0.00    +0.000 NA
ATOM     12  C   UNL     1      46.741   0.850   7.424  0.00  0.00    +0.000 A 
ATOM     13  F   UNL     1      47.007  -0.464   7.394  0.00  0.00    +0.000 F 
ATOM     14  C   UNL     1      45.944   1.335   8.448  0.00  0.00    +0.000 A 
ENDBRANCH   6   8
ENDBRANCH   1   2
BRANCH   1  15
ATOM     15  O   UNL     1      44.710   6.712  12.692  0.00  0.00    +0.000 OA
BRANCH  15  19
ATOM     16  C   UNL     1      48.768   7.396  12.598  0.00  0.00    +0.000 A 
ATOM     17  C   UNL     1      48.278   6.231  13.188  0.00  0.00    +0.000 A 
ATOM     18  C   UNL     1      46.899   6.010  13.220  0.00  0.00    +0.000 A 
ATOM     19  C   UNL     1      46.066   6.963  12.653  0.00  0.00    +0.000 A 
ATOM     20  N   UNL     1      46.512   8.102  12.084  0.00  0.00    +0.000 NA
ATOM     21  C   UNL     1      47.851   8.299  12.076  0.00  0.00    +0.000 A 
BRANCH  16  23
ATOM     22  N   UNL     1      50.845   7.483  11.337  0.00  0.00    +0.000 N 
ATOM     23  C   UNL     1      50.203   7.733  12.516  0.00  0.00    +0.000 C 
ATOM     24  O   UNL     1      50.788   8.253  13.457  0.00  0.00    +0.000 OA
ATOM     25  H   UNL     1      51.796   7.825  11.267  0.00  0.00    +0.000 HD
ATOM     26  H   UNL     1      50.352   7.301  10.474  0.00  0.00    +0.000 HD
ENDBRANCH  16  23
ENDBRANCH  15  19
ENDBRANCH   1  15
TORSDOF 5
ENDMDL
MODEL 7
REMARK VINA RESULT:    -7.652      3.464      7.484
REMARK INTER + INTRA:         -10.675
REMARK INTER:                 -10.375
REMARK INTRA:                  -0.300
REMARK UNBOUND:                -0.786
REMARK  Name = 
REMARK  5 active torsions:
REMARK  status: ('A' for Active; 'I' for Inactive)
REMARK    1  A    between atoms: C_2  and  C_4
REMARK    2  A    between atoms: C_7  and  O_8
REMARK    3  A    between atoms: O_8  and  C_9
REMARK    4  A    between atoms: C_9  and  C_10
REMARK    5  A    between atoms: C_14  and  C_15
REMARK                            x       y       z     vdW  Elec       q    Type
REMARK                         _______ _______ _______ _____ _____    ______ ____
ROOT
ATOM      1  C   UNL     1      45.565   6.880  11.405  0.00  0.00    +0.000 C 
ENDROOT
BRANCH   1   2
ATOM      2  C   UNL     1      44.990   5.646  10.759  0.00  0.00    +0.000 A 
ATOM      3  C   UNL     1      43.748   5.169  11.158  0.00  0.00    +0.000 A 
ATOM      4  N   UNL     1      43.191   4.035  10.685  0.00  0.00    +0.000 NA
ATOM      5  C   UNL     1      43.913   3.335   9.778  0.00  0.00    +0.000 A 
ATOM      6  C   UNL     1      45.172   3.699   9.292  0.00  0.00    +0.000 A 
ATOM      7  C   UNL     1      45.699   4.888   9.820  0.00  0.00    +0.000 A 
BRANCH   6   8
ATOM      8  C   UNL     1      45.906   2.890   8.298  0.00  0.00    +0.000 A 
ATOM      9  C   UNL     1      46.562   3.477   7.207  0.00  0.00    +0.000 A 
ATOM     10  C   UNL     1      47.246   2.672   6.304  0.00  0.00    +0.000 A 
ATOM     11  N   UNL     1      47.333   1.333   6.409  0.00  0.00    +0.000 NA
ATOM     12  C   UNL     1      46.704   0.778   7.461  0.00  0.00    +0.000 A 
ATOM     13  F   UNL     1      46.780  -0.554   7.597  0.00  0.00    +0.000 F 
ATOM     14  C   UNL     1      45.990   1.494   8.407  0.00  0.00    +0.000 A 
ENDBRANCH   6   8
ENDBRANCH   1   2
BRANCH   1  15
ATOM     15  O   UNL     1      46.958   6.702  11.687  0.00  0.00    +0.000 OA
BRANCH  15  19
ATOM     16  C   UNL     1      47.606   5.096  15.421  0.00  0.00    +0.000 A 
ATOM     17  C   UNL     1      48.231   6.291  15.066  0.00  0.00    +0.000 A 
ATOM     18  C   UNL     1      48.008   6.826  13.795  0.00  0.00    +0.000 A 
ATOM     19  C   UNL     1      47.163   6.144  12.932  0.00  0.00    +0.000 A 
ATOM     20  N   UNL     1      46.553   4.983  13.246  0.00  0.00    +0.000 NA
ATOM     21  C   UNL     1      46.794   4.478  14.479  0.00  0.00    +0.000 A 
BRANCH  16  23
ATOM     22  N   UNL     1      46.949   3.394  17.028  0.00  0.00    +0.000 N 
ATOM     23  C   UNL     1      47.776   4.440  16.733  0.00  0.00    +0.000 C 
ATOM     24  O   UNL     1      48.652   4.793  17.512  0.00  0.00    +0.000 OA
ATOM     25  H   UNL     1      47.158   2.889  17.882  0.00  0.00    +0.000 HD
ATOM     26  H   UNL     1      46.402   2.915  16.328  0.00  0.00    +0.000 HD
ENDBRANCH  16  23
ENDBRANCH  15  19
ENDBRANCH   1  15
TORSDOF 5
ENDMDL
MODEL 8
REMARK VINA RESULT:    -7.376      4.100      8.069
REMARK INTER + INTRA:         -10.317
REMARK INTER:                  -9.807
REMARK INTRA:                  -0.510
REMARK UNBOUND:                -0.786
REMARK  Name = 
REMARK  5 active torsions:
REMARK  status: ('A' for Active; 'I' for Inactive)
REMARK    1  A    between atoms: C_2  and  C_4
REMARK    2  A    between atoms: C_7  and  O_8
REMARK    3  A    between atoms: O_8  and  C_9
REMARK    4  A    between atoms: C_9  and  C_10
REMARK    5  A    between atoms: C_14  and  C_15
REMARK                            x       y       z     vdW  Elec       q    Type
REMARK                         _______ _______ _______ _____ _____    ______ ____
ROOT
ATOM      1  C   UNL     1      45.316   4.556  13.583  0.00  0.00    +0.000 C 
ENDROOT
BRANCH   1   2
ATOM      2  C   UNL     1      44.828   4.574  12.158  0.00  0.00    +0.000 A 
ATOM      3  C   UNL     1      43.637   5.215  11.840  0.00  0.00    +0.000 A 
ATOM      4  N   UNL     1      43.092   5.220  10.607  0.00  0.00    +0.000 NA
ATOM      5  C   UNL     1      43.759   4.540   9.644  0.00  0.00    +0.000 A 
ATOM      6  C   UNL     1      44.960   3.851   9.826  0.00  0.00    +0.000 A 
ATOM      7  C   UNL     1      45.481   3.883  11.130  0.00  0.00    +0.000 A 
BRANCH   6   8
ATOM      8  C   UNL     1      45.639   3.130   8.730  0.00  0.00    +0.000 A 
ATOM      9  C   UNL     1      46.176   3.804   7.623  0.00  0.00    +0.000 A 
ATOM     10  C   UNL     1      46.813   3.080   6.623  0.00  0.00    +0.000 A 
ATOM     11  N   UNL     1      46.962   1.742   6.643  0.00  0.00    +0.000 NA
ATOM     12  C   UNL     1      46.446   1.104   7.710  0.00  0.00    +0.000 A 
ATOM     13  F   UNL     1      46.587  -0.228   7.762  0.00  0.00    +0.000 F 
ATOM     14  C   UNL     1      45.788   1.736   8.751  0.00  0.00    +0.000 A 
ENDBRANCH   6   8
ENDBRANCH   1   2
BRANCH   1  15
ATOM     15  O   UNL     1      46.589   5.203  13.691  0.00  0.00    +0.000 OA
BRANCH  15  19
ATOM     16  C   UNL     1      48.558   4.250  17.178  0.00  0.00    +0.000 A 
ATOM     17  C   UNL     1      48.686   5.532  16.641  0.00  0.00    +0.000 A 
ATOM     18  C   UNL     1      48.018   5.844  15.455  0.00  0.00    +0.000 A 
ATOM     19  C   UNL     1      47.243   4.861  14.857  0.00  0.00    +0.000 A 
ATOM     20  N   UNL     1      47.110   3.612  15.348  0.00  0.00    +0.000 NA
ATOM     21  C   UNL     1      47.777   3.330  16.492  0.00  0.00    +0.000 A 
BRANCH  16  23
ATOM     22  N   UNL     1      48.447   3.243  19.388  0.00  0.00    +0.000 N 
ATOM     23  C   UNL     1      49.225   3.812  18.420  0.00  0.00    +0.000 C 
ATOM     24  O   UNL     1      50.436   3.916  18.562  0.00  0.00    +0.000 OA
ATOM     25  H   UNL     1      48.940   2.850  20.180  0.00  0.00    +0.000 HD
ATOM     26  H   UNL     1      47.511   2.910  19.211  0.00  0.00    +0.000 HD
ENDBRANCH  16  23
ENDBRANCH  15  19
ENDBRANCH   1  15
TORSDOF 5
ENDMDL
MODEL 9
REMARK VINA RESULT:    -7.362      3.580      7.772
REMARK INTER + INTRA:         -10.300
REMARK INTER:                  -9.673
REMARK INTRA:                  -0.627
REMARK UNBOUND:                -0.786
REMARK  Name = 
REMARK  5 active torsions:
REMARK  status: ('A' for Active; 'I' for Inactive)
REMARK    1  A    between atoms: C_2  and  C_4
REMARK    2  A    between atoms: C_7  and  O_8
REMARK    3  A    between atoms: O_8  and  C_9
REMARK    4  A    between atoms: C_9  and  C_10
REMARK    5  A    between atoms: C_14  and  C_15
REMARK                            x       y       z     vdW  Elec       q    Type
REMARK                         _______ _______ _______ _____ _____    ______ ____
ROOT
ATOM      1  C   UNL     1      44.699   3.935  13.086  0.00  0.00    +0.000 C 
ENDROOT
BRANCH   1   2
ATOM      2  C   UNL     1      44.576   4.084  11.592  0.00  0.00    +0.000 A 
ATOM      3  C   UNL     1      43.618   4.934  11.056  0.00  0.00    +0.000 A 
ATOM      4  N   UNL     1      43.392   5.075   9.734  0.00  0.00    +0.000 NA
ATOM      5  C   UNL     1      44.150   4.320   8.904  0.00  0.00    +0.000 A 
ATOM      6  C   UNL     1      45.144   3.426   9.307  0.00  0.00    +0.000 A 
ATOM      7  C   UNL     1      45.335   3.324  10.695  0.00  0.00    +0.000 A 
BRANCH   6   8
ATOM      8  C   UNL     1      45.940   2.633   8.348  0.00  0.00    +0.000 A 
ATOM      9  C   UNL     1      46.700   3.241   7.338  0.00  0.00    +0.000 A 
ATOM     10  C   UNL     1      47.437   2.451   6.465  0.00  0.00    +0.000 A 
ATOM     11  N   UNL     1      47.482   1.106   6.525  0.00  0.00    +0.000 NA
ATOM     12  C   UNL     1      46.752   0.531   7.498  0.00  0.00    +0.000 A 
ATOM     13  F   UNL     1      46.784  -0.806   7.589  0.00  0.00    +0.000 F 
ATOM     14  C   UNL     1      45.980   1.233   8.409  0.00  0.00    +0.000 A 
ENDBRANCH   6   8
ENDBRANCH   1   2
BRANCH   1  15
ATOM     15  O   UNL     1      45.959   3.350  13.436  0.00  0.00    +0.000 OA
BRANCH  15  19
ATOM     16  C   UNL     1      48.295   5.988  15.564  0.00  0.00    +0.000 A 
ATOM     17  C   UNL     1      47.929   6.293  14.252  0.00  0.00    +0.000 A 
ATOM     18  C   UNL     1      47.140   5.389  13.538  0.00  0.00    +0.000 A 
ATOM     19  C   UNL     1      46.745   4.218  14.166  0.00  0.00    +0.000 A 
ATOM     20  N   UNL     1      47.091   3.894  15.429  0.00  0.00    +0.000 NA
ATOM     21  C   UNL     1      47.867   4.780  16.098  0.00  0.00    +0.000 A 
BRANCH  16  23
ATOM     22  N   UNL     1      49.581   6.361  17.594  0.00  0.00    +0.000 N 
ATOM     23  C   UNL     1      49.131   6.866  16.407  0.00  0.00    +0.000 C 
ATOM     24  O   UNL     1      49.444   7.990  16.039  0.00  0.00    +0.000 OA
ATOM     25  H   UNL     1      50.242   6.937  18.100  0.00  0.00    +0.000 HD
ATOM     26  H   UNL     1      49.563   5.375  17.810  0.00  0.00    +0.000 HD
ENDBRANCH  16  23
ENDBRANCH  15  19
ENDBRANCH   1  15
TORSDOF 5
ENDMDL
