MODEL 1
REMARK VINA RESULT:    -8.755      0.000      0.000
REMARK INTER + INTRA:         -12.139
REMARK INTER:                 -11.314
REMARK INTRA:                  -0.825
REMARK UNBOUND:                -0.825
REMARK  Name = 
REMARK  5 active torsions:
REMARK  status: ('A' for Active; 'I' for Inactive)
REMARK    1  A    between atoms: C_2  and  C_4
REMARK    2  A    between atoms: C_7  and  O_8
REMARK    3  A    between atoms: O_8  and  C_9
REMARK    4  A    between atoms: C_9  and  C_10
REMARK    5  A    between atoms: C_15  and  C_16
REMARK                            x       y       z     vdW  Elec       q    Type
REMARK                         _______ _______ _______ _____ _____    ______ ____
ROOT
ATOM      1  C   UNL     1      43.567   4.368  11.134  0.00  0.00    +0.000 C 
ENDROOT
BRANCH   1   2
ATOM      2  C   UNL     1      44.755   4.832  11.948  0.00  0.00    +0.000 A 
ATOM      3  C   UNL     1      45.322   3.969  12.894  0.00  0.00    +0.000 A 
ATOM      4  C   UNL     1      46.449   4.361  13.610  0.00  0.00    +0.000 A 
ATOM      5  C   UNL     1      47.013   5.617  13.386  0.00  0.00    +0.000 A 
ATOM      6  F   UNL     1      48.085   5.946  14.123  0.00  0.00    +0.000 F 
ATOM      7  C   UNL     1      46.492   6.513  12.437  0.00  0.00    +0.000 A 
ATOM      8  C   UNL     1      45.359   6.080  11.717  0.00  0.00    +0.000 A 
BRANCH   7   9
ATOM      9  C   UNL     1      47.089   7.844  12.191  0.00  0.00    +0.000 A 
ATOM     10  C   UNL     1      48.421   7.997  11.766  0.00  0.00    +0.000 A 
ATOM     11  C   UNL     1      48.958   9.264  11.538  0.00  0.00    +0.000 A 
ATOM     12  C   UNL     1      48.148  10.365  11.736  0.00  0.00    +0.000 A 
ATOM     13  N   UNL     1      46.869  10.282  12.148  0.00  0.00    +0.000 NA
ATOM     14  C   UNL     1      46.379   9.035  12.365  0.00  0.00    +0.000 A 
ENDBRANCH   7   9
ENDBRANCH   1   2
BRANCH   1  15
ATOM     15  O   UNL     1      43.695   4.762   9.763  0.00  0.00    +0.000 OA
BRANCH  15  19
ATOM     16  C   UNL     1      46.334   2.306   7.770  0.00  0.00    +0.000 A 
ATOM     17  C   UNL     1      45.446   1.754   8.697  0.00  0.00    +0.000 A 
ATOM     18  C   UNL     1      44.554   2.595   9.366  0.00  0.00    +0.000 A 
ATOM     19  C   UNL     1      44.581   3.951   9.080  0.00  0.00    +0.000 A 
ATOM     20  N   UNL     1      45.425   4.506   8.185  0.00  0.00    +0.000 NA
ATOM     21  C   UNL     1      46.289   3.675   7.557  0.00  0.00    +0.000 A 
BRANCH  16  23
ATOM     22  N   UNL     1      48.437   2.175   6.561  0.00  0.00    +0.000 N 
ATOM     23  C   UNL     1      47.335   1.517   7.027  0.00  0.00    +0.000 C 
ATOM     24  O   UNL     1      47.203   0.310   6.868  0.00  0.00    +0.000 OA
ATOM     25  H   UNL     1      49.159   1.597   6.149  0.00  0.00    +0.000 HD
ATOM     26  H   UNL     1      48.705   3.090   6.891  0.00  0.00    +0.000 HD
ENDBRANCH  16  23
ENDBRANCH  15  19
ENDBRANCH   1  15
TORSDOF 5
ENDMDL
MODEL 2
REMARK VINA RESULT:    -8.399      1.940      2.447
REMARK INTER + INTRA:         -11.679
REMARK INTER:                 -10.913
REMARK INTRA:                  -0.766
REMARK UNBOUND:                -0.825
REMARK  Name = 
REMARK  5 active torsions:
REMARK  status: ('A' for Active; 'I' for Inactive)
REMARK    1  A    between atoms: C_2  and  C_4
REMARK    2  A    between atoms: C_7  and  O_8
REMARK    3  A    between atoms: O_8  and  C_9
REMARK    4  A    between atoms: C_9  and  C_10
REMARK    5  A    between atoms: C_15  and  C_16
REMARK                            x       y       z     vdW  Elec       q    Type
REMARK                         _______ _______ _______ _____ _____    ______ ____
ROOT
ATOM      1  C   UNL     1      44.162   3.217  11.574  0.00  0.00    +0.000 C 
ENDROOT
BRANCH   1   2
ATOM      2  C   UNL     1      44.515   4.687  11.639  0.00  0.00    +0.000 A 
ATOM      3  C   UNL     1      43.518   5.646  11.422  0.00  0.00    +0.000 A 
ATOM      4  C   UNL     1      43.816   7.001  11.534  0.00  0.00    +0.000 A 
ATOM      5  C   UNL     1      45.111   7.403  11.863  0.00  0.00    +0.000 A 
ATOM      6  F   UNL     1      45.341   8.723  11.934  0.00  0.00    +0.000 F 
ATOM      7  C   UNL     1      46.142   6.480  12.108  0.00  0.00    +0.000 A 
ATOM      8  C   UNL     1      45.805   5.115  12.001  0.00  0.00    +0.000 A 
BRANCH   7   9
ATOM      9  C   UNL     1      47.515   6.900  12.462  0.00  0.00    +0.000 A 
ATOM     10  C   UNL     1      48.321   7.640  11.578  0.00  0.00    +0.000 A 
ATOM     11  C   UNL     1      49.612   8.026  11.938  0.00  0.00    +0.000 A 
ATOM     12  C   UNL     1      50.078   7.668  13.188  0.00  0.00    +0.000 A 
ATOM     13  N   UNL     1      49.357   6.955  14.074  0.00  0.00    +0.000 NA
ATOM     14  C   UNL     1      48.107   6.591  13.690  0.00  0.00    +0.000 A 
ENDBRANCH   7   9
ENDBRANCH   1   2
BRANCH   1  15
ATOM     15  O   UNL     1      43.605   2.875  10.300  0.00  0.00    +0.000 OA
BRANCH  15  19
ATOM     16  C   UNL     1      46.499   2.539   7.389  0.00  0.00    +0.000 A 
ATOM     17  C   UNL     1      45.839   3.758   7.566  0.00  0.00    +0.000 A 
ATOM     18  C   UNL     1      44.861   3.862   8.557  0.00  0.00    +0.000 A 
ATOM     19  C   UNL     1      44.583   2.748   9.334  0.00  0.00    +0.000 A 
ATOM     20  N   UNL     1      45.211   1.561   9.184  0.00  0.00    +0.000 NA
ATOM     21  C   UNL     1      46.147   1.479   8.211  0.00  0.00    +0.000 A 
BRANCH  16  23
ATOM     22  N   UNL     1      47.418   3.008   5.189  0.00  0.00    +0.000 N 
ATOM     23  C   UNL     1      47.528   2.309   6.357  0.00  0.00    +0.000 C 
ATOM     24  O   UNL     1      48.468   1.549   6.554  0.00  0.00    +0.000 OA
ATOM     25  H   UNL     1      48.190   2.916   4.541  0.00  0.00    +0.000 HD
ATOM     26  H   UNL     1      46.824   3.819   5.094  0.00  0.00    +0.000 HD
ENDBRANCH  16  23
ENDBRANCH  15  19
ENDBRANCH   1  15
TORSDOF 5
ENDMDL
MODEL 3
REMARK VINA RESULT:    -8.225      2.378      3.837
REMARK INTER + INTRA:         -11.454
REMARK INTER:                 -10.822
REMARK INTRA:                  -0.631
REMARK UNBOUND:                -0.825
REMARK  Name = 
REMARK  5 active torsions:
REMARK  status: ('A' for Active; 'I' for Inactive)
REMARK    1  A    between atoms: C_2  and  C_4
REMARK    2  A    between atoms: C_7  and  O_8
REMARK    3  A    between atoms: O_8  and  C_9
REMARK    4  A    between atoms: C_9  and  C_10
REMARK    5  A    between atoms: C_15  and  C_16
REMARK                            x       y       z     vdW  Elec       q    Type
REMARK                         _______ _______ _______ _____ _____    ______ ____
ROOT
ATOM      1  C   UNL     1      44.258   4.291  11.562  0.00  0.00    +0.000 C 
ENDROOT
BRANCH   1   2
ATOM      2  C   UNL     1      45.442   4.900  12.281  0.00  0.00    +0.000 A 
ATOM      3  C   UNL     1      46.046   6.053  11.762  0.00  0.00    +0.000 A 
ATOM      4  C   UNL     1      47.099   6.655  12.443  0.00  0.00    +0.000 A 
ATOM      5  C   UNL     1      47.554   6.110  13.643  0.00  0.00    +0.000 A 
ATOM      6  F   UNL     1      48.587   6.724  14.241  0.00  0.00    +0.000 F 
ATOM      7  C   UNL     1      46.972   4.966  14.214  0.00  0.00    +0.000 A 
ATOM      8  C   UNL     1      45.897   4.387  13.508  0.00  0.00    +0.000 A 
BRANCH   7   9
ATOM      9  C   UNL     1      47.447   4.386  15.490  0.00  0.00    +0.000 A 
ATOM     10  C   UNL     1      47.908   3.061  15.580  0.00  0.00    +0.000 A 
ATOM     11  C   UNL     1      48.354   2.539  16.795  0.00  0.00    +0.000 A 
ATOM     12  C   UNL     1      48.334   3.358  17.906  0.00  0.00    +0.000 A 
ATOM     13  N   UNL     1      47.897   4.631  17.883  0.00  0.00    +0.000 NA
ATOM     14  C   UNL     1      47.467   5.106  16.687  0.00  0.00    +0.000 A 
ENDBRANCH   7   9
ENDBRANCH   1   2
BRANCH   1  15
ATOM     15  O   UNL     1      44.170   4.768  10.214  0.00  0.00    +0.000 OA
BRANCH  15  19
ATOM     16  C   UNL     1      46.460   2.459   7.685  0.00  0.00    +0.000 A 
ATOM     17  C   UNL     1      45.659   1.839   8.648  0.00  0.00    +0.000 A 
ATOM     18  C   UNL     1      44.886   2.630   9.500  0.00  0.00    +0.000 A 
ATOM     19  C   UNL     1      44.938   4.008   9.354  0.00  0.00    +0.000 A 
ATOM     20  N   UNL     1      45.699   4.629   8.427  0.00  0.00    +0.000 NA
ATOM     21  C   UNL     1      46.450   3.844   7.621  0.00  0.00    +0.000 A 
BRANCH  16  23
ATOM     22  N   UNL     1      48.381   2.407   6.199  0.00  0.00    +0.000 N 
ATOM     23  C   UNL     1      47.336   1.724   6.753  0.00  0.00    +0.000 C 
ATOM     24  O   UNL     1      47.158   0.536   6.516  0.00  0.00    +0.000 OA
ATOM     25  H   UNL     1      49.029   1.857   5.649  0.00  0.00    +0.000 HD
ATOM     26  H   UNL     1      48.711   3.288   6.564  0.00  0.00    +0.000 HD
ENDBRANCH  16  23
ENDBRANCH  15  19
ENDBRANCH   1  15
TORSDOF 5
ENDMDL
MODEL 4
REMARK VINA RESULT:    -7.333      3.282      7.288
REMARK INTER + INTRA:         -10.301
REMARK INTER:                 -10.066
REMARK INTRA:                  -0.234
REMARK UNBOUND:                -0.825
REMARK  Name = 
REMARK  5 active torsions:
REMARK  status: ('A' for Active; 'I' for Inactive)
REMARK    1  A    between atoms: C_2  and  C_4
REMARK    2  A    between atoms: C_7  and  O_8
REMARK    3  A    between atoms: O_8  and  C_9
REMARK    4  A    between atoms: C_9  and  C_10
REMARK    5  A    between atoms: C_15  and  C_16
REMARK                            x       y       z     vdW  Elec       q    Type
REMARK                         _______ _______ _______ _____ _____    ______ ____
ROOT
ATOM      1  C   UNL     1      45.248   6.326  11.150  0.00  0.00    +0.000 C 
ENDROOT
BRANCH   1   2
ATOM      2  C   UNL     1      45.032   4.940  10.581  0.00  0.00    +0.000 A 
ATOM      3  C   UNL     1      44.059   4.106  11.145  0.00  0.00    +0.000 A 
ATOM      4  C   UNL     1      43.811   2.852  10.597  0.00  0.00    +0.000 A 
ATOM      5  C   UNL     1      44.534   2.425   9.483  0.00  0.00    +0.000 A 
ATOM      6  F   UNL     1      44.265   1.197   9.013  0.00  0.00    +0.000 F 
ATOM      7  C   UNL     1      45.508   3.230   8.869  0.00  0.00    +0.000 A 
ATOM      8  C   UNL     1      45.726   4.501   9.439  0.00  0.00    +0.000 A 
BRANCH   7   9
ATOM      9  C   UNL     1      46.275   2.785   7.685  0.00  0.00    +0.000 A 
ATOM     10  C   UNL     1      46.378   3.572   6.524  0.00  0.00    +0.000 A 
ATOM     11  C   UNL     1      47.109   3.131   5.422  0.00  0.00    +0.000 A 
ATOM     12  C   UNL     1      47.735   1.902   5.500  0.00  0.00    +0.000 A 
ATOM     13  N   UNL     1      47.667   1.101   6.580  0.00  0.00    +0.000 NA
ATOM     14  C   UNL     1      46.944   1.559   7.634  0.00  0.00    +0.000 A 
ENDBRANCH   7   9
ENDBRANCH   1   2
BRANCH   1  15
ATOM     15  O   UNL     1      46.642   6.606  11.315  0.00  0.00    +0.000 OA
BRANCH  15  19
ATOM     16  C   UNL     1      47.904   5.616  15.109  0.00  0.00    +0.000 A 
ATOM     17  C   UNL     1      47.101   4.722  14.395  0.00  0.00    +0.000 A 
ATOM     18  C   UNL     1      46.680   5.066  13.110  0.00  0.00    +0.000 A 
ATOM     19  C   UNL     1      47.080   6.286  12.585  0.00  0.00    +0.000 A 
ATOM     20  N   UNL     1      47.860   7.163  13.253  0.00  0.00    +0.000 NA
ATOM     21  C   UNL     1      48.246   6.815  14.502  0.00  0.00    +0.000 A 
BRANCH  16  23
ATOM     22  N   UNL     1      47.710   5.973  17.504  0.00  0.00    +0.000 N 
ATOM     23  C   UNL     1      48.383   5.368  16.482  0.00  0.00    +0.000 C 
ATOM     24  O   UNL     1      49.324   4.616  16.701  0.00  0.00    +0.000 OA
ATOM     25  H   UNL     1      47.987   5.705  18.440  0.00  0.00    +0.000 HD
ATOM     26  H   UNL     1      46.792   6.376  17.388  0.00  0.00    +0.000 HD
ENDBRANCH  16  23
ENDBRANCH  15  19
ENDBRANCH   1  15
TORSDOF 5
ENDMDL
MODEL 5
REMARK VINA RESULT:    -7.257      2.909      6.941
REMARK INTER + INTRA:         -10.203
REMARK INTER:                  -9.459
REMARK INTRA:                  -0.743
REMARK UNBOUND:                -0.825
REMARK  Name = 
REMARK  5 active torsions:
REMARK  status: ('A' for Active; 'I' for Inactive)
REMARK    1  A    between atoms: C_2  and  C_4
REMARK    2  A    between atoms: C_7  and  O_8
REMARK    3  A    between atoms: O_8  and  C_9
REMARK    4  A    between atoms: C_9  and  C_10
REMARK    5  A    between atoms: C_15  and  C_16
REMARK                            x       y       z     vdW  Elec       q    Type
REMARK                         _______ _______ _______ _____ _____    ______ ____
ROOT
ATOM      1  C   UNL     1      44.494   6.335  10.882  0.00  0.00    +0.000 C 
ENDROOT
BRANCH   1   2
ATOM      2  C   UNL     1      44.545   4.900  10.405  0.00  0.00    +0.000 A 
ATOM      3  C   UNL     1      43.727   3.940  11.015  0.00  0.00    +0.000 A 
ATOM      4  C   UNL     1      43.723   2.629  10.550  0.00  0.00    +0.000 A 
ATOM      5  C   UNL     1      44.535   2.270   9.475  0.00  0.00    +0.000 A 
ATOM      6  F   UNL     1      44.504   0.986   9.087  0.00  0.00    +0.000 F 
ATOM      7  C   UNL     1      45.361   3.198   8.818  0.00  0.00    +0.000 A 
ATOM      8  C   UNL     1      45.332   4.522   9.303  0.00  0.00    +0.000 A 
BRANCH   7   9
ATOM      9  C   UNL     1      46.222   2.824   7.674  0.00  0.00    +0.000 A 
ATOM     10  C   UNL     1      46.280   3.597   6.501  0.00  0.00    +0.000 A 
ATOM     11  C   UNL     1      47.102   3.224   5.437  0.00  0.00    +0.000 A 
ATOM     12  C   UNL     1      47.861   2.078   5.567  0.00  0.00    +0.000 A 
ATOM     13  N   UNL     1      47.843   1.294   6.662  0.00  0.00    +0.000 NA
ATOM     14  C   UNL     1      47.029   1.683   7.676  0.00  0.00    +0.000 A 
ENDBRANCH   7   9
ENDBRANCH   1   2
BRANCH   1  15
ATOM     15  O   UNL     1      44.882   6.438  12.256  0.00  0.00    +0.000 OA
BRANCH  15  19
ATOM     16  C   UNL     1      48.840   7.496  12.679  0.00  0.00    +0.000 A 
ATOM     17  C   UNL     1      48.444   6.186  12.961  0.00  0.00    +0.000 A 
ATOM     18  C   UNL     1      47.100   5.837  12.813  0.00  0.00    +0.000 A 
ATOM     19  C   UNL     1      46.206   6.807  12.386  0.00  0.00    +0.000 A 
ATOM     20  N   UNL     1      46.567   8.077  12.102  0.00  0.00    +0.000 NA
ATOM     21  C   UNL     1      47.871   8.397  12.264  0.00  0.00    +0.000 A 
BRANCH  16  23
ATOM     22  N   UNL     1      50.901   7.623  13.958  0.00  0.00    +0.000 N 
ATOM     23  C   UNL     1      50.226   7.981  12.827  0.00  0.00    +0.000 C 
ATOM     24  O   UNL     1      50.764   8.645  11.950  0.00  0.00    +0.000 OA
ATOM     25  H   UNL     1      51.882   7.876  13.989  0.00  0.00    +0.000 HD
ATOM     26  H   UNL     1      50.593   6.877  14.564  0.00  0.00    +0.000 HD
ENDBRANCH  16  23
ENDBRANCH  15  19
ENDBRANCH   1  15
TORSDOF 5
ENDMDL
MODEL 6
REMARK VINA RESULT:    -6.930      5.582      8.057
REMARK INTER + INTRA:          -9.780
REMARK INTER:                  -8.923
REMARK INTRA:                  -0.857
REMARK UNBOUND:                -0.825
REMARK  Name = 
REMARK  5 active torsions:
REMARK  status: ('A' for Active; 'I' for Inactive)
REMARK    1  A    between atoms: C_2  and  C_4
REMARK    2  A    between atoms: C_7  and  O_8
REMARK    3  A    between atoms: O_8  and  C_9
REMARK    4  A    between atoms: C_9  and  C_10
REMARK    5  A    between atoms: C_15  and  C_16
REMARK                            x       y       z     vdW  Elec       q    Type
REMARK                         _______ _______ _______ _____ _____    ______ ____
ROOT
ATOM      1  C   UNL     1      49.315   6.681  16.085  0.00  0.00    +0.000 C 
ENDROOT
BRANCH   1   2
ATOM      2  C   UNL     1      48.656   6.672  14.723  0.00  0.00    +0.000 A 
ATOM      3  C   UNL     1      49.266   7.343  13.656  0.00  0.00    +0.000 A 
ATOM      4  C   UNL     1      48.700   7.296  12.386  0.00  0.00    +0.000 A 
ATOM      5  C   UNL     1      47.522   6.580  12.176  0.00  0.00    +0.000 A 
ATOM      6  F   UNL     1      47.013   6.590  10.935  0.00  0.00    +0.000 F 
ATOM      7  C   UNL     1      46.879   5.876  13.209  0.00  0.00    +0.000 A 
ATOM      8  C   UNL     1      47.485   5.931  14.481  0.00  0.00    +0.000 A 
BRANCH   7   9
ATOM      9  C   UNL     1      45.632   5.111  12.992  0.00  0.00    +0.000 A 
ATOM     10  C   UNL     1      44.370   5.731  12.972  0.00  0.00    +0.000 A 
ATOM     11  C   UNL     1      43.209   4.987  12.762  0.00  0.00    +0.000 A 
ATOM     12  C   UNL     1      43.331   3.624  12.570  0.00  0.00    +0.000 A 
ATOM     13  N   UNL     1      44.509   2.974  12.585  0.00  0.00    +0.000 NA
ATOM     14  C   UNL     1      45.618   3.727  12.796  0.00  0.00    +0.000 A 
ENDBRANCH   7   9
ENDBRANCH   1   2
BRANCH   1  15
ATOM     15  O   UNL     1      48.732   5.699  16.949  0.00  0.00    +0.000 OA
BRANCH  15  19
ATOM     16  C   UNL     1      51.294   2.523  17.514  0.00  0.00    +0.000 A 
ATOM     17  C   UNL     1      51.733   3.820  17.793  0.00  0.00    +0.000 A 
ATOM     18  C   UNL     1      50.856   4.890  17.600  0.00  0.00    +0.000 A 
ATOM     19  C   UNL     1      49.576   4.623  17.140  0.00  0.00    +0.000 A 
ATOM     20  N   UNL     1      49.128   3.378  16.869  0.00  0.00    +0.000 NA
ATOM     21  C   UNL     1      49.997   2.358  17.051  0.00  0.00    +0.000 A 
BRANCH  16  23
ATOM     22  N   UNL     1      51.558   0.193  18.148  0.00  0.00    +0.000 N 
ATOM     23  C   UNL     1      52.142   1.325  17.655  0.00  0.00    +0.000 C 
ATOM     24  O   UNL     1      53.316   1.332  17.307  0.00  0.00    +0.000 OA
ATOM     25  H   UNL     1      52.128  -0.643  18.136  0.00  0.00    +0.000 HD
ATOM     26  H   UNL     1      50.556   0.074  18.196  0.00  0.00    +0.000 HD
ENDBRANCH  16  23
ENDBRANCH  15  19
ENDBRANCH   1  15
TORSDOF 5
ENDMDL
MODEL 7
REMARK VINA RESULT:    -6.638      4.842      8.266
REMARK INTER + INTRA:          -9.403
REMARK INTER:                  -8.584
REMARK INTRA:                  -0.820
REMARK UNBOUND:                -0.825
REMARK  Name = 
REMARK  5 active torsions:
REMARK  status: ('A' for Active; 'I' for Inactive)
REMARK    1  A    between atoms: C_2  and  C_4
REMARK    2  A    between atoms: C_7  and  O_8
REMARK    3  A    between atoms: O_8  and  C_9
REMARK    4  A    between atoms: C_9  and  C_10
REMARK    5  A    between atoms: C_15  and  C_16
REMARK                            x       y       z     vdW  Elec       q    Type
REMARK                         _______ _______ _______ _____ _____    ______ ____
ROOT
ATOM      1  C   UNL     1      48.486   7.415  14.187  0.00  0.00    +0.000 C 
ENDROOT
BRANCH   1   2
ATOM      2  C   UNL     1      47.230   7.495  13.349  0.00  0.00    +0.000 A 
ATOM      3  C   UNL     1      46.475   8.675  13.347  0.00  0.00    +0.000 A 
ATOM      4  C   UNL     1      45.348   8.782  12.537  0.00  0.00    +0.000 A 
ATOM      5  C   UNL     1      44.970   7.711  11.727  0.00  0.00    +0.000 A 
ATOM      6  F   UNL     1      43.862   7.867  10.986  0.00  0.00    +0.000 F 
ATOM      7  C   UNL     1      45.702   6.513  11.680  0.00  0.00    +0.000 A 
ATOM      8  C   UNL     1      46.847   6.441  12.500  0.00  0.00    +0.000 A 
BRANCH   7   9
ATOM      9  C   UNL     1      45.309   5.376  10.819  0.00  0.00    +0.000 A 
ATOM     10  C   UNL     1      45.657   5.315   9.458  0.00  0.00    +0.000 A 
ATOM     11  C   UNL     1      45.277   4.230   8.669  0.00  0.00    +0.000 A 
ATOM     12  C   UNL     1      44.552   3.213   9.259  0.00  0.00    +0.000 A 
ATOM     13  N   UNL     1      44.183   3.218  10.554  0.00  0.00    +0.000 NA
ATOM     14  C   UNL     1      44.565   4.291  11.292  0.00  0.00    +0.000 A 
ENDBRANCH   7   9
ENDBRANCH   1   2
BRANCH   1  15
ATOM     15  O   UNL     1      48.784   6.061  14.546  0.00  0.00    +0.000 OA
BRANCH  15  19
ATOM     16  C   UNL     1      48.395   5.475  18.604  0.00  0.00    +0.000 A 
ATOM     17  C   UNL     1      48.760   6.735  18.122  0.00  0.00    +0.000 A 
ATOM     18  C   UNL     1      48.888   6.924  16.745  0.00  0.00    +0.000 A 
ATOM     19  C   UNL     1      48.642   5.850  15.903  0.00  0.00    +0.000 A 
ATOM     20  N   UNL     1      48.283   4.626  16.345  0.00  0.00    +0.000 NA
ATOM     21  C   UNL     1      48.177   4.461  17.683  0.00  0.00    +0.000 A 
BRANCH  16  23
ATOM     22  N   UNL     1      48.548   3.881  20.431  0.00  0.00    +0.000 N 
ATOM     23  C   UNL     1      48.258   5.156  20.038  0.00  0.00    +0.000 C 
ATOM     24  O   UNL     1      47.934   6.012  20.852  0.00  0.00    +0.000 OA
ATOM     25  H   UNL     1      48.550   3.713  21.430  0.00  0.00    +0.000 HD
ATOM     26  H   UNL     1      49.060   3.234  19.849  0.00  0.00    +0.000 HD
ENDBRANCH  16  23
ENDBRANCH  15  19
ENDBRANCH   1  15
TORSDOF 5
ENDMDL
MODEL 8
REMARK VINA RESULT:    -6.394      5.483      7.694
REMARK INTER + INTRA:          -9.088
REMARK INTER:                  -8.217
REMARK INTRA:                  -0.871
REMARK UNBOUND:                -0.825
REMARK  Name = 
REMARK  5 active torsions:
REMARK  status: ('A' for Active; 'I' for Inactive)
REMARK    1  A    between atoms: C_2  and  C_4
REMARK    2  A    between atoms: C_7  and  O_8
REMARK    3  A    between atoms: O_8  and  C_9
REMARK    4  A    between atoms: C_9  and  C_10
REMARK    5  A    between atoms: C_15  and  C_16
REMARK                            x       y       z     vdW  Elec       q    Type
REMARK                         _______ _______ _______ _____ _____    ______ ____
ROOT
ATOM      1  C   UNL     1      48.770   7.255  15.291  0.00  0.00    +0.000 C 
ENDROOT
BRANCH   1   2
ATOM      2  C   UNL     1      49.090   6.525  16.576  0.00  0.00    +0.000 A 
ATOM      3  C   UNL     1      48.545   6.980  17.784  0.00  0.00    +0.000 A 
ATOM      4  C   UNL     1      48.785   6.285  18.965  0.00  0.00    +0.000 A 
ATOM      5  C   UNL     1      49.571   5.133  18.946  0.00  0.00    +0.000 A 
ATOM      6  F   UNL     1      49.784   4.520  20.120  0.00  0.00    +0.000 F 
ATOM      7  C   UNL     1      50.127   4.625  17.760  0.00  0.00    +0.000 A 
ATOM      8  C   UNL     1      49.853   5.343  16.577  0.00  0.00    +0.000 A 
BRANCH   7   9
ATOM      9  C   UNL     1      50.957   3.401  17.732  0.00  0.00    +0.000 A 
ATOM     10  C   UNL     1      52.289   3.392  18.182  0.00  0.00    +0.000 A 
ATOM     11  C   UNL     1      53.049   2.224  18.148  0.00  0.00    +0.000 A 
ATOM     12  C   UNL     1      52.459   1.072  17.666  0.00  0.00    +0.000 A 
ATOM     13  N   UNL     1      51.191   1.019  17.216  0.00  0.00    +0.000 NA
ATOM     14  C   UNL     1      50.481   2.175  17.258  0.00  0.00    +0.000 A 
ENDBRANCH   7   9
ENDBRANCH   1   2
BRANCH   1  15
ATOM     15  O   UNL     1      48.826   6.371  14.166  0.00  0.00    +0.000 OA
BRANCH  15  19
ATOM     16  C   UNL     1      45.053   5.141  13.060  0.00  0.00    +0.000 A 
ATOM     17  C   UNL     1      45.414   6.481  12.902  0.00  0.00    +0.000 A 
ATOM     18  C   UNL     1      46.695   6.888  13.278  0.00  0.00    +0.000 A 
ATOM     19  C   UNL     1      47.567   5.941  13.793  0.00  0.00    +0.000 A 
ATOM     20  N   UNL     1      47.243   4.639  13.950  0.00  0.00    +0.000 NA
ATOM     21  C   UNL     1      45.993   4.270  13.590  0.00  0.00    +0.000 A 
BRANCH  16  23
ATOM     22  N   UNL     1      42.638   5.395  12.993  0.00  0.00    +0.000 N 
ATOM     23  C   UNL     1      43.720   4.607  12.722  0.00  0.00    +0.000 C 
ATOM     24  O   UNL     1      43.590   3.516  12.182  0.00  0.00    +0.000 OA
ATOM     25  H   UNL     1      41.746   5.056  12.656  0.00  0.00    +0.000 HD
ATOM     26  H   UNL     1      42.718   6.383  13.187  0.00  0.00    +0.000 HD
ENDBRANCH  16  23
ENDBRANCH  15  19
ENDBRANCH   1  15
TORSDOF 5
ENDMDL
MODEL 9
REMARK VINA RESULT:    -6.183      5.499      7.205
REMARK INTER + INTRA:          -8.815
REMARK INTER:                  -7.994
REMARK INTRA:                  -0.822
REMARK UNBOUND:                -0.825
REMARK  Name = 
REMARK  5 active torsions:
REMARK  status: ('A' for Active; 'I' for Inactive)
REMARK    1  A    between atoms: C_2  and  C_4
REMARK    2  A    between atoms: C_7  and  O_8
REMARK    3  A    between atoms: O_8  and  C_9
REMARK    4  A    between atoms: C_9  and  C_10
REMARK    5  A    between atoms: C_15  and  C_16
REMARK                            x       y       z     vdW  Elec       q    Type
REMARK                         _______ _______ _______ _____ _____    ______ ____
ROOT
ATOM      1  C   UNL     1      47.144   4.272  15.932  0.00  0.00    +0.000 C 
ENDROOT
BRANCH   1   2
ATOM      2  C   UNL     1      46.990   4.882  14.555  0.00  0.00    +0.000 A 
ATOM      3  C   UNL     1      45.982   4.415  13.702  0.00  0.00    +0.000 A 
ATOM      4  C   UNL     1      45.794   5.004  12.456  0.00  0.00    +0.000 A 
ATOM      5  C   UNL     1      46.610   6.062  12.056  0.00  0.00    +0.000 A 
ATOM      6  F   UNL     1      46.393   6.573  10.835  0.00  0.00    +0.000 F 
ATOM      7  C   UNL     1      47.623   6.579  12.881  0.00  0.00    +0.000 A 
ATOM      8  C   UNL     1      47.780   5.970  14.143  0.00  0.00    +0.000 A 
BRANCH   7   9
ATOM      9  C   UNL     1      48.489   7.704  12.465  0.00  0.00    +0.000 A 
ATOM     10  C   UNL     1      49.702   7.499  11.784  0.00  0.00    +0.000 A 
ATOM     11  C   UNL     1      50.499   8.577  11.399  0.00  0.00    +0.000 A 
ATOM     12  C   UNL     1      50.064   9.853  11.701  0.00  0.00    +0.000 A 
ATOM     13  N   UNL     1      48.917  10.112  12.356  0.00  0.00    +0.000 NA
ATOM     14  C   UNL     1      48.168   9.040  12.720  0.00  0.00    +0.000 A 
ENDBRANCH   7   9
ENDBRANCH   1   2
BRANCH   1  15
ATOM     15  O   UNL     1      48.173   4.932  16.677  0.00  0.00    +0.000 OA
BRANCH  15  19
ATOM     16  C   UNL     1      51.328   2.428  17.540  0.00  0.00    +0.000 A 
ATOM     17  C   UNL     1      51.448   3.798  17.789  0.00  0.00    +0.000 A 
ATOM     18  C   UNL     1      50.373   4.638  17.494  0.00  0.00    +0.000 A 
ATOM     19  C   UNL     1      49.219   4.078  16.968  0.00  0.00    +0.000 A 
ATOM     20  N   UNL     1      49.077   2.757  16.725  0.00  0.00    +0.000 NA
ATOM     21  C   UNL     1      50.136   1.963  17.005  0.00  0.00    +0.000 A 
BRANCH  16  23
ATOM     22  N   UNL     1      52.047   0.199  18.187  0.00  0.00    +0.000 N 
ATOM     23  C   UNL     1      52.409   1.454  17.787  0.00  0.00    +0.000 C 
ATOM     24  O   UNL     1      53.583   1.747  17.602  0.00  0.00    +0.000 OA
ATOM     25  H   UNL     1      52.795  -0.481  18.247  0.00  0.00    +0.000 HD
ATOM     26  H   UNL     1      51.104  -0.151  18.097  0.00  0.00    +0.000 HD
ENDBRANCH  16  23
ENDBRANCH  15  19
ENDBRANCH   1  15
TORSDOF 5
ENDMDL
