MODEL 1
REMARK VINA RESULT:    -8.793      0.000      0.000
REMARK INTER + INTRA:         -11.851
REMARK INTER:                 -10.849
REMARK INTRA:                  -1.002
REMARK UNBOUND:                -1.002
REMARK  Name = 
REMARK  4 active torsions:
REMARK  status: ('A' for Active; 'I' for Inactive)
REMARK    1  A    between atoms: C_2  and  C_4
REMARK    2  A    between atoms: N_8  and  C_9
REMARK    3  A    between atoms: C_9  and  C_10
REMARK    4  A    between atoms: C_14  and  C_15
REMARK                            x       y       z     vdW  Elec       q    Type
REMARK                         _______ _______ _______ _____ _____    ______ ____
ROOT
ATOM      1  C   UNL     1      43.822   4.909  11.360  0.00  0.00    +0.000 C 
ATOM      2  C   UNL     1      42.490   5.142  12.066  0.00  0.00    +0.000 C 
ATOM      3  C   UNL     1      42.960   6.112  11.035  0.00  0.00    +0.000 C 
ENDROOT
BRANCH   1   8
ATOM      4  C   UNL     1      46.592   2.786   7.498  0.00  0.00    +0.000 A 
ATOM      5  C   UNL     1      46.258   4.123   7.697  0.00  0.00    +0.000 A 
ATOM      6  C   UNL     1      45.380   4.463   8.728  0.00  0.00    +0.000 A 
ATOM      7  C   UNL     1      44.844   3.466   9.534  0.00  0.00    +0.000 A 
ATOM      8  N   UNL     1      43.867   3.709  10.504  0.00  0.00    +0.000 N 
ATOM      9  N   UNL     1      45.169   2.166   9.358  0.00  0.00    +0.000 NA
ATOM     10  C   UNL     1      46.027   1.852   8.350  0.00  0.00    +0.000 A 
ATOM     11  H   UNL     1      43.730   2.819  10.981  0.00  0.00    +0.000 HD
BRANCH   4  13
ATOM     12  N   UNL     1      47.351   2.959   5.192  0.00  0.00    +0.000 N 
ATOM     13  C   UNL     1      47.466   2.324   6.402  0.00  0.00    +0.000 C 
ATOM     14  O   UNL     1      48.269   1.415   6.563  0.00  0.00    +0.000 OA
ATOM     15  H   UNL     1      48.007   2.678   4.474  0.00  0.00    +0.000 HD
ATOM     16  H   UNL     1      46.889   3.851   5.085  0.00  0.00    +0.000 HD
ENDBRANCH   4  13
ENDBRANCH   1   8
BRANCH   1  17
ATOM     17  C   UNL     1      45.102   5.103  12.169  0.00  0.00    +0.000 A 
ATOM     18  C   UNL     1      45.582   4.095  13.021  0.00  0.00    +0.000 A 
ATOM     19  C   UNL     1      46.803   4.216  13.678  0.00  0.00    +0.000 A 
ATOM     20  C   UNL     1      47.592   5.343  13.468  0.00  0.00    +0.000 A 
ATOM     21  C   UNL     1      47.177   6.375  12.609  0.00  0.00    +0.000 A 
ATOM     22  C   UNL     1      45.911   6.248  12.002  0.00  0.00    +0.000 A 
BRANCH  21  23
ATOM     23  C   UNL     1      48.075   7.498  12.293  0.00  0.00    +0.000 A 
ATOM     24  C   UNL     1      49.445   7.332  12.140  0.00  0.00    +0.000 A 
ATOM     25  N   UNL     1      50.317   8.319  11.838  0.00  0.00    +0.000 NA
ATOM     26  C   UNL     1      49.779   9.531  11.667  0.00  0.00    +0.000 A 
ATOM     27  N   UNL     1      48.477   9.834  11.774  0.00  0.00    +0.000 NA
ATOM     28  C   UNL     1      47.658   8.802  12.087  0.00  0.00    +0.000 A 
ENDBRANCH  21  23
ENDBRANCH   1  17
TORSDOF 4
ENDMDL
MODEL 2
REMARK VINA RESULT:    -8.775      2.253      3.339
REMARK INTER + INTRA:         -11.829
REMARK INTER:                 -11.251
REMARK INTRA:                  -0.578
REMARK UNBOUND:                -1.002
REMARK  Name = 
REMARK  4 active torsions:
REMARK  status: ('A' for Active; 'I' for Inactive)
REMARK    1  A    between atoms: C_2  and  C_4
REMARK    2  A    between atoms: N_8  and  C_9
REMARK    3  A    between atoms: C_9  and  C_10
REMARK    4  A    between atoms: C_14  and  C_15
REMARK                            x       y       z     vdW  Elec       q    Type
REMARK                         _______ _______ _______ _____ _____    ______ ____
ROOT
ATOM      1  C   UNL     1      43.909   5.001  11.411  0.00  0.00    +0.000 C 
ATOM      2  C   UNL     1      42.714   5.140  12.350  0.00  0.00    +0.000 C 
ATOM      3  C   UNL     1      42.859   6.072  11.195  0.00  0.00    +0.000 C 
ENDROOT
BRANCH   1   8
ATOM      4  C   UNL     1      46.471   2.735   7.487  0.00  0.00    +0.000 A 
ATOM      5  C   UNL     1      46.098   4.068   7.628  0.00  0.00    +0.000 A 
ATOM      6  C   UNL     1      45.285   4.442   8.700  0.00  0.00    +0.000 A 
ATOM      7  C   UNL     1      44.851   3.481   9.605  0.00  0.00    +0.000 A 
ATOM      8  N   UNL     1      43.940   3.751  10.630  0.00  0.00    +0.000 N 
ATOM      9  N   UNL     1      45.216   2.185   9.485  0.00  0.00    +0.000 NA
ATOM     10  C   UNL     1      46.009   1.838   8.436  0.00  0.00    +0.000 A 
ATOM     11  H   UNL     1      43.876   2.889  11.169  0.00  0.00    +0.000 HD
BRANCH   4  13
ATOM     12  N   UNL     1      47.319   3.000   5.221  0.00  0.00    +0.000 N 
ATOM     13  C   UNL     1      47.281   2.235   6.359  0.00  0.00    +0.000 C 
ATOM     14  O   UNL     1      47.901   1.183   6.432  0.00  0.00    +0.000 OA
ATOM     15  H   UNL     1      47.935   2.679   4.485  0.00  0.00    +0.000 HD
ATOM     16  H   UNL     1      47.029   3.967   5.204  0.00  0.00    +0.000 HD
ENDBRANCH   4  13
ENDBRANCH   1   8
BRANCH   1  17
ATOM     17  C   UNL     1      45.284   5.398  11.942  0.00  0.00    +0.000 A 
ATOM     18  C   UNL     1      46.027   6.423  11.335  0.00  0.00    +0.000 A 
ATOM     19  C   UNL     1      47.230   6.869  11.876  0.00  0.00    +0.000 A 
ATOM     20  C   UNL     1      47.702   6.315  13.063  0.00  0.00    +0.000 A 
ATOM     21  C   UNL     1      46.990   5.302  13.729  0.00  0.00    +0.000 A 
ATOM     22  C   UNL     1      45.805   4.835  13.127  0.00  0.00    +0.000 A 
BRANCH  21  23
ATOM     23  C   UNL     1      47.430   4.818  15.048  0.00  0.00    +0.000 A 
ATOM     24  C   UNL     1      48.227   5.579  15.891  0.00  0.00    +0.000 A 
ATOM     25  N   UNL     1      48.651   5.195  17.115  0.00  0.00    +0.000 NA
ATOM     26  C   UNL     1      48.237   3.989  17.516  0.00  0.00    +0.000 A 
ATOM     27  N   UNL     1      47.460   3.152  16.813  0.00  0.00    +0.000 NA
ATOM     28  C   UNL     1      47.077   3.594  15.591  0.00  0.00    +0.000 A 
ENDBRANCH  21  23
ENDBRANCH   1  17
TORSDOF 4
ENDMDL
MODEL 3
REMARK VINA RESULT:    -6.497      4.300      8.277
REMARK INTER + INTRA:          -9.018
REMARK INTER:                  -8.153
REMARK INTRA:                  -0.865
REMARK UNBOUND:                -1.002
REMARK  Name = 
REMARK  4 active torsions:
REMARK  status: ('A' for Active; 'I' for Inactive)
REMARK    1  A    between atoms: C_2  and  C_4
REMARK    2  A    between atoms: N_8  and  C_9
REMARK    3  A    between atoms: C_9  and  C_10
REMARK    4  A    between atoms: C_14  and  C_15
REMARK                            x       y       z     vdW  Elec       q    Type
REMARK                         _______ _______ _______ _____ _____    ______ ____
ROOT
ATOM      1  C   UNL     1      49.061   7.944  12.789  0.00  0.00    +0.000 C 
ATOM      2  C   UNL     1      50.020   8.162  11.623  0.00  0.00    +0.000 C 
ATOM      3  C   UNL     1      49.720   9.288  12.553  0.00  0.00    +0.000 C 
ENDROOT
BRANCH   1   8
ATOM      4  C   UNL     1      48.425   6.742  17.813  0.00  0.00    +0.000 A 
ATOM      5  C   UNL     1      48.456   7.999  17.217  0.00  0.00    +0.000 A 
ATOM      6  C   UNL     1      48.783   8.106  15.863  0.00  0.00    +0.000 A 
ATOM      7  C   UNL     1      49.083   6.962  15.133  0.00  0.00    +0.000 A 
ATOM      8  N   UNL     1      49.538   6.995  13.812  0.00  0.00    +0.000 N 
ATOM      9  N   UNL     1      49.045   5.735  15.699  0.00  0.00    +0.000 NA
ATOM     10  C   UNL     1      48.723   5.648  17.018  0.00  0.00    +0.000 A 
ATOM     11  H   UNL     1      49.595   6.020  13.521  0.00  0.00    +0.000 HD
BRANCH   4  13
ATOM     12  N   UNL     1      47.122   5.676  19.572  0.00  0.00    +0.000 N 
ATOM     13  C   UNL     1      48.144   6.532  19.248  0.00  0.00    +0.000 C 
ATOM     14  O   UNL     1      48.797   7.092  20.117  0.00  0.00    +0.000 OA
ATOM     15  H   UNL     1      46.991   5.489  20.557  0.00  0.00    +0.000 HD
ATOM     16  H   UNL     1      46.727   5.023  18.911  0.00  0.00    +0.000 HD
ENDBRANCH   4  13
ENDBRANCH   1   8
BRANCH   1  17
ATOM     17  C   UNL     1      47.578   7.771  12.471  0.00  0.00    +0.000 A 
ATOM     18  C   UNL     1      46.655   8.795  12.740  0.00  0.00    +0.000 A 
ATOM     19  C   UNL     1      45.321   8.694  12.354  0.00  0.00    +0.000 A 
ATOM     20  C   UNL     1      44.888   7.570  11.656  0.00  0.00    +0.000 A 
ATOM     21  C   UNL     1      45.770   6.524  11.337  0.00  0.00    +0.000 A 
ATOM     22  C   UNL     1      47.100   6.632  11.790  0.00  0.00    +0.000 A 
BRANCH  21  23
ATOM     23  C   UNL     1      45.331   5.405  10.486  0.00  0.00    +0.000 A 
ATOM     24  C   UNL     1      45.739   5.271   9.166  0.00  0.00    +0.000 A 
ATOM     25  N   UNL     1      45.382   4.262   8.342  0.00  0.00    +0.000 NA
ATOM     26  C   UNL     1      44.587   3.332   8.880  0.00  0.00    +0.000 A 
ATOM     27  N   UNL     1      44.125   3.328  10.139  0.00  0.00    +0.000 NA
ATOM     28  C   UNL     1      44.513   4.371  10.910  0.00  0.00    +0.000 A 
ENDBRANCH  21  23
ENDBRANCH   1  17
TORSDOF 4
ENDMDL
MODEL 4
REMARK VINA RESULT:    -6.401      3.550      7.546
REMARK INTER + INTRA:          -8.900
REMARK INTER:                  -8.989
REMARK INTRA:                   0.090
REMARK UNBOUND:                -1.002
REMARK  Name = 
REMARK  4 active torsions:
REMARK  status: ('A' for Active; 'I' for Inactive)
REMARK    1  A    between atoms: C_2  and  C_4
REMARK    2  A    between atoms: N_8  and  C_9
REMARK    3  A    between atoms: C_9  and  C_10
REMARK    4  A    between atoms: C_14  and  C_15
REMARK                            x       y       z     vdW  Elec       q    Type
REMARK                         _______ _______ _______ _____ _____    ______ ____
ROOT
ATOM      1  C   UNL     1      48.431   7.793  12.852  0.00  0.00    +0.000 C 
ATOM      2  C   UNL     1      49.592   7.158  12.092  0.00  0.00    +0.000 C 
ATOM      3  C   UNL     1      49.396   8.636  12.043  0.00  0.00    +0.000 C 
ENDROOT
BRANCH   1   8
ATOM      4  C   UNL     1      47.971   4.292  16.675  0.00  0.00    +0.000 A 
ATOM      5  C   UNL     1      47.221   4.410  15.509  0.00  0.00    +0.000 A 
ATOM      6  C   UNL     1      47.417   5.516  14.679  0.00  0.00    +0.000 A 
ATOM      7  C   UNL     1      48.348   6.486  15.029  0.00  0.00    +0.000 A 
ATOM      8  N   UNL     1      48.515   7.678  14.319  0.00  0.00    +0.000 N 
ATOM      9  N   UNL     1      49.090   6.376  16.154  0.00  0.00    +0.000 NA
ATOM     10  C   UNL     1      48.887   5.293  16.951  0.00  0.00    +0.000 A 
ATOM     11  H   UNL     1      49.308   8.145  14.756  0.00  0.00    +0.000 HD
BRANCH   4  13
ATOM     12  N   UNL     1      48.848   2.914  18.480  0.00  0.00    +0.000 N 
ATOM     13  C   UNL     1      47.797   3.190  17.643  0.00  0.00    +0.000 C 
ATOM     14  O   UNL     1      46.757   2.551  17.705  0.00  0.00    +0.000 OA
ATOM     15  H   UNL     1      48.686   2.205  19.184  0.00  0.00    +0.000 HD
ATOM     16  H   UNL     1      49.613   3.557  18.626  0.00  0.00    +0.000 HD
ENDBRANCH   4  13
ENDBRANCH   1   8
BRANCH   1  17
ATOM     17  C   UNL     1      47.018   7.558  12.323  0.00  0.00    +0.000 A 
ATOM     18  C   UNL     1      46.060   8.585  12.333  0.00  0.00    +0.000 A 
ATOM     19  C   UNL     1      44.806   8.417  11.752  0.00  0.00    +0.000 A 
ATOM     20  C   UNL     1      44.494   7.218  11.116  0.00  0.00    +0.000 A 
ATOM     21  C   UNL     1      45.420   6.164  11.052  0.00  0.00    +0.000 A 
ATOM     22  C   UNL     1      46.660   6.345  11.697  0.00  0.00    +0.000 A 
BRANCH  21  23
ATOM     23  C   UNL     1      45.128   4.954  10.265  0.00  0.00    +0.000 A 
ATOM     24  C   UNL     1      44.334   3.925  10.751  0.00  0.00    +0.000 A 
ATOM     25  N   UNL     1      44.020   2.799  10.072  0.00  0.00    +0.000 NA
ATOM     26  C   UNL     1      44.520   2.714   8.835  0.00  0.00    +0.000 A 
ATOM     27  N   UNL     1      45.292   3.632   8.236  0.00  0.00    +0.000 NA
ATOM     28  C   UNL     1      45.575   4.732   8.973  0.00  0.00    +0.000 A 
ENDBRANCH  21  23
ENDBRANCH   1  17
TORSDOF 4
ENDMDL
MODEL 5
REMARK VINA RESULT:    -6.265      3.592      5.881
REMARK INTER + INTRA:          -8.731
REMARK INTER:                  -8.446
REMARK INTRA:                  -0.285
REMARK UNBOUND:                -1.002
REMARK  Name = 
REMARK  4 active torsions:
REMARK  status: ('A' for Active; 'I' for Inactive)
REMARK    1  A    between atoms: C_2  and  C_4
REMARK    2  A    between atoms: N_8  and  C_9
REMARK    3  A    between atoms: C_9  and  C_10
REMARK    4  A    between atoms: C_14  and  C_15
REMARK                            x       y       z     vdW  Elec       q    Type
REMARK                         _______ _______ _______ _____ _____    ______ ____
ROOT
ATOM      1  C   UNL     1      47.580   8.455  13.059  0.00  0.00    +0.000 C 
ATOM      2  C   UNL     1      47.672   9.964  12.846  0.00  0.00    +0.000 C 
ATOM      3  C   UNL     1      48.153   9.037  11.782  0.00  0.00    +0.000 C 
ENDROOT
BRANCH   1   8
ATOM      4  C   UNL     1      44.605   4.599  11.225  0.00  0.00    +0.000 A 
ATOM      5  C   UNL     1      45.582   5.334  10.561  0.00  0.00    +0.000 A 
ATOM      6  C   UNL     1      46.167   6.429  11.201  0.00  0.00    +0.000 A 
ATOM      7  C   UNL     1      45.762   6.776  12.484  0.00  0.00    +0.000 A 
ATOM      8  N   UNL     1      46.207   7.925  13.143  0.00  0.00    +0.000 N 
ATOM      9  N   UNL     1      44.822   6.062  13.143  0.00  0.00    +0.000 NA
ATOM     10  C   UNL     1      44.262   4.998  12.506  0.00  0.00    +0.000 A 
ATOM     11  H   UNL     1      45.809   7.872  14.080  0.00  0.00    +0.000 HD
BRANCH   4  13
ATOM     12  N   UNL     1      44.158   3.184   9.295  0.00  0.00    +0.000 N 
ATOM     13  C   UNL     1      43.891   3.461  10.612  0.00  0.00    +0.000 C 
ATOM     14  O   UNL     1      43.096   2.785  11.250  0.00  0.00    +0.000 OA
ATOM     15  H   UNL     1      43.715   2.359   8.912  0.00  0.00    +0.000 HD
ATOM     16  H   UNL     1      44.965   3.552   8.813  0.00  0.00    +0.000 HD
ENDBRANCH   4  13
ENDBRANCH   1   8
BRANCH   1  17
ATOM     17  C   UNL     1      48.521   7.820  14.079  0.00  0.00    +0.000 A 
ATOM     18  C   UNL     1      49.720   8.450  14.451  0.00  0.00    +0.000 A 
ATOM     19  C   UNL     1      50.531   7.937  15.460  0.00  0.00    +0.000 A 
ATOM     20  C   UNL     1      50.138   6.790  16.145  0.00  0.00    +0.000 A 
ATOM     21  C   UNL     1      48.938   6.129  15.834  0.00  0.00    +0.000 A 
ATOM     22  C   UNL     1      48.168   6.642  14.772  0.00  0.00    +0.000 A 
BRANCH  21  23
ATOM     23  C   UNL     1      48.471   4.997  16.651  0.00  0.00    +0.000 A 
ATOM     24  C   UNL     1      47.272   4.344  16.400  0.00  0.00    +0.000 A 
ATOM     25  N   UNL     1      46.797   3.294  17.104  0.00  0.00    +0.000 NA
ATOM     26  C   UNL     1      47.578   2.870  18.103  0.00  0.00    +0.000 A 
ATOM     27  N   UNL     1      48.760   3.396  18.453  0.00  0.00    +0.000 NA
ATOM     28  C   UNL     1      49.175   4.451  17.712  0.00  0.00    +0.000 A 
ENDBRANCH  21  23
ENDBRANCH   1  17
TORSDOF 4
ENDMDL
MODEL 6
REMARK VINA RESULT:    -6.151      3.680      6.596
REMARK INTER + INTRA:          -8.591
REMARK INTER:                  -7.693
REMARK INTRA:                  -0.898
REMARK UNBOUND:                -1.002
REMARK  Name = 
REMARK  4 active torsions:
REMARK  status: ('A' for Active; 'I' for Inactive)
REMARK    1  A    between atoms: C_2  and  C_4
REMARK    2  A    between atoms: N_8  and  C_9
REMARK    3  A    between atoms: C_9  and  C_10
REMARK    4  A    between atoms: C_14  and  C_15
REMARK                            x       y       z     vdW  Elec       q    Type
REMARK                         _______ _______ _______ _____ _____    ______ ____
ROOT
ATOM      1  C   UNL     1      49.263   8.470  12.750  0.00  0.00    +0.000 C 
ATOM      2  C   UNL     1      50.480   9.235  12.236  0.00  0.00    +0.000 C 
ATOM      3  C   UNL     1      50.365   7.771  11.980  0.00  0.00    +0.000 C 
ENDROOT
BRANCH   1   8
ATOM      4  C   UNL     1      44.616   6.498  11.485  0.00  0.00    +0.000 A 
ATOM      5  C   UNL     1      45.867   5.894  11.409  0.00  0.00    +0.000 A 
ATOM      6  C   UNL     1      47.011   6.654  11.664  0.00  0.00    +0.000 A 
ATOM      7  C   UNL     1      46.887   8.001  11.981  0.00  0.00    +0.000 A 
ATOM      8  N   UNL     1      47.983   8.856  12.129  0.00  0.00    +0.000 N 
ATOM      9  N   UNL     1      45.677   8.596  12.069  0.00  0.00    +0.000 NA
ATOM     10  C   UNL     1      44.573   7.841  11.818  0.00  0.00    +0.000 A 
ATOM     11  H   UNL     1      47.593   9.747  12.434  0.00  0.00    +0.000 HD
BRANCH   4  13
ATOM     12  N   UNL     1      42.205   6.284  11.741  0.00  0.00    +0.000 N 
ATOM     13  C   UNL     1      43.356   5.793  11.179  0.00  0.00    +0.000 C 
ATOM     14  O   UNL     1      43.331   4.813  10.448  0.00  0.00    +0.000 OA
ATOM     15  H   UNL     1      41.343   5.833  11.464  0.00  0.00    +0.000 HD
ATOM     16  H   UNL     1      42.145   7.209  12.142  0.00  0.00    +0.000 HD
ENDBRANCH   4  13
ENDBRANCH   1   8
BRANCH   1  17
ATOM     17  C   UNL     1      49.145   8.247  14.255  0.00  0.00    +0.000 A 
ATOM     18  C   UNL     1      49.049   9.330  15.144  0.00  0.00    +0.000 A 
ATOM     19  C   UNL     1      48.829   9.139  16.505  0.00  0.00    +0.000 A 
ATOM     20  C   UNL     1      48.667   7.850  17.004  0.00  0.00    +0.000 A 
ATOM     21  C   UNL     1      48.728   6.728  16.161  0.00  0.00    +0.000 A 
ATOM     22  C   UNL     1      49.007   6.951  14.798  0.00  0.00    +0.000 A 
BRANCH  21  23
ATOM     23  C   UNL     1      48.424   5.382  16.677  0.00  0.00    +0.000 A 
ATOM     24  C   UNL     1      49.030   4.869  17.815  0.00  0.00    +0.000 A 
ATOM     25  N   UNL     1      48.783   3.650  18.343  0.00  0.00    +0.000 NA
ATOM     26  C   UNL     1      47.868   2.918  17.700  0.00  0.00    +0.000 A 
ATOM     27  N   UNL     1      47.200   3.289  16.599  0.00  0.00    +0.000 NA
ATOM     28  C   UNL     1      47.499   4.518  16.116  0.00  0.00    +0.000 A 
ENDBRANCH  21  23
ENDBRANCH   1  17
TORSDOF 4
ENDMDL
