MODEL 1
REMARK VINA RESULT:    -8.083      0.000      0.000
REMARK INTER + INTRA:          -9.881
REMARK INTER:                  -9.973
REMARK INTRA:                   0.093
REMARK UNBOUND:                 0.093
REMARK  Name = 
REMARK  4 active torsions:
REMARK  status: ('A' for Active; 'I' for Inactive)
REMARK    1  A    between atoms: C_2  and  C_4
REMARK    2  A    between atoms: C_7  and  N_8
REMARK    3  A    between atoms: N_8  and  C_9
REMARK    4  A    between atoms: C_9  and  C_10
REMARK                            x       y       z     vdW  Elec       q    Type
REMARK                         _______ _______ _______ _____ _____    ______ ____
ROOT
ATOM      1  C   UNL     1      46.535   2.551   7.689  0.00  0.00    +0.000 A 
ATOM      2  C   UNL     1      46.496   3.929   7.532  0.00  0.00    +0.000 A 
ATOM      3  N   UNL     1      45.644   4.733   8.231  0.00  0.00    +0.000 NA
ATOM      4  C   UNL     1      44.810   4.117   9.096  0.00  0.00    +0.000 A 
ATOM      5  C   UNL     1      44.866   2.715   9.230  0.00  0.00    +0.000 A 
ATOM      6  N   UNL     1      45.718   1.897   8.554  0.00  0.00    +0.000 NA
ENDROOT
BRANCH   1   8
ATOM      7  N   UNL     1      48.608   2.371   6.414  0.00  0.00    +0.000 N 
ATOM      8  C   UNL     1      47.483   1.736   6.875  0.00  0.00    +0.000 C 
ATOM      9  O   UNL     1      47.283   0.550   6.637  0.00  0.00    +0.000 OA
ATOM     10  H   UNL     1      49.297   1.833   5.911  0.00  0.00    +0.000 HD
ATOM     11  H   UNL     1      48.822   3.317   6.707  0.00  0.00    +0.000 HD
ENDBRANCH   1   8
BRANCH   4  12
ATOM     12  N   UNL     1      43.764   4.824   9.739  0.00  0.00    +0.000 N 
ATOM     13  H   UNL     1      42.872   4.393   9.507  0.00  0.00    +0.000 HD
BRANCH  12  14
ATOM     14  C   UNL     1      43.805   5.029  11.224  0.00  0.00    +0.000 C 
ATOM     15  C   UNL     1      43.040   3.960  12.009  0.00  0.00    +0.000 C 
ATOM     16  C   UNL     1      42.604   5.387  12.083  0.00  0.00    +0.000 C 
BRANCH  14  17
ATOM     17  C   UNL     1      45.208   5.440  11.736  0.00  0.00    +0.000 A 
ATOM     18  N   UNL     1      45.822   4.701  12.686  0.00  0.00    +0.000 NA
ATOM     19  C   UNL     1      46.960   5.187  13.211  0.00  0.00    +0.000 A 
ATOM     20  C   UNL     1      47.528   6.374  12.824  0.00  0.00    +0.000 A 
ATOM     21  C   UNL     1      46.860   7.050  11.834  0.00  0.00    +0.000 A 
ATOM     22  N   UNL     1      45.708   6.618  11.283  0.00  0.00    +0.000 NA
ENDBRANCH  14  17
ENDBRANCH  12  14
ENDBRANCH   4  12
TORSDOF 4
ENDMDL
MODEL 2
REMARK VINA RESULT:    -6.660      3.054      6.223
REMARK INTER + INTRA:          -8.125
REMARK INTER:                  -8.084
REMARK INTRA:                  -0.041
REMARK UNBOUND:                 0.093
REMARK  Name = 
REMARK  4 active torsions:
REMARK  status: ('A' for Active; 'I' for Inactive)
REMARK    1  A    between atoms: C_2  and  C_4
REMARK    2  A    between atoms: C_7  and  N_8
REMARK    3  A    between atoms: N_8  and  C_9
REMARK    4  A    between atoms: C_9  and  C_10
REMARK                            x       y       z     vdW  Elec       q    Type
REMARK                         _______ _______ _______ _____ _____    ______ ____
ROOT
ATOM      1  C   UNL     1      47.508   4.905  15.091  0.00  0.00    +0.000 A 
ATOM      2  C   UNL     1      46.570   4.009  14.598  0.00  0.00    +0.000 A 
ATOM      3  N   UNL     1      45.948   4.171  13.395  0.00  0.00    +0.000 NA
ATOM      4  C   UNL     1      46.282   5.273  12.690  0.00  0.00    +0.000 A 
ATOM      5  C   UNL     1      47.232   6.170  13.219  0.00  0.00    +0.000 A 
ATOM      6  N   UNL     1      47.875   6.019  14.408  0.00  0.00    +0.000 NA
ENDROOT
BRANCH   1   8
ATOM      7  N   UNL     1      47.783   5.529  17.434  0.00  0.00    +0.000 N 
ATOM      8  C   UNL     1      48.133   4.668  16.426  0.00  0.00    +0.000 C 
ATOM      9  O   UNL     1      48.912   3.742  16.624  0.00  0.00    +0.000 OA
ATOM     10  H   UNL     1      48.143   5.360  18.362  0.00  0.00    +0.000 HD
ATOM     11  H   UNL     1      47.056   6.220  17.293  0.00  0.00    +0.000 HD
ENDBRANCH   1   8
BRANCH   4  12
ATOM     12  N   UNL     1      45.573   5.639  11.519  0.00  0.00    +0.000 N 
ATOM     13  H   UNL     1      46.236   5.837  10.771  0.00  0.00    +0.000 HD
BRANCH  12  14
ATOM     14  C   UNL     1      44.517   4.728  10.970  0.00  0.00    +0.000 C 
ATOM     15  C   UNL     1      43.130   5.371  10.903  0.00  0.00    +0.000 C 
ATOM     16  C   UNL     1      43.350   4.174  11.768  0.00  0.00    +0.000 C 
BRANCH  14  17
ATOM     17  C   UNL     1      45.001   3.920   9.741  0.00  0.00    +0.000 A 
ATOM     18  N   UNL     1      44.960   2.569   9.763  0.00  0.00    +0.000 NA
ATOM     19  C   UNL     1      45.539   1.913   8.743  0.00  0.00    +0.000 A 
ATOM     20  C   UNL     1      46.150   2.540   7.687  0.00  0.00    +0.000 A 
ATOM     21  C   UNL     1      46.125   3.911   7.723  0.00  0.00    +0.000 A 
ATOM     22  N   UNL     1      45.572   4.621   8.727  0.00  0.00    +0.000 NA
ENDBRANCH  14  17
ENDBRANCH  12  14
ENDBRANCH   4  12
TORSDOF 4
ENDMDL
MODEL 3
REMARK VINA RESULT:    -6.571      3.428      6.345
REMARK INTER + INTRA:          -8.015
REMARK INTER:                  -7.735
REMARK INTRA:                  -0.280
REMARK UNBOUND:                 0.093
REMARK  Name = 
REMARK  4 active torsions:
REMARK  status: ('A' for Active; 'I' for Inactive)
REMARK    1  A    between atoms: C_2  and  C_4
REMARK    2  A    between atoms: C_7  and  N_8
REMARK    3  A    between atoms: N_8  and  C_9
REMARK    4  A    between atoms: C_9  and  C_10
REMARK                            x       y       z     vdW  Elec       q    Type
REMARK                         _______ _______ _______ _____ _____    ______ ____
ROOT
ATOM      1  C   UNL     1      47.835   3.823  15.730  0.00  0.00    +0.000 A 
ATOM      2  C   UNL     1      47.823   5.207  15.618  0.00  0.00    +0.000 A 
ATOM      3  N   UNL     1      47.373   5.859  14.509  0.00  0.00    +0.000 NA
ATOM      4  C   UNL     1      46.938   5.085  13.492  0.00  0.00    +0.000 A 
ATOM      5  C   UNL     1      46.968   3.682  13.629  0.00  0.00    +0.000 A 
ATOM      6  N   UNL     1      47.399   3.013  14.732  0.00  0.00    +0.000 NA
ENDROOT
BRANCH   1   8
ATOM      7  N   UNL     1      47.477   3.024  18.008  0.00  0.00    +0.000 N 
ATOM      8  C   UNL     1      48.360   3.181  16.971  0.00  0.00    +0.000 C 
ATOM      9  O   UNL     1      49.521   2.796  17.062  0.00  0.00    +0.000 OA
ATOM     10  H   UNL     1      47.786   2.541  18.838  0.00  0.00    +0.000 HD
ATOM     11  H   UNL     1      46.495   3.241  17.886  0.00  0.00    +0.000 HD
ENDBRANCH   1   8
BRANCH   4  12
ATOM     12  N   UNL     1      46.619   5.642  12.228  0.00  0.00    +0.000 N 
ATOM     13  H   UNL     1      47.220   5.231  11.517  0.00  0.00    +0.000 HD
BRANCH  12  14
ATOM     14  C   UNL     1      45.208   5.590  11.725  0.00  0.00    +0.000 C 
ATOM     15  C   UNL     1      44.536   6.964  11.647  0.00  0.00    +0.000 C 
ATOM     16  C   UNL     1      43.979   5.917  12.555  0.00  0.00    +0.000 C 
BRANCH  14  17
ATOM     17  C   UNL     1      45.034   4.629  10.523  0.00  0.00    +0.000 A 
ATOM     18  N   UNL     1      44.447   3.425  10.702  0.00  0.00    +0.000 NA
ATOM     19  C   UNL     1      44.466   2.565   9.668  0.00  0.00    +0.000 A 
ATOM     20  C   UNL     1      45.032   2.853   8.453  0.00  0.00    +0.000 A 
ATOM     21  C   UNL     1      45.580   4.105   8.341  0.00  0.00    +0.000 A 
ATOM     22  N   UNL     1      45.604   5.001   9.348  0.00  0.00    +0.000 NA
ENDBRANCH  14  17
ENDBRANCH  12  14
ENDBRANCH   4  12
TORSDOF 4
ENDMDL
MODEL 4
REMARK VINA RESULT:    -6.512      3.196      6.338
REMARK INTER + INTRA:          -7.942
REMARK INTER:                  -7.719
REMARK INTRA:                  -0.222
REMARK UNBOUND:                 0.093
REMARK  Name = 
REMARK  4 active torsions:
REMARK  status: ('A' for Active; 'I' for Inactive)
REMARK    1  A    between atoms: C_2  and  C_4
REMARK    2  A    between atoms: C_7  and  N_8
REMARK    3  A    between atoms: N_8  and  C_9
REMARK    4  A    between atoms: C_9  and  C_10
REMARK                            x       y       z     vdW  Elec       q    Type
REMARK                         _______ _______ _______ _____ _____    ______ ____
ROOT
ATOM      1  C   UNL     1      47.213   8.179  13.264  0.00  0.00    +0.000 A 
ATOM      2  C   UNL     1      47.679   7.204  12.394  0.00  0.00    +0.000 A 
ATOM      3  N   UNL     1      46.887   6.597  11.464  0.00  0.00    +0.000 NA
ATOM      4  C   UNL     1      45.594   6.985  11.432  0.00  0.00    +0.000 A 
ATOM      5  C   UNL     1      45.146   7.972  12.333  0.00  0.00    +0.000 A 
ATOM      6  N   UNL     1      45.923   8.600  13.256  0.00  0.00    +0.000 NA
ENDROOT
BRANCH   1   8
ATOM      7  N   UNL     1      47.596   9.129  15.479  0.00  0.00    +0.000 N 
ATOM      8  C   UNL     1      48.138   8.784  14.267  0.00  0.00    +0.000 C 
ATOM      9  O   UNL     1      49.329   8.954  14.034  0.00  0.00    +0.000 OA
ATOM     10  H   UNL     1      48.207   9.486  16.199  0.00  0.00    +0.000 HD
ATOM     11  H   UNL     1      46.640   8.883  15.705  0.00  0.00    +0.000 HD
ENDBRANCH   1   8
BRANCH   4  12
ATOM     12  N   UNL     1      44.641   6.301  10.637  0.00  0.00    +0.000 N 
ATOM     13  H   UNL     1      44.833   6.477   9.653  0.00  0.00    +0.000 HD
BRANCH  12  14
ATOM     14  C   UNL     1      44.444   4.825  10.811  0.00  0.00    +0.000 C 
ATOM     15  C   UNL     1      43.020   4.444  11.225  0.00  0.00    +0.000 C 
ATOM     16  C   UNL     1      44.163   4.139  12.136  0.00  0.00    +0.000 C 
BRANCH  14  17
ATOM     17  C   UNL     1      45.123   3.993   9.695  0.00  0.00    +0.000 A 
ATOM     18  N   UNL     1      45.637   4.613   8.610  0.00  0.00    +0.000 NA
ATOM     19  C   UNL     1      46.068   3.840   7.599  0.00  0.00    +0.000 A 
ATOM     20  C   UNL     1      46.024   2.469   7.621  0.00  0.00    +0.000 A 
ATOM     21  C   UNL     1      45.517   1.915   8.769  0.00  0.00    +0.000 A 
ATOM     22  N   UNL     1      45.056   2.641   9.806  0.00  0.00    +0.000 NA
ENDBRANCH  14  17
ENDBRANCH  12  14
ENDBRANCH   4  12
TORSDOF 4
ENDMDL
MODEL 5
REMARK VINA RESULT:    -6.162      2.598      4.605
REMARK INTER + INTRA:          -7.510
REMARK INTER:                  -7.694
REMARK INTRA:                   0.184
REMARK UNBOUND:                 0.093
REMARK  Name = 
REMARK  4 active torsions:
REMARK  status: ('A' for Active; 'I' for Inactive)
REMARK    1  A    between atoms: C_2  and  C_4
REMARK    2  A    between atoms: C_7  and  N_8
REMARK    3  A    between atoms: N_8  and  C_9
REMARK    4  A    between atoms: C_9  and  C_10
REMARK                            x       y       z     vdW  Elec       q    Type
REMARK                         _______ _______ _______ _____ _____    ______ ____
ROOT
ATOM      1  C   UNL     1      44.840   3.682  10.351  0.00  0.00    +0.000 A 
ATOM      2  C   UNL     1      44.877   3.065  11.594  0.00  0.00    +0.000 A 
ATOM      3  N   UNL     1      45.147   3.737  12.749  0.00  0.00    +0.000 NA
ATOM      4  C   UNL     1      45.396   5.058  12.631  0.00  0.00    +0.000 A 
ATOM      5  C   UNL     1      45.360   5.657  11.356  0.00  0.00    +0.000 A 
ATOM      6  N   UNL     1      45.078   5.009  10.194  0.00  0.00    +0.000 NA
ENDROOT
BRANCH   1   8
ATOM      7  N   UNL     1      44.318   3.570   7.970  0.00  0.00    +0.000 N 
ATOM      8  C   UNL     1      44.555   2.875   9.128  0.00  0.00    +0.000 C 
ATOM      9  O   UNL     1      44.544   1.649   9.145  0.00  0.00    +0.000 OA
ATOM     10  H   UNL     1      44.180   3.054   7.114  0.00  0.00    +0.000 HD
ATOM     11  H   UNL     1      44.439   4.576   7.938  0.00  0.00    +0.000 HD
ENDBRANCH   1   8
BRANCH   4  12
ATOM     12  N   UNL     1      45.864   5.819  13.732  0.00  0.00    +0.000 N 
ATOM     13  H   UNL     1      45.437   5.472  14.588  0.00  0.00    +0.000 HD
BRANCH  12  14
ATOM     14  C   UNL     1      47.337   5.955  13.973  0.00  0.00    +0.000 C 
ATOM     15  C   UNL     1      47.845   7.394  13.860  0.00  0.00    +0.000 C 
ATOM     16  C   UNL     1      48.356   6.352  12.920  0.00  0.00    +0.000 C 
BRANCH  14  17
ATOM     17  C   UNL     1      47.830   5.104  15.170  0.00  0.00    +0.000 A 
ATOM     18  N   UNL     1      47.283   3.891  15.406  0.00  0.00    +0.000 NA
ATOM     19  C   UNL     1      47.627   3.264  16.544  0.00  0.00    +0.000 A 
ATOM     20  C   UNL     1      48.505   3.785  17.460  0.00  0.00    +0.000 A 
ATOM     21  C   UNL     1      49.040   5.005  17.135  0.00  0.00    +0.000 A 
ATOM     22  N   UNL     1      48.720   5.685  16.016  0.00  0.00    +0.000 NA
ENDBRANCH  14  17
ENDBRANCH  12  14
ENDBRANCH   4  12
TORSDOF 4
ENDMDL
MODEL 6
REMARK VINA RESULT:    -6.104      4.361      7.439
REMARK INTER + INTRA:          -7.438
REMARK INTER:                  -7.164
REMARK INTRA:                  -0.274
REMARK UNBOUND:                 0.093
REMARK  Name = 
REMARK  4 active torsions:
REMARK  status: ('A' for Active; 'I' for Inactive)
REMARK    1  A    between atoms: C_2  and  C_4
REMARK    2  A    between atoms: C_7  and  N_8
REMARK    3  A    between atoms: N_8  and  C_9
REMARK    4  A    between atoms: C_9  and  C_10
REMARK                            x       y       z     vdW  Elec       q    Type
REMARK                         _______ _______ _______ _____ _____    ______ ____
ROOT
ATOM      1  C   UNL     1      48.014   4.632  17.252  0.00  0.00    +0.000 A 
ATOM      2  C   UNL     1      48.720   5.659  16.641  0.00  0.00    +0.000 A 
ATOM      3  N   UNL     1      48.529   6.022  15.340  0.00  0.00    +0.000 NA
ATOM      4  C   UNL     1      47.608   5.316  14.650  0.00  0.00    +0.000 A 
ATOM      5  C   UNL     1      46.911   4.273  15.293  0.00  0.00    +0.000 A 
ATOM      6  N   UNL     1      47.076   3.906  16.592  0.00  0.00    +0.000 NA
ENDROOT
BRANCH   1   8
ATOM      7  N   UNL     1      48.380   2.947  18.979  0.00  0.00    +0.000 N 
ATOM      8  C   UNL     1      48.293   4.282  18.675  0.00  0.00    +0.000 C 
ATOM      9  O   UNL     1      48.453   5.139  19.537  0.00  0.00    +0.000 OA
ATOM     10  H   UNL     1      48.625   2.679  19.920  0.00  0.00    +0.000 HD
ATOM     11  H   UNL     1      48.358   2.250  18.245  0.00  0.00    +0.000 HD
ENDBRANCH   1   8
BRANCH   4  12
ATOM     12  N   UNL     1      47.453   5.481  13.250  0.00  0.00    +0.000 N 
ATOM     13  H   UNL     1      47.264   4.577  12.823  0.00  0.00    +0.000 HD
BRANCH  12  14
ATOM     14  C   UNL     1      46.450   6.461  12.721  0.00  0.00    +0.000 C 
ATOM     15  C   UNL     1      47.057   7.517  11.795  0.00  0.00    +0.000 C 
ATOM     16  C   UNL     1      46.410   7.938  13.073  0.00  0.00    +0.000 C 
BRANCH  14  17
ATOM     17  C   UNL     1      45.126   5.787  12.283  0.00  0.00    +0.000 A 
ATOM     18  N   UNL     1      44.071   5.761  13.127  0.00  0.00    +0.000 NA
ATOM     19  C   UNL     1      43.004   5.027  12.766  0.00  0.00    +0.000 A 
ATOM     20  C   UNL     1      42.932   4.322  11.592  0.00  0.00    +0.000 A 
ATOM     21  C   UNL     1      44.030   4.422  10.777  0.00  0.00    +0.000 A 
ATOM     22  N   UNL     1      45.132   5.130  11.094  0.00  0.00    +0.000 NA
ENDBRANCH  14  17
ENDBRANCH  12  14
ENDBRANCH   4  12
TORSDOF 4
ENDMDL
MODEL 7
REMARK VINA RESULT:    -6.041      3.356      5.502
REMARK INTER + INTRA:          -7.362
REMARK INTER:                  -7.260
REMARK INTRA:                  -0.102
REMARK UNBOUND:                 0.093
REMARK  Name = 
REMARK  4 active torsions:
REMARK  status: ('A' for Active; 'I' for Inactive)
REMARK    1  A    between atoms: C_2  and  C_4
REMARK    2  A    between atoms: C_7  and  N_8
REMARK    3  A    between atoms: N_8  and  C_9
REMARK    4  A    between atoms: C_9  and  C_10
REMARK                            x       y       z     vdW  Elec       q    Type
REMARK                         _______ _______ _______ _____ _____    ______ ____
ROOT
ATOM      1  C   UNL     1      44.947   3.873  11.769  0.00  0.00    +0.000 A 
ATOM      2  C   UNL     1      45.007   5.186  11.322  0.00  0.00    +0.000 A 
ATOM      3  N   UNL     1      45.712   6.159  11.967  0.00  0.00    +0.000 NA
ATOM      4  C   UNL     1      46.357   5.787  13.093  0.00  0.00    +0.000 A 
ATOM      5  C   UNL     1      46.273   4.449  13.528  0.00  0.00    +0.000 A 
ATOM      6  N   UNL     1      45.588   3.461  12.892  0.00  0.00    +0.000 NA
ENDROOT
BRANCH   1   8
ATOM      7  N   UNL     1      44.712   2.325   9.897  0.00  0.00    +0.000 N 
ATOM      8  C   UNL     1      44.139   2.868  11.018  0.00  0.00    +0.000 C 
ATOM      9  O   UNL     1      43.021   2.526  11.387  0.00  0.00    +0.000 OA
ATOM     10  H   UNL     1      44.216   1.600   9.402  0.00  0.00    +0.000 HD
ATOM     11  H   UNL     1      45.677   2.527   9.662  0.00  0.00    +0.000 HD
ENDBRANCH   1   8
BRANCH   4  12
ATOM     12  N   UNL     1      46.969   6.745  13.940  0.00  0.00    +0.000 N 
ATOM     13  H   UNL     1      46.782   6.504  14.912  0.00  0.00    +0.000 HD
BRANCH  12  14
ATOM     14  C   UNL     1      48.435   7.029  13.809  0.00  0.00    +0.000 C 
ATOM     15  C   UNL     1      48.739   8.361  13.119  0.00  0.00    +0.000 C 
ATOM     16  C   UNL     1      49.194   7.083  12.495  0.00  0.00    +0.000 C 
BRANCH  14  17
ATOM     17  C   UNL     1      49.231   6.677  15.090  0.00  0.00    +0.000 A 
ATOM     18  N   UNL     1      50.512   7.088  15.222  0.00  0.00    +0.000 NA
ATOM     19  C   UNL     1      51.209   6.621  16.273  0.00  0.00    +0.000 A 
ATOM     20  C   UNL     1      50.685   5.770  17.212  0.00  0.00    +0.000 A 
ATOM     21  C   UNL     1      49.372   5.423  17.024  0.00  0.00    +0.000 A 
ATOM     22  N   UNL     1      48.630   5.848  15.982  0.00  0.00    +0.000 NA
ENDBRANCH  14  17
ENDBRANCH  12  14
ENDBRANCH   4  12
TORSDOF 4
ENDMDL
MODEL 8
REMARK VINA RESULT:    -5.456      6.608      9.148
REMARK INTER + INTRA:          -6.639
REMARK INTER:                  -6.532
REMARK INTRA:                  -0.107
REMARK UNBOUND:                 0.093
REMARK  Name = 
REMARK  4 active torsions:
REMARK  status: ('A' for Active; 'I' for Inactive)
REMARK    1  A    between atoms: C_2  and  C_4
REMARK    2  A    between atoms: C_7  and  N_8
REMARK    3  A    between atoms: N_8  and  C_9
REMARK    4  A    between atoms: C_9  and  C_10
REMARK                            x       y       z     vdW  Elec       q    Type
REMARK                         _______ _______ _______ _____ _____    ______ ____
ROOT
ATOM      1  C   UNL     1      52.483   1.860  17.878  0.00  0.00    +0.000 A 
ATOM      2  C   UNL     1      51.285   1.553  17.248  0.00  0.00    +0.000 A 
ATOM      3  N   UNL     1      50.318   2.481  16.999  0.00  0.00    +0.000 NA
ATOM      4  C   UNL     1      50.573   3.741  17.411  0.00  0.00    +0.000 A 
ATOM      5  C   UNL     1      51.795   4.023  18.055  0.00  0.00    +0.000 A 
ATOM      6  N   UNL     1      52.779   3.116  18.299  0.00  0.00    +0.000 NA
ENDROOT
BRANCH   1   8
ATOM      7  N   UNL     1      52.998  -0.472  18.378  0.00  0.00    +0.000 N 
ATOM      8  C   UNL     1      53.487   0.785  18.132  0.00  0.00    +0.000 C 
ATOM      9  O   UNL     1      54.693   1.003  18.110  0.00  0.00    +0.000 OA
ATOM     10  H   UNL     1      53.652  -1.232  18.495  0.00  0.00    +0.000 HD
ATOM     11  H   UNL     1      52.009  -0.668  18.284  0.00  0.00    +0.000 HD
ENDBRANCH   1   8
BRANCH   4  12
ATOM     12  N   UNL     1      49.574   4.745  17.369  0.00  0.00    +0.000 N 
ATOM     13  H   UNL     1      49.883   5.505  16.766  0.00  0.00    +0.000 HD
BRANCH  12  14
ATOM     14  C   UNL     1      48.171   4.388  16.979  0.00  0.00    +0.000 C 
ATOM     15  C   UNL     1      47.133   4.731  18.049  0.00  0.00    +0.000 C 
ATOM     16  C   UNL     1      47.335   3.308  17.643  0.00  0.00    +0.000 C 
BRANCH  14  17
ATOM     17  C   UNL     1      47.846   4.752  15.509  0.00  0.00    +0.000 A 
ATOM     18  N   UNL     1      48.271   5.928  14.996  0.00  0.00    +0.000 NA
ATOM     19  C   UNL     1      47.828   6.269  13.774  0.00  0.00    +0.000 A 
ATOM     20  C   UNL     1      46.987   5.485  13.026  0.00  0.00    +0.000 A 
ATOM     21  C   UNL     1      46.625   4.294  13.603  0.00  0.00    +0.000 A 
ATOM     22  N   UNL     1      47.026   3.908  14.831  0.00  0.00    +0.000 NA
ENDBRANCH  14  17
ENDBRANCH  12  14
ENDBRANCH   4  12
TORSDOF 4
ENDMDL
MODEL 9
REMARK VINA RESULT:    -5.438      3.056      6.040
REMARK INTER + INTRA:          -6.617
REMARK INTER:                  -7.647
REMARK INTRA:                   1.030
REMARK UNBOUND:                 0.093
REMARK  Name = 
REMARK  4 active torsions:
REMARK  status: ('A' for Active; 'I' for Inactive)
REMARK    1  A    between atoms: C_2  and  C_4
REMARK    2  A    between atoms: C_7  and  N_8
REMARK    3  A    between atoms: N_8  and  C_9
REMARK    4  A    between atoms: C_9  and  C_10
REMARK                            x       y       z     vdW  Elec       q    Type
REMARK                         _______ _______ _______ _____ _____    ______ ____
ROOT
ATOM      1  C   UNL     1      45.873   8.369  12.225  0.00  0.00    +0.000 A 
ATOM      2  C   UNL     1      44.732   7.771  11.706  0.00  0.00    +0.000 A 
ATOM      3  N   UNL     1      44.522   6.424  11.732  0.00  0.00    +0.000 NA
ATOM      4  C   UNL     1      45.498   5.674  12.287  0.00  0.00    +0.000 A 
ATOM      5  C   UNL     1      46.649   6.307  12.799  0.00  0.00    +0.000 A 
ATOM      6  N   UNL     1      46.871   7.649  12.797  0.00  0.00    +0.000 NA
ENDROOT
BRANCH   1   8
ATOM      7  N   UNL     1      44.898  10.606  12.224  0.00  0.00    +0.000 N 
ATOM      8  C   UNL     1      46.039   9.849  12.142  0.00  0.00    +0.000 C 
ATOM      9  O   UNL     1      47.141  10.374  12.023  0.00  0.00    +0.000 OA
ATOM     10  H   UNL     1      44.983  11.611  12.231  0.00  0.00    +0.000 HD
ATOM     11  H   UNL     1      44.007  10.173  12.435  0.00  0.00    +0.000 HD
ENDBRANCH   1   8
BRANCH   4  12
ATOM     12  N   UNL     1      45.474   4.259  12.208  0.00  0.00    +0.000 N 
ATOM     13  H   UNL     1      45.373   3.871  13.144  0.00  0.00    +0.000 HD
BRANCH  12  14
ATOM     14  C   UNL     1      44.479   3.578  11.317  0.00  0.00    +0.000 C 
ATOM     15  C   UNL     1      43.050   4.098  11.487  0.00  0.00    +0.000 C 
ATOM     16  C   UNL     1      43.360   2.672  11.799  0.00  0.00    +0.000 C 
BRANCH  14  17
ATOM     17  C   UNL     1      45.008   3.369   9.877  0.00  0.00    +0.000 A 
ATOM     18  N   UNL     1      45.241   2.120   9.419  0.00  0.00    +0.000 NA
ATOM     19  C   UNL     1      45.851   1.998   8.227  0.00  0.00    +0.000 A 
ATOM     20  C   UNL     1      46.231   3.068   7.457  0.00  0.00    +0.000 A 
ATOM     21  C   UNL     1      45.933   4.301   7.977  0.00  0.00    +0.000 A 
ATOM     22  N   UNL     1      45.338   4.483   9.173  0.00  0.00    +0.000 NA
ENDBRANCH  14  17
ENDBRANCH  12  14
ENDBRANCH   4  12
TORSDOF 4
ENDMDL
