MODEL 1
REMARK VINA RESULT:    -7.775      0.000      0.000
REMARK INTER + INTRA:         -12.263
REMARK INTER:                 -11.185
REMARK INTRA:                  -1.079
REMARK UNBOUND:                -1.079
REMARK  Name = 
REMARK  8 active torsions:
REMARK  status: ('A' for Active; 'I' for Inactive)
REMARK    1  A    between atoms: C_2  and  C_22
REMARK    2  A    between atoms: N_3  and  C_4
REMARK    3  A    between atoms: C_4  and  C_5
REMARK    4  A    between atoms: C_8  and  C_9
REMARK    5  A    between atoms: C_9  and  N_10
REMARK    6  A    between atoms: N_10  and  C_11
REMARK    7  A    between atoms: C_11  and  C_12
REMARK    8  A    between atoms: C_12  and  O_13
REMARK                            x       y       z     vdW  Elec       q    Type
REMARK                         _______ _______ _______ _____ _____    ______ ____
ROOT
ATOM      1  C   UNL     1      47.949   6.184  15.013  0.00  0.00    +0.000 A 
ATOM      2  C   UNL     1      48.018   7.049  13.914  0.00  0.00    +0.000 A 
ATOM      3  C   UNL     1      47.315   6.771  12.735  0.00  0.00    +0.000 A 
ATOM      4  C   UNL     1      46.482   5.645  12.642  0.00  0.00    +0.000 A 
ATOM      5  C   UNL     1      46.471   4.739  13.711  0.00  0.00    +0.000 A 
ATOM      6  C   UNL     1      47.194   5.009  14.886  0.00  0.00    +0.000 A 
ENDROOT
BRANCH   1   7
ATOM      7  C   UNL     1      48.707   6.505  16.279  0.00  0.00    +0.000 C 
BRANCH   7  10
ATOM      8  O   UNL     1      49.858   6.191  18.724  0.00  0.00    +0.000 OA
ATOM      9  C   UNL     1      50.343   5.543  17.798  0.00  0.00    +0.000 C 
ATOM     10  N   UNL     1      49.883   5.686  16.505  0.00  0.00    +0.000 N 
ATOM     11  H   UNL     1      50.148   5.003  15.800  0.00  0.00    +0.000 HD
BRANCH   9  12
ATOM     12  C   UNL     1      51.451   4.609  18.054  0.00  0.00    +0.000 A 
ATOM     13  C   UNL     1      52.594   5.071  18.699  0.00  0.00    +0.000 A 
ATOM     14  S   UNL     1      53.768   3.867  18.976  0.00  0.00    +0.000 S 
ATOM     15  C   UNL     1      52.769   2.671  18.290  0.00  0.00    +0.000 A 
ATOM     16  N   UNL     1      53.157   1.370  18.272  0.00  0.00    +0.000 NA
ATOM     17  C   UNL     1      52.288   0.560  17.769  0.00  0.00    +0.000 A 
ATOM     18  N   UNL     1      51.072   0.939  17.257  0.00  0.00    +0.000 N 
ATOM     19  C   UNL     1      50.662   2.261  17.203  0.00  0.00    +0.000 A 
ATOM     20  O   UNL     1      49.606   2.577  16.664  0.00  0.00    +0.000 OA
ATOM     21  C   UNL     1      51.581   3.197  17.807  0.00  0.00    +0.000 A 
ATOM     22  H   UNL     1      50.453   0.259  16.850  0.00  0.00    +0.000 HD
ENDBRANCH   9  12
ENDBRANCH   7  10
ENDBRANCH   1   7
BRANCH   4  23
ATOM     23  C   UNL     1      45.448   5.569  11.533  0.00  0.00    +0.000 C 
BRANCH  23  24
ATOM     24  N   UNL     1      44.895   4.247  11.220  0.00  0.00    +0.000 N 
ATOM     25  C   UNL     1      45.208   3.779   9.919  0.00  0.00    +0.000 A 
ATOM     26  C   UNL     1      45.622   4.615   8.863  0.00  0.00    +0.000 A 
ATOM     27  N   UNL     1      46.001   4.186   7.631  0.00  0.00    +0.000 NA
ATOM     28  C   UNL     1      45.951   2.853   7.462  0.00  0.00    +0.000 A 
ATOM     29  C   UNL     1      45.506   2.009   8.461  0.00  0.00    +0.000 A 
ATOM     30  N   UNL     1      45.116   2.449   9.685  0.00  0.00    +0.000 NA
BRANCH  24  31
ATOM     31  C   UNL     1      43.448   4.050  11.484  0.00  0.00    +0.000 C 
BRANCH  31  32
ATOM     32  C   UNL     1      42.742   5.331  11.955  0.00  0.00    +0.000 C 
BRANCH  32  33
ATOM     33  O   UNL     1      42.699   5.417  13.378  0.00  0.00    +0.000 OA
ATOM     34  H   UNL     1      42.179   4.651  13.679  0.00  0.00    +0.000 HD
ENDBRANCH  32  33
ENDBRANCH  31  32
ENDBRANCH  24  31
ENDBRANCH  23  24
ENDBRANCH   4  23
TORSDOF 8
ENDMDL
MODEL 2
REMARK VINA RESULT:    -7.375      2.377      2.591
REMARK INTER + INTRA:         -11.687
REMARK INTER:                 -10.624
REMARK INTRA:                  -1.064
REMARK UNBOUND:                -1.079
REMARK  Name = 
REMARK  8 active torsions:
REMARK  status: ('A' for Active; 'I' for Inactive)
REMARK    1  A    between atoms: C_2  and  C_22
REMARK    2  A    between atoms: N_3  and  C_4
REMARK    3  A    between atoms: C_4  and  C_5
REMARK    4  A    between atoms: C_8  and  C_9
REMARK    5  A    between atoms: C_9  and  N_10
REMARK    6  A    between atoms: N_10  and  C_11
REMARK    7  A    between atoms: C_11  and  C_12
REMARK    8  A    between atoms: C_12  and  O_13
REMARK                            x       y       z     vdW  Elec       q    Type
REMARK                         _______ _______ _______ _____ _____    ______ ____
ROOT
ATOM      1  C   UNL     1      48.648   6.974  13.574  0.00  0.00    +0.000 A 
ATOM      2  C   UNL     1      48.485   7.439  12.263  0.00  0.00    +0.000 A 
ATOM      3  C   UNL     1      47.430   6.983  11.464  0.00  0.00    +0.000 A 
ATOM      4  C   UNL     1      46.476   6.087  11.972  0.00  0.00    +0.000 A 
ATOM      5  C   UNL     1      46.679   5.563  13.256  0.00  0.00    +0.000 A 
ATOM      6  C   UNL     1      47.751   6.006  14.049  0.00  0.00    +0.000 A 
ENDROOT
BRANCH   1   7
ATOM      7  C   UNL     1      49.786   7.483  14.424  0.00  0.00    +0.000 C 
BRANCH   7  10
ATOM      8  O   UNL     1      51.928   6.744  15.931  0.00  0.00    +0.000 OA
ATOM      9  C   UNL     1      50.852   6.851  16.516  0.00  0.00    +0.000 C 
ATOM     10  N   UNL     1      49.690   7.146  15.832  0.00  0.00    +0.000 N 
ATOM     11  H   UNL     1      48.862   7.432  16.348  0.00  0.00    +0.000 HD
BRANCH   9  12
ATOM     12  C   UNL     1      50.779   6.641  17.971  0.00  0.00    +0.000 A 
ATOM     13  C   UNL     1      51.529   7.456  18.813  0.00  0.00    +0.000 A 
ATOM     14  S   UNL     1      51.303   7.134  20.471  0.00  0.00    +0.000 S 
ATOM     15  C   UNL     1      50.154   5.925  20.126  0.00  0.00    +0.000 A 
ATOM     16  N   UNL     1      49.504   5.280  21.128  0.00  0.00    +0.000 NA
ATOM     17  C   UNL     1      48.625   4.423  20.731  0.00  0.00    +0.000 A 
ATOM     18  N   UNL     1      48.354   4.135  19.416  0.00  0.00    +0.000 N 
ATOM     19  C   UNL     1      49.035   4.728  18.364  0.00  0.00    +0.000 A 
ATOM     20  O   UNL     1      48.829   4.389  17.203  0.00  0.00    +0.000 OA
ATOM     21  C   UNL     1      49.989   5.735  18.763  0.00  0.00    +0.000 A 
ATOM     22  H   UNL     1      47.677   3.432  19.174  0.00  0.00    +0.000 HD
ENDBRANCH   9  12
ENDBRANCH   7  10
ENDBRANCH   1   7
BRANCH   4  23
ATOM     23  C   UNL     1      45.154   5.912  11.248  0.00  0.00    +0.000 C 
BRANCH  23  24
ATOM     24  N   UNL     1      44.665   4.541  11.065  0.00  0.00    +0.000 N 
ATOM     25  C   UNL     1      45.097   3.927   9.862  0.00  0.00    +0.000 A 
ATOM     26  C   UNL     1      45.572   4.640   8.743  0.00  0.00    +0.000 A 
ATOM     27  N   UNL     1      46.062   4.076   7.609  0.00  0.00    +0.000 NA
ATOM     28  C   UNL     1      46.063   2.731   7.607  0.00  0.00    +0.000 A 
ATOM     29  C   UNL     1      45.563   2.001   8.668  0.00  0.00    +0.000 A 
ATOM     30  N   UNL     1      45.062   2.576   9.793  0.00  0.00    +0.000 NA
BRANCH  24  31
ATOM     31  C   UNL     1      43.207   4.322  11.239  0.00  0.00    +0.000 C 
BRANCH  31  32
ATOM     32  C   UNL     1      42.503   5.494  11.941  0.00  0.00    +0.000 C 
BRANCH  32  33
ATOM     33  O   UNL     1      42.688   5.449  13.355  0.00  0.00    +0.000 OA
ATOM     34  H   UNL     1      43.644   5.549  13.505  0.00  0.00    +0.000 HD
ENDBRANCH  32  33
ENDBRANCH  31  32
ENDBRANCH  24  31
ENDBRANCH  23  24
ENDBRANCH   4  23
TORSDOF 8
ENDMDL
MODEL 3
REMARK VINA RESULT:    -7.144      3.410      3.956
REMARK INTER + INTRA:         -11.354
REMARK INTER:                 -10.198
REMARK INTRA:                  -1.157
REMARK UNBOUND:                -1.079
REMARK  Name = 
REMARK  8 active torsions:
REMARK  status: ('A' for Active; 'I' for Inactive)
REMARK    1  A    between atoms: C_2  and  C_22
REMARK    2  A    between atoms: N_3  and  C_4
REMARK    3  A    between atoms: C_4  and  C_5
REMARK    4  A    between atoms: C_8  and  C_9
REMARK    5  A    between atoms: C_9  and  N_10
REMARK    6  A    between atoms: N_10  and  C_11
REMARK    7  A    between atoms: C_11  and  C_12
REMARK    8  A    between atoms: C_12  and  O_13
REMARK                            x       y       z     vdW  Elec       q    Type
REMARK                         _______ _______ _______ _____ _____    ______ ____
ROOT
ATOM      1  C   UNL     1      48.417   7.071  13.469  0.00  0.00    +0.000 A 
ATOM      2  C   UNL     1      47.749   5.851  13.635  0.00  0.00    +0.000 A 
ATOM      3  C   UNL     1      46.569   5.576  12.935  0.00  0.00    +0.000 A 
ATOM      4  C   UNL     1      46.050   6.494  12.008  0.00  0.00    +0.000 A 
ATOM      5  C   UNL     1      46.673   7.744  11.896  0.00  0.00    +0.000 A 
ATOM      6  C   UNL     1      47.846   8.027  12.616  0.00  0.00    +0.000 A 
ENDROOT
BRANCH   1   7
ATOM      7  C   UNL     1      49.693   7.348  14.226  0.00  0.00    +0.000 C 
BRANCH   7  10
ATOM      8  O   UNL     1      48.790   9.504  15.619  0.00  0.00    +0.000 OA
ATOM      9  C   UNL     1      49.019   8.484  16.268  0.00  0.00    +0.000 C 
ATOM     10  N   UNL     1      49.551   7.359  15.670  0.00  0.00    +0.000 N 
ATOM     11  H   UNL     1      49.539   6.473  16.168  0.00  0.00    +0.000 HD
BRANCH   9  12
ATOM     12  C   UNL     1      48.747   8.453  17.713  0.00  0.00    +0.000 A 
ATOM     13  C   UNL     1      48.926   9.611  18.463  0.00  0.00    +0.000 A 
ATOM     14  S   UNL     1      48.520   9.440  20.110  0.00  0.00    +0.000 S 
ATOM     15  C   UNL     1      48.040   7.824  19.870  0.00  0.00    +0.000 A 
ATOM     16  N   UNL     1      47.514   7.098  20.891  0.00  0.00    +0.000 NA
ATOM     17  C   UNL     1      47.147   5.905  20.565  0.00  0.00    +0.000 A 
ATOM     18  N   UNL     1      47.282   5.362  19.311  0.00  0.00    +0.000 N 
ATOM     19  C   UNL     1      47.866   6.047  18.257  0.00  0.00    +0.000 A 
ATOM     20  O   UNL     1      48.049   5.506  17.171  0.00  0.00    +0.000 OA
ATOM     21  C   UNL     1      48.241   7.407  18.564  0.00  0.00    +0.000 A 
ATOM     22  H   UNL     1      47.003   4.413  19.131  0.00  0.00    +0.000 HD
ENDBRANCH   9  12
ENDBRANCH   7  10
ENDBRANCH   1   7
BRANCH   4  23
ATOM     23  C   UNL     1      45.020   6.031  10.994  0.00  0.00    +0.000 C 
BRANCH  23  24
ATOM     24  N   UNL     1      44.669   4.606  10.995  0.00  0.00    +0.000 N 
ATOM     25  C   UNL     1      45.079   3.907   9.832  0.00  0.00    +0.000 A 
ATOM     26  C   UNL     1      45.395   4.533   8.610  0.00  0.00    +0.000 A 
ATOM     27  N   UNL     1      45.863   3.897   7.504  0.00  0.00    +0.000 NA
ATOM     28  C   UNL     1      46.008   2.567   7.643  0.00  0.00    +0.000 A 
ATOM     29  C   UNL     1      45.664   1.915   8.812  0.00  0.00    +0.000 A 
ATOM     30  N   UNL     1      45.184   2.560   9.907  0.00  0.00    +0.000 NA
BRANCH  24  31
ATOM     31  C   UNL     1      43.259   4.267  11.309  0.00  0.00    +0.000 C 
BRANCH  31  32
ATOM     32  C   UNL     1      42.478   5.441  11.918  0.00  0.00    +0.000 C 
BRANCH  32  33
ATOM     33  O   UNL     1      42.528   5.426  13.343  0.00  0.00    +0.000 OA
ATOM     34  H   UNL     1      42.921   6.276  13.608  0.00  0.00    +0.000 HD
ENDBRANCH  32  33
ENDBRANCH  31  32
ENDBRANCH  24  31
ENDBRANCH  23  24
ENDBRANCH   4  23
TORSDOF 8
ENDMDL
MODEL 4
REMARK VINA RESULT:    -6.715      3.473      9.573
REMARK INTER + INTRA:         -10.738
REMARK INTER:                  -9.640
REMARK INTRA:                  -1.099
REMARK UNBOUND:                -1.079
REMARK  Name = 
REMARK  8 active torsions:
REMARK  status: ('A' for Active; 'I' for Inactive)
REMARK    1  A    between atoms: C_2  and  C_22
REMARK    2  A    between atoms: N_3  and  C_4
REMARK    3  A    between atoms: C_4  and  C_5
REMARK    4  A    between atoms: C_8  and  C_9
REMARK    5  A    between atoms: C_9  and  N_10
REMARK    6  A    between atoms: N_10  and  C_11
REMARK    7  A    between atoms: C_11  and  C_12
REMARK    8  A    between atoms: C_12  and  O_13
REMARK                            x       y       z     vdW  Elec       q    Type
REMARK                         _______ _______ _______ _____ _____    ______ ____
ROOT
ATOM      1  C   UNL     1      48.980   6.908  15.223  0.00  0.00    +0.000 A 
ATOM      2  C   UNL     1      48.278   5.865  15.841  0.00  0.00    +0.000 A 
ATOM      3  C   UNL     1      48.868   5.105  16.858  0.00  0.00    +0.000 A 
ATOM      4  C   UNL     1      50.159   5.400  17.322  0.00  0.00    +0.000 A 
ATOM      5  C   UNL     1      50.891   6.393  16.656  0.00  0.00    +0.000 A 
ATOM      6  C   UNL     1      50.305   7.141  15.620  0.00  0.00    +0.000 A 
ENDROOT
BRANCH   1   7
ATOM      7  C   UNL     1      48.326   7.723  14.134  0.00  0.00    +0.000 C 
BRANCH   7  10
ATOM      8  O   UNL     1      47.649   6.947  11.616  0.00  0.00    +0.000 OA
ATOM      9  C   UNL     1      46.776   6.849  12.477  0.00  0.00    +0.000 C 
ATOM     10  N   UNL     1      46.992   7.285  13.768  0.00  0.00    +0.000 N 
ATOM     11  H   UNL     1      46.347   7.011  14.505  0.00  0.00    +0.000 HD
BRANCH   9  12
ATOM     12  C   UNL     1      45.464   6.278  12.134  0.00  0.00    +0.000 A 
ATOM     13  C   UNL     1      44.494   7.098  11.567  0.00  0.00    +0.000 A 
ATOM     14  S   UNL     1      43.047   6.289  11.173  0.00  0.00    +0.000 S 
ATOM     15  C   UNL     1      43.683   4.800  11.699  0.00  0.00    +0.000 A 
ATOM     16  N   UNL     1      42.963   3.655  11.574  0.00  0.00    +0.000 NA
ATOM     17  C   UNL     1      43.578   2.591  11.966  0.00  0.00    +0.000 A 
ATOM     18  N   UNL     1      44.844   2.572  12.497  0.00  0.00    +0.000 N 
ATOM     19  C   UNL     1      45.590   3.723  12.696  0.00  0.00    +0.000 A 
ATOM     20  O   UNL     1      46.684   3.684  13.250  0.00  0.00    +0.000 OA
ATOM     21  C   UNL     1      44.961   4.932  12.219  0.00  0.00    +0.000 A 
ATOM     22  H   UNL     1      45.255   1.710  12.812  0.00  0.00    +0.000 HD
ENDBRANCH   9  12
ENDBRANCH   7  10
ENDBRANCH   1   7
BRANCH   4  23
ATOM     23  C   UNL     1      50.622   4.840  18.655  0.00  0.00    +0.000 C 
BRANCH  23  24
ATOM     24  N   UNL     1      51.464   3.639  18.622  0.00  0.00    +0.000 N 
ATOM     25  C   UNL     1      52.776   3.836  19.120  0.00  0.00    +0.000 A 
ATOM     26  C   UNL     1      53.390   5.100  19.238  0.00  0.00    +0.000 A 
ATOM     27  N   UNL     1      54.614   5.326  19.781  0.00  0.00    +0.000 NA
ATOM     28  C   UNL     1      55.246   4.221  20.217  0.00  0.00    +0.000 A 
ATOM     29  C   UNL     1      54.693   2.963  20.076  0.00  0.00    +0.000 A 
ATOM     30  N   UNL     1      53.473   2.747  19.519  0.00  0.00    +0.000 NA
BRANCH  24  31
ATOM     31  C   UNL     1      51.526   2.903  17.335  0.00  0.00    +0.000 C 
BRANCH  31  32
ATOM     32  C   UNL     1      50.515   1.749  17.252  0.00  0.00    +0.000 C 
BRANCH  32  33
ATOM     33  O   UNL     1      49.869   1.704  15.981  0.00  0.00    +0.000 OA
ATOM     34  H   UNL     1      50.278   0.966  15.497  0.00  0.00    +0.000 HD
ENDBRANCH  32  33
ENDBRANCH  31  32
ENDBRANCH  24  31
ENDBRANCH  23  24
ENDBRANCH   4  23
TORSDOF 8
ENDMDL
MODEL 5
REMARK VINA RESULT:    -6.689      3.483      8.793
REMARK INTER + INTRA:         -10.701
REMARK INTER:                  -9.710
REMARK INTRA:                  -0.991
REMARK UNBOUND:                -1.079
REMARK  Name = 
REMARK  8 active torsions:
REMARK  status: ('A' for Active; 'I' for Inactive)
REMARK    1  A    between atoms: C_2  and  C_22
REMARK    2  A    between atoms: N_3  and  C_4
REMARK    3  A    between atoms: C_4  and  C_5
REMARK    4  A    between atoms: C_8  and  C_9
REMARK    5  A    between atoms: C_9  and  N_10
REMARK    6  A    between atoms: N_10  and  C_11
REMARK    7  A    between atoms: C_11  and  C_12
REMARK    8  A    between atoms: C_12  and  O_13
REMARK                            x       y       z     vdW  Elec       q    Type
REMARK                         _______ _______ _______ _____ _____    ______ ____
ROOT
ATOM      1  C   UNL     1      48.559   8.119  13.556  0.00  0.00    +0.000 A 
ATOM      2  C   UNL     1      49.689   7.368  13.906  0.00  0.00    +0.000 A 
ATOM      3  C   UNL     1      50.111   7.282  15.238  0.00  0.00    +0.000 A 
ATOM      4  C   UNL     1      49.384   7.902  16.266  0.00  0.00    +0.000 A 
ATOM      5  C   UNL     1      48.299   8.715  15.911  0.00  0.00    +0.000 A 
ATOM      6  C   UNL     1      47.888   8.818  14.571  0.00  0.00    +0.000 A 
ENDROOT
BRANCH   1   7
ATOM      7  C   UNL     1      48.113   8.194  12.117  0.00  0.00    +0.000 C 
BRANCH   7  10
ATOM      8  O   UNL     1      45.428   7.860  11.830  0.00  0.00    +0.000 OA
ATOM      9  C   UNL     1      46.143   6.940  11.436  0.00  0.00    +0.000 C 
ATOM     10  N   UNL     1      47.513   6.977  11.603  0.00  0.00    +0.000 N 
ATOM     11  H   UNL     1      48.098   6.319  11.095  0.00  0.00    +0.000 HD
BRANCH   9  12
ATOM     12  C   UNL     1      45.542   5.763  10.791  0.00  0.00    +0.000 A 
ATOM     13  C   UNL     1      45.815   5.508   9.451  0.00  0.00    +0.000 A 
ATOM     14  S   UNL     1      45.096   4.082   8.856  0.00  0.00    +0.000 S 
ATOM     15  C   UNL     1      44.435   3.725  10.383  0.00  0.00    +0.000 A 
ATOM     16  N   UNL     1      43.740   2.575  10.586  0.00  0.00    +0.000 NA
ATOM     17  C   UNL     1      43.335   2.403  11.799  0.00  0.00    +0.000 A 
ATOM     18  N   UNL     1      43.542   3.291  12.825  0.00  0.00    +0.000 N 
ATOM     19  C   UNL     1      44.194   4.500  12.648  0.00  0.00    +0.000 A 
ATOM     20  O   UNL     1      44.291   5.310  13.565  0.00  0.00    +0.000 OA
ATOM     21  C   UNL     1      44.714   4.709  11.317  0.00  0.00    +0.000 A 
ATOM     22  H   UNL     1      43.172   3.109  13.742  0.00  0.00    +0.000 HD
ENDBRANCH   9  12
ENDBRANCH   7  10
ENDBRANCH   1   7
BRANCH   4  23
ATOM     23  C   UNL     1      49.621   7.485  17.706  0.00  0.00    +0.000 C 
BRANCH  23  24
ATOM     24  N   UNL     1      50.170   6.144  17.935  0.00  0.00    +0.000 N 
ATOM     25  C   UNL     1      49.219   5.099  17.820  0.00  0.00    +0.000 A 
ATOM     26  C   UNL     1      47.826   5.292  17.909  0.00  0.00    +0.000 A 
ATOM     27  N   UNL     1      46.891   4.324  17.726  0.00  0.00    +0.000 NA
ATOM     28  C   UNL     1      47.391   3.107  17.450  0.00  0.00    +0.000 A 
ATOM     29  C   UNL     1      48.751   2.873  17.400  0.00  0.00    +0.000 A 
ATOM     30  N   UNL     1      49.679   3.846  17.597  0.00  0.00    +0.000 NA
BRANCH  24  31
ATOM     31  C   UNL     1      50.971   5.954  19.170  0.00  0.00    +0.000 C 
BRANCH  31  32
ATOM     32  C   UNL     1      50.106   5.781  20.428  0.00  0.00    +0.000 C 
BRANCH  32  33
ATOM     33  O   UNL     1      50.010   4.413  20.819  0.00  0.00    +0.000 OA
ATOM     34  H   UNL     1      50.895   4.030  20.680  0.00  0.00    +0.000 HD
ENDBRANCH  32  33
ENDBRANCH  31  32
ENDBRANCH  24  31
ENDBRANCH  23  24
ENDBRANCH   4  23
TORSDOF 8
ENDMDL
MODEL 6
REMARK VINA RESULT:    -6.334      3.671      8.571
REMARK INTER + INTRA:         -10.190
REMARK INTER:                  -9.173
REMARK INTRA:                  -1.017
REMARK UNBOUND:                -1.079
REMARK  Name = 
REMARK  8 active torsions:
REMARK  status: ('A' for Active; 'I' for Inactive)
REMARK    1  A    between atoms: C_2  and  C_22
REMARK    2  A    between atoms: N_3  and  C_4
REMARK    3  A    between atoms: C_4  and  C_5
REMARK    4  A    between atoms: C_8  and  C_9
REMARK    5  A    between atoms: C_9  and  N_10
REMARK    6  A    between atoms: N_10  and  C_11
REMARK    7  A    between atoms: C_11  and  C_12
REMARK    8  A    between atoms: C_12  and  O_13
REMARK                            x       y       z     vdW  Elec       q    Type
REMARK                         _______ _______ _______ _____ _____    ______ ____
ROOT
ATOM      1  C   UNL     1      48.624   8.545  14.968  0.00  0.00    +0.000 A 
ATOM      2  C   UNL     1      49.671   7.624  14.837  0.00  0.00    +0.000 A 
ATOM      3  C   UNL     1      50.327   7.115  15.965  0.00  0.00    +0.000 A 
ATOM      4  C   UNL     1      49.918   7.474  17.259  0.00  0.00    +0.000 A 
ATOM      5  C   UNL     1      48.922   8.452  17.391  0.00  0.00    +0.000 A 
ATOM      6  C   UNL     1      48.280   8.977  16.257  0.00  0.00    +0.000 A 
ENDROOT
BRANCH   1   7
ATOM      7  C   UNL     1      47.923   9.076  13.741  0.00  0.00    +0.000 C 
BRANCH   7  10
ATOM      8  O   UNL     1      47.741   7.188  11.790  0.00  0.00    +0.000 OA
ATOM      9  C   UNL     1      46.723   7.405  12.445  0.00  0.00    +0.000 C 
ATOM     10  N   UNL     1      46.687   8.395  13.406  0.00  0.00    +0.000 N 
ATOM     11  H   UNL     1      45.918   8.421  14.070  0.00  0.00    +0.000 HD
BRANCH   9  12
ATOM     12  C   UNL     1      45.505   6.618  12.196  0.00  0.00    +0.000 A 
ATOM     13  C   UNL     1      44.402   7.239  11.617  0.00  0.00    +0.000 A 
ATOM     14  S   UNL     1      43.086   6.193  11.337  0.00  0.00    +0.000 S 
ATOM     15  C   UNL     1      43.961   4.859  11.933  0.00  0.00    +0.000 A 
ATOM     16  N   UNL     1      43.424   3.612  11.912  0.00  0.00    +0.000 NA
ATOM     17  C   UNL     1      44.208   2.685  12.347  0.00  0.00    +0.000 A 
ATOM     18  N   UNL     1      45.478   2.897  12.824  0.00  0.00    +0.000 N 
ATOM     19  C   UNL     1      46.042   4.159  12.917  0.00  0.00    +0.000 A 
ATOM     20  O   UNL     1      47.146   4.326  13.426  0.00  0.00    +0.000 OA
ATOM     21  C   UNL     1      45.219   5.221  12.389  0.00  0.00    +0.000 A 
ATOM     22  H   UNL     1      46.027   2.131  13.178  0.00  0.00    +0.000 HD
ENDBRANCH   9  12
ENDBRANCH   7  10
ENDBRANCH   1   7
BRANCH   4  23
ATOM     23  C   UNL     1      50.363   6.637  18.443  0.00  0.00    +0.000 C 
BRANCH  23  24
ATOM     24  N   UNL     1      50.579   5.204  18.210  0.00  0.00    +0.000 N 
ATOM     25  C   UNL     1      49.404   4.488  17.868  0.00  0.00    +0.000 A 
ATOM     26  C   UNL     1      48.098   4.950  18.132  0.00  0.00    +0.000 A 
ATOM     27  N   UNL     1      46.956   4.323  17.749  0.00  0.00    +0.000 NA
ATOM     28  C   UNL     1      47.147   3.174  17.076  0.00  0.00    +0.000 A 
ATOM     29  C   UNL     1      48.411   2.670  16.841  0.00  0.00    +0.000 A 
ATOM     30  N   UNL     1      49.546   3.299  17.240  0.00  0.00    +0.000 NA
BRANCH  24  31
ATOM     31  C   UNL     1      51.327   4.462  19.255  0.00  0.00    +0.000 C 
BRANCH  31  32
ATOM     32  C   UNL     1      52.669   3.907  18.755  0.00  0.00    +0.000 C 
BRANCH  32  33
ATOM     33  O   UNL     1      52.750   2.493  18.921  0.00  0.00    +0.000 OA
ATOM     34  H   UNL     1      53.600   2.224  18.531  0.00  0.00    +0.000 HD
ENDBRANCH  32  33
ENDBRANCH  31  32
ENDBRANCH  24  31
ENDBRANCH  23  24
ENDBRANCH   4  23
TORSDOF 8
ENDMDL
MODEL 7
REMARK VINA RESULT:    -6.189      5.521      9.337
REMARK INTER + INTRA:          -9.982
REMARK INTER:                  -8.894
REMARK INTRA:                  -1.088
REMARK UNBOUND:                -1.079
REMARK  Name = 
REMARK  8 active torsions:
REMARK  status: ('A' for Active; 'I' for Inactive)
REMARK    1  A    between atoms: C_2  and  C_22
REMARK    2  A    between atoms: N_3  and  C_4
REMARK    3  A    between atoms: C_4  and  C_5
REMARK    4  A    between atoms: C_8  and  C_9
REMARK    5  A    between atoms: C_9  and  N_10
REMARK    6  A    between atoms: N_10  and  C_11
REMARK    7  A    between atoms: C_11  and  C_12
REMARK    8  A    between atoms: C_12  and  O_13
REMARK                            x       y       z     vdW  Elec       q    Type
REMARK                         _______ _______ _______ _____ _____    ______ ____
ROOT
ATOM      1  C   UNL     1      47.939   8.541  12.181  0.00  0.00    +0.000 A 
ATOM      2  C   UNL     1      48.824   7.472  11.994  0.00  0.00    +0.000 A 
ATOM      3  C   UNL     1      50.126   7.690  11.529  0.00  0.00    +0.000 A 
ATOM      4  C   UNL     1      50.598   8.990  11.288  0.00  0.00    +0.000 A 
ATOM      5  C   UNL     1      49.692  10.053  11.401  0.00  0.00    +0.000 A 
ATOM      6  C   UNL     1      48.378   9.831  11.848  0.00  0.00    +0.000 A 
ENDROOT
BRANCH   1   7
ATOM      7  C   UNL     1      46.541   8.289  12.690  0.00  0.00    +0.000 C 
BRANCH   7  10
ATOM      8  O   UNL     1      44.305   7.545  11.330  0.00  0.00    +0.000 OA
ATOM      9  C   UNL     1      44.984   6.640  11.811  0.00  0.00    +0.000 C 
ATOM     10  N   UNL     1      46.095   6.912  12.584  0.00  0.00    +0.000 N 
ATOM     11  H   UNL     1      46.753   6.167  12.796  0.00  0.00    +0.000 HD
BRANCH   9  12
ATOM     12  C   UNL     1      44.606   5.236  11.589  0.00  0.00    +0.000 A 
ATOM     13  C   UNL     1      43.883   4.563  12.569  0.00  0.00    +0.000 A 
ATOM     14  S   UNL     1      43.469   2.964  12.149  0.00  0.00    +0.000 S 
ATOM     15  C   UNL     1      44.197   3.129  10.619  0.00  0.00    +0.000 A 
ATOM     16  N   UNL     1      44.140   2.120   9.712  0.00  0.00    +0.000 NA
ATOM     17  C   UNL     1      44.688   2.391   8.576  0.00  0.00    +0.000 A 
ATOM     18  N   UNL     1      45.311   3.576   8.273  0.00  0.00    +0.000 N 
ATOM     19  C   UNL     1      45.443   4.608   9.188  0.00  0.00    +0.000 A 
ATOM     20  O   UNL     1      46.079   5.621   8.915  0.00  0.00    +0.000 OA
ATOM     21  C   UNL     1      44.795   4.368  10.455  0.00  0.00    +0.000 A 
ATOM     22  H   UNL     1      45.747   3.711   7.376  0.00  0.00    +0.000 HD
ENDBRANCH   9  12
ENDBRANCH   7  10
ENDBRANCH   1   7
BRANCH   4  23
ATOM     23  C   UNL     1      52.091   9.234  11.168  0.00  0.00    +0.000 C 
BRANCH  23  24
ATOM     24  N   UNL     1      52.865   8.278  10.368  0.00  0.00    +0.000 N 
ATOM     25  C   UNL     1      53.805   7.523  11.114  0.00  0.00    +0.000 A 
ATOM     26  C   UNL     1      54.288   7.903  12.383  0.00  0.00    +0.000 A 
ATOM     27  N   UNL     1      55.128   7.163  13.152  0.00  0.00    +0.000 NA
ATOM     28  C   UNL     1      55.500   5.991  12.608  0.00  0.00    +0.000 A 
ATOM     29  C   UNL     1      55.083   5.609  11.348  0.00  0.00    +0.000 A 
ATOM     30  N   UNL     1      54.253   6.363  10.581  0.00  0.00    +0.000 NA
BRANCH  24  31
ATOM     31  C   UNL     1      53.513   8.805   9.141  0.00  0.00    +0.000 C 
BRANCH  31  32
ATOM     32  C   UNL     1      53.132   8.022   7.875  0.00  0.00    +0.000 C 
BRANCH  32  33
ATOM     33  O   UNL     1      52.274   6.923   8.173  0.00  0.00    +0.000 OA
ATOM     34  H   UNL     1      51.569   6.943   7.503  0.00  0.00    +0.000 HD
ENDBRANCH  32  33
ENDBRANCH  31  32
ENDBRANCH  24  31
ENDBRANCH  23  24
ENDBRANCH   4  23
TORSDOF 8
ENDMDL
MODEL 8
REMARK VINA RESULT:    -6.084      4.296      9.499
REMARK INTER + INTRA:          -9.830
REMARK INTER:                  -8.714
REMARK INTRA:                  -1.116
REMARK UNBOUND:                -1.079
REMARK  Name = 
REMARK  8 active torsions:
REMARK  status: ('A' for Active; 'I' for Inactive)
REMARK    1  A    between atoms: C_2  and  C_22
REMARK    2  A    between atoms: N_3  and  C_4
REMARK    3  A    between atoms: C_4  and  C_5
REMARK    4  A    between atoms: C_8  and  C_9
REMARK    5  A    between atoms: C_9  and  N_10
REMARK    6  A    between atoms: N_10  and  C_11
REMARK    7  A    between atoms: C_11  and  C_12
REMARK    8  A    between atoms: C_12  and  O_13
REMARK                            x       y       z     vdW  Elec       q    Type
REMARK                         _______ _______ _______ _____ _____    ______ ____
ROOT
ATOM      1  C   UNL     1      48.569   8.248  13.469  0.00  0.00    +0.000 A 
ATOM      2  C   UNL     1      49.006   7.018  13.979  0.00  0.00    +0.000 A 
ATOM      3  C   UNL     1      49.513   6.919  15.280  0.00  0.00    +0.000 A 
ATOM      4  C   UNL     1      49.549   8.037  16.128  0.00  0.00    +0.000 A 
ATOM      5  C   UNL     1      49.183   9.281  15.596  0.00  0.00    +0.000 A 
ATOM      6  C   UNL     1      48.695   9.384  14.282  0.00  0.00    +0.000 A 
ENDROOT
BRANCH   1   7
ATOM      7  C   UNL     1      48.018   8.335  12.067  0.00  0.00    +0.000 C 
BRANCH   7  10
ATOM      8  O   UNL     1      45.344   7.839  11.996  0.00  0.00    +0.000 OA
ATOM      9  C   UNL     1      46.077   6.981  11.507  0.00  0.00    +0.000 C 
ATOM     10  N   UNL     1      47.451   7.100  11.560  0.00  0.00    +0.000 N 
ATOM     11  H   UNL     1      48.029   6.498  10.979  0.00  0.00    +0.000 HD
BRANCH   9  12
ATOM     12  C   UNL     1      45.495   5.789  10.871  0.00  0.00    +0.000 A 
ATOM     13  C   UNL     1      45.778   5.526   9.535  0.00  0.00    +0.000 A 
ATOM     14  S   UNL     1      45.082   4.085   8.950  0.00  0.00    +0.000 S 
ATOM     15  C   UNL     1      44.418   3.732  10.477  0.00  0.00    +0.000 A 
ATOM     16  N   UNL     1      43.738   2.575  10.688  0.00  0.00    +0.000 NA
ATOM     17  C   UNL     1      43.330   2.408  11.900  0.00  0.00    +0.000 A 
ATOM     18  N   UNL     1      43.520   3.309  12.919  0.00  0.00    +0.000 N 
ATOM     19  C   UNL     1      44.156   4.525  12.734  0.00  0.00    +0.000 A 
ATOM     20  O   UNL     1      44.237   5.345  13.643  0.00  0.00    +0.000 OA
ATOM     21  C   UNL     1      44.679   4.729  11.403  0.00  0.00    +0.000 A 
ATOM     22  H   UNL     1      43.148   3.131  13.836  0.00  0.00    +0.000 HD
ENDBRANCH   9  12
ENDBRANCH   7  10
ENDBRANCH   1   7
BRANCH   4  23
ATOM     23  C   UNL     1      49.726   7.838  17.622  0.00  0.00    +0.000 C 
BRANCH  23  24
ATOM     24  N   UNL     1      48.508   7.757  18.437  0.00  0.00    +0.000 N 
ATOM     25  C   UNL     1      48.275   8.896  19.247  0.00  0.00    +0.000 A 
ATOM     26  C   UNL     1      49.272   9.828  19.598  0.00  0.00    +0.000 A 
ATOM     27  N   UNL     1      49.061  10.967  20.307  0.00  0.00    +0.000 NA
ATOM     28  C   UNL     1      47.785  11.164  20.684  0.00  0.00    +0.000 A 
ATOM     29  C   UNL     1      46.792  10.249  20.397  0.00  0.00    +0.000 A 
ATOM     30  N   UNL     1      47.016   9.106  19.698  0.00  0.00    +0.000 NA
BRANCH  24  31
ATOM     31  C   UNL     1      48.329   6.526  19.247  0.00  0.00    +0.000 C 
BRANCH  31  32
ATOM     32  C   UNL     1      47.729   5.360  18.445  0.00  0.00    +0.000 C 
BRANCH  32  33
ATOM     33  O   UNL     1      46.309   5.307  18.573  0.00  0.00    +0.000 OA
ATOM     34  H   UNL     1      45.966   5.112  17.683  0.00  0.00    +0.000 HD
ENDBRANCH  32  33
ENDBRANCH  31  32
ENDBRANCH  24  31
ENDBRANCH  23  24
ENDBRANCH   4  23
TORSDOF 8
ENDMDL
MODEL 9
REMARK VINA RESULT:    -5.901      3.337      8.490
REMARK INTER + INTRA:          -9.566
REMARK INTER:                  -8.197
REMARK INTRA:                  -1.369
REMARK UNBOUND:                -1.079
REMARK  Name = 
REMARK  8 active torsions:
REMARK  status: ('A' for Active; 'I' for Inactive)
REMARK    1  A    between atoms: C_2  and  C_22
REMARK    2  A    between atoms: N_3  and  C_4
REMARK    3  A    between atoms: C_4  and  C_5
REMARK    4  A    between atoms: C_8  and  C_9
REMARK    5  A    between atoms: C_9  and  N_10
REMARK    6  A    between atoms: N_10  and  C_11
REMARK    7  A    between atoms: C_11  and  C_12
REMARK    8  A    between atoms: C_12  and  O_13
REMARK                            x       y       z     vdW  Elec       q    Type
REMARK                         _______ _______ _______ _____ _____    ______ ____
ROOT
ATOM      1  C   UNL     1      48.982   8.558  16.125  0.00  0.00    +0.000 A 
ATOM      2  C   UNL     1      50.247   8.009  15.879  0.00  0.00    +0.000 A 
ATOM      3  C   UNL     1      50.896   7.234  16.848  0.00  0.00    +0.000 A 
ATOM      4  C   UNL     1      50.274   6.942  18.072  0.00  0.00    +0.000 A 
ATOM      5  C   UNL     1      49.043   7.550  18.350  0.00  0.00    +0.000 A 
ATOM      6  C   UNL     1      48.402   8.346  17.385  0.00  0.00    +0.000 A 
ENDROOT
BRANCH   1   7
ATOM      7  C   UNL     1      48.294   9.384  15.067  0.00  0.00    +0.000 C 
BRANCH   7  10
ATOM      8  O   UNL     1      48.554   7.783  12.882  0.00  0.00    +0.000 OA
ATOM      9  C   UNL     1      47.426   7.884  13.360  0.00  0.00    +0.000 C 
ATOM     10  N   UNL     1      47.171   8.730  14.421  0.00  0.00    +0.000 N 
ATOM     11  H   UNL     1      46.295   8.647  14.929  0.00  0.00    +0.000 HD
BRANCH   9  12
ATOM     12  C   UNL     1      46.310   7.114  12.788  0.00  0.00    +0.000 A 
ATOM     13  C   UNL     1      45.375   7.765  11.989  0.00  0.00    +0.000 A 
ATOM     14  S   UNL     1      44.174   6.737  11.352  0.00  0.00    +0.000 S 
ATOM     15  C   UNL     1      44.890   5.375  12.078  0.00  0.00    +0.000 A 
ATOM     16  N   UNL     1      44.384   4.132  11.870  0.00  0.00    +0.000 NA
ATOM     17  C   UNL     1      45.048   3.182  12.438  0.00  0.00    +0.000 A 
ATOM     18  N   UNL     1      46.163   3.367  13.218  0.00  0.00    +0.000 N 
ATOM     19  C   UNL     1      46.678   4.622  13.502  0.00  0.00    +0.000 A 
ATOM     20  O   UNL     1      47.625   4.761  14.270  0.00  0.00    +0.000 OA
ATOM     21  C   UNL     1      45.998   5.710  12.841  0.00  0.00    +0.000 A 
ATOM     22  H   UNL     1      46.617   2.584  13.657  0.00  0.00    +0.000 HD
ENDBRANCH   9  12
ENDBRANCH   7  10
ENDBRANCH   1   7
BRANCH   4  23
ATOM     23  C   UNL     1      50.805   5.807  18.928  0.00  0.00    +0.000 C 
BRANCH  23  24
ATOM     24  N   UNL     1      50.582   4.439  18.444  0.00  0.00    +0.000 N 
ATOM     25  C   UNL     1      51.770   3.738  18.119  0.00  0.00    +0.000 A 
ATOM     26  C   UNL     1      53.006   4.364  17.857  0.00  0.00    +0.000 A 
ATOM     27  N   UNL     1      54.175   3.715  17.618  0.00  0.00    +0.000 NA
ATOM     28  C   UNL     1      54.085   2.373  17.640  0.00  0.00    +0.000 A 
ATOM     29  C   UNL     1      52.882   1.727  17.848  0.00  0.00    +0.000 A 
ATOM     30  N   UNL     1      51.716   2.387  18.072  0.00  0.00    +0.000 NA
BRANCH  24  31
ATOM     31  C   UNL     1      49.591   4.271  17.352  0.00  0.00    +0.000 C 
BRANCH  31  32
ATOM     32  C   UNL     1      48.177   3.960  17.866  0.00  0.00    +0.000 C 
BRANCH  32  33
ATOM     33  O   UNL     1      47.192   4.762  17.217  0.00  0.00    +0.000 OA
ATOM     34  H   UNL     1      46.518   4.144  16.884  0.00  0.00    +0.000 HD
ENDBRANCH  32  33
ENDBRANCH  31  32
ENDBRANCH  24  31
ENDBRANCH  23  24
ENDBRANCH   4  23
TORSDOF 8
ENDMDL
