MODEL 1
REMARK VINA RESULT:    -8.212      0.000      0.000
REMARK INTER + INTRA:         -13.021
REMARK INTER:                 -11.812
REMARK INTRA:                  -1.209
REMARK UNBOUND:                -1.209
REMARK  Name = 
REMARK  9 active torsions:
REMARK  status: ('A' for Active; 'I' for Inactive)
REMARK    1  A    between atoms: C_1  and  N_2
REMARK    2  A    between atoms: N_2  and  C_3
REMARK    3  A    between atoms: C_3  and  C_4
REMARK    4  A    between atoms: C_7  and  C_8
REMARK    5  A    between atoms: C_8  and  O_9
REMARK    6  A    between atoms: C_8  and  C_10
REMARK    7  A    between atoms: C_10  and  N_11
REMARK    8  A    between atoms: N_11  and  C_12
REMARK    9  A    between atoms: C_20  and  C_22
REMARK                            x       y       z     vdW  Elec       q    Type
REMARK                         _______ _______ _______ _____ _____    ______ ____
ROOT
ATOM      1  C   UNL     1      46.457   6.323  12.678  0.00  0.00    +0.000 A 
ATOM      2  C   UNL     1      46.007   6.337  11.353  0.00  0.00    +0.000 A 
ATOM      3  C   UNL     1      45.302   5.244  10.838  0.00  0.00    +0.000 A 
ATOM      4  C   UNL     1      45.018   4.125  11.640  0.00  0.00    +0.000 A 
ATOM      5  C   UNL     1      45.495   4.119  12.960  0.00  0.00    +0.000 A 
ATOM      6  C   UNL     1      46.209   5.198  13.469  0.00  0.00    +0.000 A 
ENDROOT
BRANCH   1   7
ATOM      7  C   UNL     1      47.156   7.501  13.289  0.00  0.00    +0.000 C 
BRANCH   7   9
ATOM      8  C   UNL     1      49.362   7.679  12.073  0.00  0.00    +0.000 C 
ATOM      9  N   UNL     1      48.617   7.438  13.305  0.00  0.00    +0.000 N 
ATOM     10  C   UNL     1      49.391   7.524  14.474  0.00  0.00    +0.000 C 
ATOM     11  O   UNL     1      50.613   7.379  14.425  0.00  0.00    +0.000 OA
BRANCH  10  12
ATOM     12  C   UNL     1      48.780   7.929  15.749  0.00  0.00    +0.000 A 
ATOM     13  C   UNL     1      48.516   9.234  16.137  0.00  0.00    +0.000 A 
ATOM     14  S   UNL     1      48.140   9.391  17.797  0.00  0.00    +0.000 S 
ATOM     15  C   UNL     1      48.376   7.729  18.058  0.00  0.00    +0.000 A 
ATOM     16  N   UNL     1      48.360   7.201  19.309  0.00  0.00    +0.000 NA
ATOM     17  C   UNL     1      48.563   5.925  19.344  0.00  0.00    +0.000 A 
ATOM     18  N   UNL     1      48.728   5.124  18.240  0.00  0.00    +0.000 N 
ATOM     19  C   UNL     1      48.653   5.601  16.950  0.00  0.00    +0.000 A 
ATOM     20  O   UNL     1      48.557   4.845  15.989  0.00  0.00    +0.000 OA
ATOM     21  C   UNL     1      48.581   7.048  16.874  0.00  0.00    +0.000 A 
ATOM     22  H   UNL     1      48.767   4.120  18.335  0.00  0.00    +0.000 HD
ENDBRANCH  10  12
ENDBRANCH   7   9
ENDBRANCH   1   7
BRANCH   4  23
ATOM     23  C   UNL     1      44.197   2.979  11.063  0.00  0.00    +0.000 C 
BRANCH  23  24
ATOM     24  O   UNL     1      42.809   3.174  11.370  0.00  0.00    +0.000 OA
ATOM     25  H   UNL     1      42.467   2.331  11.715  0.00  0.00    +0.000 HD
ENDBRANCH  23  24
BRANCH  23  26
ATOM     26  C   UNL     1      44.344   2.844   9.530  0.00  0.00    +0.000 C 
BRANCH  26  27
ATOM     27  N   UNL     1      45.156   1.687   9.131  0.00  0.00    +0.000 N 
ATOM     28  H   UNL     1      44.556   0.877   8.957  0.00  0.00    +0.000 HD
BRANCH  27  29
ATOM     29  C   UNL     1      46.052   1.935   8.078  0.00  0.00    +0.000 A 
ATOM     30  C   UNL     1      46.977   1.020   7.589  0.00  0.00    +0.000 A 
ATOM     31  N   UNL     1      47.814   1.234   6.551  0.00  0.00    +0.000 NA
ATOM     32  C   UNL     1      47.675   2.417   5.942  0.00  0.00    +0.000 A 
ATOM     33  N   UNL     1      46.794   3.374   6.269  0.00  0.00    +0.000 NA
ATOM     34  C   UNL     1      45.990   3.092   7.320  0.00  0.00    +0.000 A 
ENDBRANCH  27  29
ENDBRANCH  26  27
ENDBRANCH  23  26
ENDBRANCH   4  23
TORSDOF 8
ENDMDL
MODEL 2
REMARK VINA RESULT:    -7.429      2.205      2.918
REMARK INTER + INTRA:         -11.896
REMARK INTER:                 -10.617
REMARK INTRA:                  -1.278
REMARK UNBOUND:                -1.209
REMARK  Name = 
REMARK  9 active torsions:
REMARK  status: ('A' for Active; 'I' for Inactive)
REMARK    1  A    between atoms: C_1  and  N_2
REMARK    2  A    between atoms: N_2  and  C_3
REMARK    3  A    between atoms: C_3  and  C_4
REMARK    4  A    between atoms: C_7  and  C_8
REMARK    5  A    between atoms: C_8  and  O_9
REMARK    6  A    between atoms: C_8  and  C_10
REMARK    7  A    between atoms: C_10  and  N_11
REMARK    8  A    between atoms: N_11  and  C_12
REMARK    9  A    between atoms: C_20  and  C_22
REMARK                            x       y       z     vdW  Elec       q    Type
REMARK                         _______ _______ _______ _____ _____    ______ ____
ROOT
ATOM      1  C   UNL     1      47.744   6.354  13.291  0.00  0.00    +0.000 A 
ATOM      2  C   UNL     1      46.945   5.384  13.905  0.00  0.00    +0.000 A 
ATOM      3  C   UNL     1      45.828   4.866  13.240  0.00  0.00    +0.000 A 
ATOM      4  C   UNL     1      45.498   5.295  11.943  0.00  0.00    +0.000 A 
ATOM      5  C   UNL     1      46.298   6.284  11.350  0.00  0.00    +0.000 A 
ATOM      6  C   UNL     1      47.400   6.811  12.016  0.00  0.00    +0.000 A 
ENDROOT
BRANCH   1   7
ATOM      7  C   UNL     1      48.987   6.884  13.941  0.00  0.00    +0.000 C 
BRANCH   7   9
ATOM      8  C   UNL     1      47.939   8.953  14.940  0.00  0.00    +0.000 C 
ATOM      9  N   UNL     1      48.780   7.769  15.087  0.00  0.00    +0.000 N 
ATOM     10  C   UNL     1      49.023   7.395  16.418  0.00  0.00    +0.000 C 
ATOM     11  O   UNL     1      48.909   8.217  17.328  0.00  0.00    +0.000 OA
BRANCH  10  12
ATOM     12  C   UNL     1      49.276   5.989  16.768  0.00  0.00    +0.000 A 
ATOM     13  C   UNL     1      48.312   5.069  17.150  0.00  0.00    +0.000 A 
ATOM     14  S   UNL     1      48.962   3.639  17.825  0.00  0.00    +0.000 S 
ATOM     15  C   UNL     1      50.547   4.233  17.681  0.00  0.00    +0.000 A 
ATOM     16  N   UNL     1      51.602   3.566  18.216  0.00  0.00    +0.000 NA
ATOM     17  C   UNL     1      52.741   4.149  18.031  0.00  0.00    +0.000 A 
ATOM     18  N   UNL     1      52.925   5.308  17.317  0.00  0.00    +0.000 N 
ATOM     19  C   UNL     1      51.897   5.964  16.675  0.00  0.00    +0.000 A 
ATOM     20  O   UNL     1      52.112   6.845  15.850  0.00  0.00    +0.000 OA
ATOM     21  C   UNL     1      50.587   5.427  16.988  0.00  0.00    +0.000 A 
ATOM     22  H   UNL     1      53.854   5.645  17.114  0.00  0.00    +0.000 HD
ENDBRANCH  10  12
ENDBRANCH   7   9
ENDBRANCH   1   7
BRANCH   4  23
ATOM     23  C   UNL     1      44.311   4.667  11.226  0.00  0.00    +0.000 C 
BRANCH  23  24
ATOM     24  O   UNL     1      43.952   5.465  10.089  0.00  0.00    +0.000 OA
ATOM     25  H   UNL     1      44.362   6.340  10.208  0.00  0.00    +0.000 HD
ENDBRANCH  23  24
BRANCH  23  26
ATOM     26  C   UNL     1      44.592   3.225  10.742  0.00  0.00    +0.000 C 
BRANCH  26  27
ATOM     27  N   UNL     1      44.301   3.031   9.316  0.00  0.00    +0.000 N 
ATOM     28  H   UNL     1      43.796   3.840   8.945  0.00  0.00    +0.000 HD
BRANCH  27  29
ATOM     29  C   UNL     1      45.413   2.681   8.533  0.00  0.00    +0.000 A 
ATOM     30  C   UNL     1      45.911   1.390   8.391  0.00  0.00    +0.000 A 
ATOM     31  N   UNL     1      46.953   1.036   7.609  0.00  0.00    +0.000 NA
ATOM     32  C   UNL     1      47.491   2.031   6.894  0.00  0.00    +0.000 A 
ATOM     33  N   UNL     1      47.085   3.309   6.888  0.00  0.00    +0.000 NA
ATOM     34  C   UNL     1      46.037   3.590   7.698  0.00  0.00    +0.000 A 
ENDBRANCH  27  29
ENDBRANCH  26  27
ENDBRANCH  23  26
ENDBRANCH   4  23
TORSDOF 8
ENDMDL
MODEL 3
REMARK VINA RESULT:    -7.253      1.608      2.338
REMARK INTER + INTRA:         -11.642
REMARK INTER:                 -10.392
REMARK INTRA:                  -1.249
REMARK UNBOUND:                -1.209
REMARK  Name = 
REMARK  9 active torsions:
REMARK  status: ('A' for Active; 'I' for Inactive)
REMARK    1  A    between atoms: C_1  and  N_2
REMARK    2  A    between atoms: N_2  and  C_3
REMARK    3  A    between atoms: C_3  and  C_4
REMARK    4  A    between atoms: C_7  and  C_8
REMARK    5  A    between atoms: C_8  and  O_9
REMARK    6  A    between atoms: C_8  and  C_10
REMARK    7  A    between atoms: C_10  and  N_11
REMARK    8  A    between atoms: N_11  and  C_12
REMARK    9  A    between atoms: C_20  and  C_22
REMARK                            x       y       z     vdW  Elec       q    Type
REMARK                         _______ _______ _______ _____ _____    ______ ____
ROOT
ATOM      1  C   UNL     1      46.993   6.595  13.267  0.00  0.00    +0.000 A 
ATOM      2  C   UNL     1      46.088   6.658  12.202  0.00  0.00    +0.000 A 
ATOM      3  C   UNL     1      45.421   5.505  11.774  0.00  0.00    +0.000 A 
ATOM      4  C   UNL     1      45.633   4.271  12.413  0.00  0.00    +0.000 A 
ATOM      5  C   UNL     1      46.559   4.221  13.466  0.00  0.00    +0.000 A 
ATOM      6  C   UNL     1      47.234   5.363  13.883  0.00  0.00    +0.000 A 
ENDROOT
BRANCH   1   7
ATOM      7  C   UNL     1      47.676   7.819  13.800  0.00  0.00    +0.000 C 
BRANCH   7   9
ATOM      8  C   UNL     1      49.702   8.447  12.431  0.00  0.00    +0.000 C 
ATOM      9  N   UNL     1      49.129   7.860  13.638  0.00  0.00    +0.000 N 
ATOM     10  C   UNL     1      50.039   7.715  14.697  0.00  0.00    +0.000 C 
ATOM     11  O   UNL     1      51.250   7.676  14.479  0.00  0.00    +0.000 OA
BRANCH  10  12
ATOM     12  C   UNL     1      49.576   7.752  16.093  0.00  0.00    +0.000 A 
ATOM     13  C   UNL     1      49.356   6.644  16.897  0.00  0.00    +0.000 A 
ATOM     14  S   UNL     1      48.492   6.999  18.329  0.00  0.00    +0.000 S 
ATOM     15  C   UNL     1      48.336   8.632  17.888  0.00  0.00    +0.000 A 
ATOM     16  N   UNL     1      47.564   9.487  18.607  0.00  0.00    +0.000 NA
ATOM     17  C   UNL     1      47.540  10.693  18.141  0.00  0.00    +0.000 A 
ATOM     18  N   UNL     1      48.258  11.131  17.054  0.00  0.00    +0.000 N 
ATOM     19  C   UNL     1      49.128  10.322  16.355  0.00  0.00    +0.000 A 
ATOM     20  O   UNL     1      49.934  10.785  15.556  0.00  0.00    +0.000 OA
ATOM     21  C   UNL     1      49.064   8.929  16.752  0.00  0.00    +0.000 A 
ATOM     22  H   UNL     1      48.282  12.111  16.815  0.00  0.00    +0.000 HD
ENDBRANCH  10  12
ENDBRANCH   7   9
ENDBRANCH   1   7
BRANCH   4  23
ATOM     23  C   UNL     1      44.845   3.048  11.960  0.00  0.00    +0.000 C 
BRANCH  23  24
ATOM     24  O   UNL     1      43.754   2.812  12.860  0.00  0.00    +0.000 OA
ATOM     25  H   UNL     1      43.333   1.977  12.593  0.00  0.00    +0.000 HD
ENDBRANCH  23  24
BRANCH  23  26
ATOM     26  C   UNL     1      44.275   3.195  10.530  0.00  0.00    +0.000 C 
BRANCH  26  27
ATOM     27  N   UNL     1      44.582   2.045   9.669  0.00  0.00    +0.000 N 
ATOM     28  H   UNL     1      43.718   1.642   9.296  0.00  0.00    +0.000 HD
BRANCH  27  29
ATOM     29  C   UNL     1      45.537   2.298   8.670  0.00  0.00    +0.000 A 
ATOM     30  C   UNL     1      46.332   1.331   8.067  0.00  0.00    +0.000 A 
ATOM     31  N   UNL     1      47.223   1.557   7.078  0.00  0.00    +0.000 NA
ATOM     32  C   UNL     1      47.280   2.820   6.641  0.00  0.00    +0.000 A 
ATOM     33  N   UNL     1      46.540   3.845   7.090  0.00  0.00    +0.000 NA
ATOM     34  C   UNL     1      45.670   3.544   8.083  0.00  0.00    +0.000 A 
ENDBRANCH  27  29
ENDBRANCH  26  27
ENDBRANCH  23  26
ENDBRANCH   4  23
TORSDOF 8
ENDMDL
MODEL 4
REMARK VINA RESULT:    -7.190      2.111      2.930
REMARK INTER + INTRA:         -11.551
REMARK INTER:                 -10.272
REMARK INTRA:                  -1.279
REMARK UNBOUND:                -1.209
REMARK  Name = 
REMARK  9 active torsions:
REMARK  status: ('A' for Active; 'I' for Inactive)
REMARK    1  A    between atoms: C_1  and  N_2
REMARK    2  A    between atoms: N_2  and  C_3
REMARK    3  A    between atoms: C_3  and  C_4
REMARK    4  A    between atoms: C_7  and  C_8
REMARK    5  A    between atoms: C_8  and  O_9
REMARK    6  A    between atoms: C_8  and  C_10
REMARK    7  A    between atoms: C_10  and  N_11
REMARK    8  A    between atoms: N_11  and  C_12
REMARK    9  A    between atoms: C_20  and  C_22
REMARK                            x       y       z     vdW  Elec       q    Type
REMARK                         _______ _______ _______ _____ _____    ______ ____
ROOT
ATOM      1  C   UNL     1      48.135   6.541  13.886  0.00  0.00    +0.000 A 
ATOM      2  C   UNL     1      47.346   5.518  14.422  0.00  0.00    +0.000 A 
ATOM      3  C   UNL     1      46.222   5.058  13.727  0.00  0.00    +0.000 A 
ATOM      4  C   UNL     1      45.875   5.598  12.477  0.00  0.00    +0.000 A 
ATOM      5  C   UNL     1      46.666   6.638  11.964  0.00  0.00    +0.000 A 
ATOM      6  C   UNL     1      47.774   7.107  12.660  0.00  0.00    +0.000 A 
ENDROOT
BRANCH   1   7
ATOM      7  C   UNL     1      49.384   7.016  14.565  0.00  0.00    +0.000 C 
BRANCH   7   9
ATOM      8  C   UNL     1      48.218   9.015  15.575  0.00  0.00    +0.000 C 
ATOM      9  N   UNL     1      49.192   7.933  15.688  0.00  0.00    +0.000 N 
ATOM     10  C   UNL     1      49.595   7.655  17.004  0.00  0.00    +0.000 C 
ATOM     11  O   UNL     1      49.479   8.506  17.886  0.00  0.00    +0.000 OA
BRANCH  10  12
ATOM     12  C   UNL     1      50.030   6.302  17.384  0.00  0.00    +0.000 A 
ATOM     13  C   UNL     1      51.319   5.806  17.262  0.00  0.00    +0.000 A 
ATOM     14  S   UNL     1      51.420   4.111  17.453  0.00  0.00    +0.000 S 
ATOM     15  C   UNL     1      49.737   3.983  17.647  0.00  0.00    +0.000 A 
ATOM     16  N   UNL     1      49.123   2.773  17.705  0.00  0.00    +0.000 NA
ATOM     17  C   UNL     1      47.840   2.841  17.845  0.00  0.00    +0.000 A 
ATOM     18  N   UNL     1      47.124   4.005  17.985  0.00  0.00    +0.000 N 
ATOM     19  C   UNL     1      47.717   5.249  18.030  0.00  0.00    +0.000 A 
ATOM     20  O   UNL     1      47.100   6.242  18.398  0.00  0.00    +0.000 OA
ATOM     21  C   UNL     1      49.134   5.223  17.722  0.00  0.00    +0.000 A 
ATOM     22  H   UNL     1      46.140   3.980  18.207  0.00  0.00    +0.000 HD
ENDBRANCH  10  12
ENDBRANCH   7   9
ENDBRANCH   1   7
BRANCH   4  23
ATOM     23  C   UNL     1      44.680   5.031  11.721  0.00  0.00    +0.000 C 
BRANCH  23  24
ATOM     24  O   UNL     1      44.380   5.864  10.592  0.00  0.00    +0.000 OA
ATOM     25  H   UNL     1      45.036   6.583  10.580  0.00  0.00    +0.000 HD
ENDBRANCH  23  24
BRANCH  23  26
ATOM     26  C   UNL     1      44.915   3.589  11.215  0.00  0.00    +0.000 C 
BRANCH  26  27
ATOM     27  N   UNL     1      44.335   3.344   9.889  0.00  0.00    +0.000 N 
ATOM     28  H   UNL     1      43.702   4.107   9.634  0.00  0.00    +0.000 HD
BRANCH  27  29
ATOM     29  C   UNL     1      45.273   3.058   8.883  0.00  0.00    +0.000 A 
ATOM     30  C   UNL     1      45.794   1.797   8.617  0.00  0.00    +0.000 A 
ATOM     31  N   UNL     1      46.663   1.504   7.626  0.00  0.00    +0.000 NA
ATOM     32  C   UNL     1      46.987   2.530   6.831  0.00  0.00    +0.000 A 
ATOM     33  N   UNL     1      46.525   3.785   6.934  0.00  0.00    +0.000 NA
ATOM     34  C   UNL     1      45.660   4.005   7.952  0.00  0.00    +0.000 A 
ENDBRANCH  27  29
ENDBRANCH  26  27
ENDBRANCH  23  26
ENDBRANCH   4  23
TORSDOF 8
ENDMDL
MODEL 5
REMARK VINA RESULT:    -6.937      1.576      2.170
REMARK INTER + INTRA:         -11.187
REMARK INTER:                 -10.117
REMARK INTRA:                  -1.070
REMARK UNBOUND:                -1.209
REMARK  Name = 
REMARK  9 active torsions:
REMARK  status: ('A' for Active; 'I' for Inactive)
REMARK    1  A    between atoms: C_1  and  N_2
REMARK    2  A    between atoms: N_2  and  C_3
REMARK    3  A    between atoms: C_3  and  C_4
REMARK    4  A    between atoms: C_7  and  C_8
REMARK    5  A    between atoms: C_8  and  O_9
REMARK    6  A    between atoms: C_8  and  C_10
REMARK    7  A    between atoms: C_10  and  N_11
REMARK    8  A    between atoms: N_11  and  C_12
REMARK    9  A    between atoms: C_20  and  C_22
REMARK                            x       y       z     vdW  Elec       q    Type
REMARK                         _______ _______ _______ _____ _____    ______ ____
ROOT
ATOM      1  C   UNL     1      47.431   7.863  13.805  0.00  0.00    +0.000 A 
ATOM      2  C   UNL     1      46.419   8.506  13.084  0.00  0.00    +0.000 A 
ATOM      3  C   UNL     1      45.625   7.784  12.186  0.00  0.00    +0.000 A 
ATOM      4  C   UNL     1      45.816   6.403  12.004  0.00  0.00    +0.000 A 
ATOM      5  C   UNL     1      46.849   5.778  12.719  0.00  0.00    +0.000 A 
ATOM      6  C   UNL     1      47.649   6.498  13.600  0.00  0.00    +0.000 A 
ENDROOT
BRANCH   1   7
ATOM      7  C   UNL     1      48.258   8.585  14.826  0.00  0.00    +0.000 C 
BRANCH   7   9
ATOM      8  C   UNL     1      50.608   8.772  13.921  0.00  0.00    +0.000 C 
ATOM      9  N   UNL     1      49.669   8.208  14.887  0.00  0.00    +0.000 N 
ATOM     10  C   UNL     1      50.277   7.631  16.014  0.00  0.00    +0.000 C 
ATOM     11  O   UNL     1      51.450   7.260  15.969  0.00  0.00    +0.000 OA
BRANCH  10  12
ATOM     12  C   UNL     1      49.575   7.591  17.305  0.00  0.00    +0.000 A 
ATOM     13  C   UNL     1      49.455   8.651  18.190  0.00  0.00    +0.000 A 
ATOM     14  S   UNL     1      48.899   8.190  19.739  0.00  0.00    +0.000 S 
ATOM     15  C   UNL     1      48.857   6.552  19.291  0.00  0.00    +0.000 A 
ATOM     16  N   UNL     1      48.608   5.576  20.201  0.00  0.00    +0.000 NA
ATOM     17  C   UNL     1      48.619   4.381  19.709  0.00  0.00    +0.000 A 
ATOM     18  N   UNL     1      48.805   4.080  18.381  0.00  0.00    +0.000 N 
ATOM     19  C   UNL     1      48.963   5.043  17.409  0.00  0.00    +0.000 A 
ATOM     20  O   UNL     1      48.881   4.771  16.216  0.00  0.00    +0.000 OA
ATOM     21  C   UNL     1      49.110   6.382  17.943  0.00  0.00    +0.000 A 
ATOM     22  H   UNL     1      48.686   3.134  18.047  0.00  0.00    +0.000 HD
ENDBRANCH  10  12
ENDBRANCH   7   9
ENDBRANCH   1   7
BRANCH   4  23
ATOM     23  C   UNL     1      44.894   5.638  11.063  0.00  0.00    +0.000 C 
BRANCH  23  24
ATOM     24  O   UNL     1      43.690   6.386  10.848  0.00  0.00    +0.000 OA
ATOM     25  H   UNL     1      43.811   6.903  10.032  0.00  0.00    +0.000 HD
ENDBRANCH  23  24
BRANCH  23  26
ATOM     26  C   UNL     1      45.541   5.348   9.689  0.00  0.00    +0.000 C 
BRANCH  26  27
ATOM     27  N   UNL     1      44.765   4.403   8.877  0.00  0.00    +0.000 N 
ATOM     28  H   UNL     1      44.196   4.909   8.193  0.00  0.00    +0.000 HD
BRANCH  27  29
ATOM     29  C   UNL     1      45.520   3.371   8.295  0.00  0.00    +0.000 A 
ATOM     30  C   UNL     1      46.506   3.552   7.331  0.00  0.00    +0.000 A 
ATOM     31  N   UNL     1      47.265   2.573   6.797  0.00  0.00    +0.000 NA
ATOM     32  C   UNL     1      47.052   1.350   7.297  0.00  0.00    +0.000 A 
ATOM     33  N   UNL     1      46.176   1.033   8.261  0.00  0.00    +0.000 NA
ATOM     34  C   UNL     1      45.447   2.065   8.748  0.00  0.00    +0.000 A 
ENDBRANCH  27  29
ENDBRANCH  26  27
ENDBRANCH  23  26
ENDBRANCH   4  23
TORSDOF 8
ENDMDL
MODEL 6
REMARK VINA RESULT:    -6.495      3.468      8.578
REMARK INTER + INTRA:         -10.552
REMARK INTER:                  -9.467
REMARK INTRA:                  -1.085
REMARK UNBOUND:                -1.209
REMARK  Name = 
REMARK  9 active torsions:
REMARK  status: ('A' for Active; 'I' for Inactive)
REMARK    1  A    between atoms: C_1  and  N_2
REMARK    2  A    between atoms: N_2  and  C_3
REMARK    3  A    between atoms: C_3  and  C_4
REMARK    4  A    between atoms: C_7  and  C_8
REMARK    5  A    between atoms: C_8  and  O_9
REMARK    6  A    between atoms: C_8  and  C_10
REMARK    7  A    between atoms: C_10  and  N_11
REMARK    8  A    between atoms: N_11  and  C_12
REMARK    9  A    between atoms: C_20  and  C_22
REMARK                            x       y       z     vdW  Elec       q    Type
REMARK                         _______ _______ _______ _____ _____    ______ ____
ROOT
ATOM      1  C   UNL     1      48.692   6.823  13.660  0.00  0.00    +0.000 A 
ATOM      2  C   UNL     1      49.880   7.560  13.624  0.00  0.00    +0.000 A 
ATOM      3  C   UNL     1      50.644   7.722  14.786  0.00  0.00    +0.000 A 
ATOM      4  C   UNL     1      50.243   7.136  15.999  0.00  0.00    +0.000 A 
ATOM      5  C   UNL     1      49.038   6.418  16.021  0.00  0.00    +0.000 A 
ATOM      6  C   UNL     1      48.271   6.269  14.871  0.00  0.00    +0.000 A 
ENDROOT
BRANCH   1   7
ATOM      7  C   UNL     1      47.881   6.569  12.424  0.00  0.00    +0.000 C 
BRANCH   7   9
ATOM      8  C   UNL     1      46.969   8.918  12.265  0.00  0.00    +0.000 C 
ATOM      9  N   UNL     1      46.755   7.475  12.202  0.00  0.00    +0.000 N 
ATOM     10  C   UNL     1      45.556   7.096  11.576  0.00  0.00    +0.000 C 
ATOM     11  O   UNL     1      44.616   7.887  11.497  0.00  0.00    +0.000 OA
BRANCH  10  12
ATOM     12  C   UNL     1      45.450   5.804  10.880  0.00  0.00    +0.000 A 
ATOM     13  C   UNL     1      45.708   5.592   9.535  0.00  0.00    +0.000 A 
ATOM     14  S   UNL     1      45.156   4.079   8.963  0.00  0.00    +0.000 S 
ATOM     15  C   UNL     1      44.505   3.687  10.483  0.00  0.00    +0.000 A 
ATOM     16  N   UNL     1      43.746   2.576  10.661  0.00  0.00    +0.000 NA
ATOM     17  C   UNL     1      43.316   2.420  11.870  0.00  0.00    +0.000 A 
ATOM     18  N   UNL     1      43.621   3.246  12.926  0.00  0.00    +0.000 N 
ATOM     19  C   UNL     1      44.466   4.328  12.811  0.00  0.00    +0.000 A 
ATOM     20  O   UNL     1      44.917   4.899  13.798  0.00  0.00    +0.000 OA
ATOM     21  C   UNL     1      44.842   4.623  11.442  0.00  0.00    +0.000 A 
ATOM     22  H   UNL     1      43.347   3.001  13.866  0.00  0.00    +0.000 HD
ENDBRANCH  10  12
ENDBRANCH   7   9
ENDBRANCH   1   7
BRANCH   4  23
ATOM     23  C   UNL     1      51.130   7.283  17.230  0.00  0.00    +0.000 C 
BRANCH  23  24
ATOM     24  O   UNL     1      50.330   7.645  18.364  0.00  0.00    +0.000 OA
ATOM     25  H   UNL     1      50.879   8.205  18.940  0.00  0.00    +0.000 HD
ENDBRANCH  23  24
BRANCH  23  26
ATOM     26  C   UNL     1      51.906   5.990  17.571  0.00  0.00    +0.000 C 
BRANCH  26  27
ATOM     27  N   UNL     1      51.129   5.055  18.395  0.00  0.00    +0.000 N 
ATOM     28  H   UNL     1      50.140   5.318  18.391  0.00  0.00    +0.000 HD
BRANCH  27  29
ATOM     29  C   UNL     1      51.330   3.698  18.089  0.00  0.00    +0.000 A 
ATOM     30  C   UNL     1      50.465   2.918  17.330  0.00  0.00    +0.000 A 
ATOM     31  N   UNL     1      50.669   1.626  16.996  0.00  0.00    +0.000 NA
ATOM     32  C   UNL     1      51.830   1.107  17.410  0.00  0.00    +0.000 A 
ATOM     33  N   UNL     1      52.780   1.751  18.104  0.00  0.00    +0.000 NA
ATOM     34  C   UNL     1      52.507   3.043  18.404  0.00  0.00    +0.000 A 
ENDBRANCH  27  29
ENDBRANCH  26  27
ENDBRANCH  23  26
ENDBRANCH   4  23
TORSDOF 8
ENDMDL
MODEL 7
REMARK VINA RESULT:    -6.275      3.492      9.020
REMARK INTER + INTRA:         -10.235
REMARK INTER:                  -9.393
REMARK INTRA:                  -0.842
REMARK UNBOUND:                -1.209
REMARK  Name = 
REMARK  9 active torsions:
REMARK  status: ('A' for Active; 'I' for Inactive)
REMARK    1  A    between atoms: C_1  and  N_2
REMARK    2  A    between atoms: N_2  and  C_3
REMARK    3  A    between atoms: C_3  and  C_4
REMARK    4  A    between atoms: C_7  and  C_8
REMARK    5  A    between atoms: C_8  and  O_9
REMARK    6  A    between atoms: C_8  and  C_10
REMARK    7  A    between atoms: C_10  and  N_11
REMARK    8  A    between atoms: N_11  and  C_12
REMARK    9  A    between atoms: C_20  and  C_22
REMARK                            x       y       z     vdW  Elec       q    Type
REMARK                         _______ _______ _______ _____ _____    ______ ____
ROOT
ATOM      1  C   UNL     1      47.509   5.231  14.331  0.00  0.00    +0.000 A 
ATOM      2  C   UNL     1      48.310   6.248  14.862  0.00  0.00    +0.000 A 
ATOM      3  C   UNL     1      48.653   6.238  16.219  0.00  0.00    +0.000 A 
ATOM      4  C   UNL     1      48.217   5.204  17.066  0.00  0.00    +0.000 A 
ATOM      5  C   UNL     1      47.397   4.204  16.521  0.00  0.00    +0.000 A 
ATOM      6  C   UNL     1      47.042   4.221  15.176  0.00  0.00    +0.000 A 
ENDROOT
BRANCH   1   7
ATOM      7  C   UNL     1      47.175   5.168  12.871  0.00  0.00    +0.000 C 
BRANCH   7   9
ATOM      8  C   UNL     1      47.409   7.508  11.951  0.00  0.00    +0.000 C 
ATOM      9  N   UNL     1      46.565   6.369  12.303  0.00  0.00    +0.000 N 
ATOM     10  C   UNL     1      45.285   6.400  11.725  0.00  0.00    +0.000 C 
ATOM     11  O   UNL     1      44.798   7.464  11.342  0.00  0.00    +0.000 OA
BRANCH  10  12
ATOM     12  C   UNL     1      44.564   5.151  11.437  0.00  0.00    +0.000 A 
ATOM     13  C   UNL     1      43.700   4.502  12.306  0.00  0.00    +0.000 A 
ATOM     14  S   UNL     1      43.306   2.912  11.817  0.00  0.00    +0.000 S 
ATOM     15  C   UNL     1      44.324   3.024  10.461  0.00  0.00    +0.000 A 
ATOM     16  N   UNL     1      44.575   1.945   9.675  0.00  0.00    +0.000 NA
ATOM     17  C   UNL     1      45.375   2.188   8.689  0.00  0.00    +0.000 A 
ATOM     18  N   UNL     1      45.902   3.421   8.388  0.00  0.00    +0.000 N 
ATOM     19  C   UNL     1      45.595   4.561   9.099  0.00  0.00    +0.000 A 
ATOM     20  O   UNL     1      45.872   5.677   8.675  0.00  0.00    +0.000 OA
ATOM     21  C   UNL     1      44.827   4.300  10.301  0.00  0.00    +0.000 A 
ATOM     22  H   UNL     1      46.425   3.562   7.537  0.00  0.00    +0.000 HD
ENDBRANCH  10  12
ENDBRANCH   7   9
ENDBRANCH   1   7
BRANCH   4  23
ATOM     23  C   UNL     1      48.659   5.194  18.524  0.00  0.00    +0.000 C 
BRANCH  23  24
ATOM     24  O   UNL     1      48.174   4.008  19.169  0.00  0.00    +0.000 OA
ATOM     25  H   UNL     1      48.838   3.311  19.032  0.00  0.00    +0.000 HD
ENDBRANCH  23  24
BRANCH  23  26
ATOM     26  C   UNL     1      50.196   5.246  18.688  0.00  0.00    +0.000 C 
BRANCH  26  27
ATOM     27  N   UNL     1      50.777   3.952  19.066  0.00  0.00    +0.000 N 
ATOM     28  H   UNL     1      50.133   3.192  18.829  0.00  0.00    +0.000 HD
BRANCH  27  29
ATOM     29  C   UNL     1      52.077   3.730  18.583  0.00  0.00    +0.000 A 
ATOM     30  C   UNL     1      52.565   2.503  18.146  0.00  0.00    +0.000 A 
ATOM     31  N   UNL     1      53.799   2.288  17.642  0.00  0.00    +0.000 NA
ATOM     32  C   UNL     1      54.566   3.378  17.528  0.00  0.00    +0.000 A 
ATOM     33  N   UNL     1      54.213   4.629  17.859  0.00  0.00    +0.000 NA
ATOM     34  C   UNL     1      52.963   4.769  18.359  0.00  0.00    +0.000 A 
ENDBRANCH  27  29
ENDBRANCH  26  27
ENDBRANCH  23  26
ENDBRANCH   4  23
TORSDOF 8
ENDMDL
MODEL 8
REMARK VINA RESULT:    -5.850      2.391      2.925
REMARK INTER + INTRA:          -9.624
REMARK INTER:                  -8.616
REMARK INTRA:                  -1.008
REMARK UNBOUND:                -1.209
REMARK  Name = 
REMARK  9 active torsions:
REMARK  status: ('A' for Active; 'I' for Inactive)
REMARK    1  A    between atoms: C_1  and  N_2
REMARK    2  A    between atoms: N_2  and  C_3
REMARK    3  A    between atoms: C_3  and  C_4
REMARK    4  A    between atoms: C_7  and  C_8
REMARK    5  A    between atoms: C_8  and  O_9
REMARK    6  A    between atoms: C_8  and  C_10
REMARK    7  A    between atoms: C_10  and  N_11
REMARK    8  A    between atoms: N_11  and  C_12
REMARK    9  A    between atoms: C_20  and  C_22
REMARK                            x       y       z     vdW  Elec       q    Type
REMARK                         _______ _______ _______ _____ _____    ______ ____
ROOT
ATOM      1  C   UNL     1      47.340   8.306  13.530  0.00  0.00    +0.000 A 
ATOM      2  C   UNL     1      46.019   8.606  13.181  0.00  0.00    +0.000 A 
ATOM      3  C   UNL     1      45.304   7.755  12.331  0.00  0.00    +0.000 A 
ATOM      4  C   UNL     1      45.889   6.580  11.828  0.00  0.00    +0.000 A 
ATOM      5  C   UNL     1      47.222   6.306  12.171  0.00  0.00    +0.000 A 
ATOM      6  C   UNL     1      47.939   7.158  13.003  0.00  0.00    +0.000 A 
ENDROOT
BRANCH   1   7
ATOM      7  C   UNL     1      48.118   9.155  14.491  0.00  0.00    +0.000 C 
BRANCH   7   9
ATOM      8  C   UNL     1      48.925  10.736  12.696  0.00  0.00    +0.000 C 
ATOM      9  N   UNL     1      49.186   9.965  13.908  0.00  0.00    +0.000 N 
ATOM     10  C   UNL     1      50.340  10.358  14.604  0.00  0.00    +0.000 C 
ATOM     11  O   UNL     1      51.241  10.968  14.027  0.00  0.00    +0.000 OA
BRANCH  10  12
ATOM     12  C   UNL     1      50.435  10.176  16.061  0.00  0.00    +0.000 A 
ATOM     13  C   UNL     1      50.156  11.145  17.012  0.00  0.00    +0.000 A 
ATOM     14  S   UNL     1      50.698  10.739  18.581  0.00  0.00    +0.000 S 
ATOM     15  C   UNL     1      51.373   9.282  18.024  0.00  0.00    +0.000 A 
ATOM     16  N   UNL     1      52.135   8.502  18.833  0.00  0.00    +0.000 NA
ATOM     17  C   UNL     1      52.583   7.433  18.262  0.00  0.00    +0.000 A 
ATOM     18  N   UNL     1      52.296   7.049  16.974  0.00  0.00    +0.000 N 
ATOM     19  C   UNL     1      51.449   7.760  16.152  0.00  0.00    +0.000 A 
ATOM     20  O   UNL     1      51.014   7.282  15.109  0.00  0.00    +0.000 OA
ATOM     21  C   UNL     1      51.052   9.041  16.703  0.00  0.00    +0.000 A 
ATOM     22  H   UNL     1      52.585   6.145  16.631  0.00  0.00    +0.000 HD
ENDBRANCH  10  12
ENDBRANCH   7   9
ENDBRANCH   1   7
BRANCH   4  23
ATOM     23  C   UNL     1      45.062   5.647  10.954  0.00  0.00    +0.000 C 
BRANCH  23  24
ATOM     24  O   UNL     1      43.756   6.204  10.748  0.00  0.00    +0.000 OA
ATOM     25  H   UNL     1      43.606   6.859  11.452  0.00  0.00    +0.000 HD
ENDBRANCH  23  24
BRANCH  23  26
ATOM     26  C   UNL     1      45.705   5.386   9.572  0.00  0.00    +0.000 C 
BRANCH  26  27
ATOM     27  N   UNL     1      44.958   4.415   8.765  0.00  0.00    +0.000 N 
ATOM     28  H   UNL     1      44.442   4.894   8.022  0.00  0.00    +0.000 HD
BRANCH  27  29
ATOM     29  C   UNL     1      45.723   3.339   8.284  0.00  0.00    +0.000 A 
ATOM     30  C   UNL     1      45.568   2.014   8.677  0.00  0.00    +0.000 A 
ATOM     31  N   UNL     1      46.270   0.968   8.192  0.00  0.00    +0.000 NA
ATOM     32  C   UNL     1      47.143   1.268   7.223  0.00  0.00    +0.000 A 
ATOM     33  N   UNL     1      47.362   2.487   6.709  0.00  0.00    +0.000 NA
ATOM     34  C   UNL     1      46.625   3.487   7.245  0.00  0.00    +0.000 A 
ENDBRANCH  27  29
ENDBRANCH  26  27
ENDBRANCH  23  26
ENDBRANCH   4  23
TORSDOF 8
ENDMDL
MODEL 9
REMARK VINA RESULT:    -5.849      3.315      4.837
REMARK INTER + INTRA:          -9.622
REMARK INTER:                  -8.444
REMARK INTRA:                  -1.178
REMARK UNBOUND:                -1.209
REMARK  Name = 
REMARK  9 active torsions:
REMARK  status: ('A' for Active; 'I' for Inactive)
REMARK    1  A    between atoms: C_1  and  N_2
REMARK    2  A    between atoms: N_2  and  C_3
REMARK    3  A    between atoms: C_3  and  C_4
REMARK    4  A    between atoms: C_7  and  C_8
REMARK    5  A    between atoms: C_8  and  O_9
REMARK    6  A    between atoms: C_8  and  C_10
REMARK    7  A    between atoms: C_10  and  N_11
REMARK    8  A    between atoms: N_11  and  C_12
REMARK    9  A    between atoms: C_20  and  C_22
REMARK                            x       y       z     vdW  Elec       q    Type
REMARK                         _______ _______ _______ _____ _____    ______ ____
ROOT
ATOM      1  C   UNL     1      49.906   7.496  14.619  0.00  0.00    +0.000 A 
ATOM      2  C   UNL     1      48.774   6.796  15.051  0.00  0.00    +0.000 A 
ATOM      3  C   UNL     1      47.587   6.851  14.312  0.00  0.00    +0.000 A 
ATOM      4  C   UNL     1      47.513   7.593  13.121  0.00  0.00    +0.000 A 
ATOM      5  C   UNL     1      48.650   8.306  12.714  0.00  0.00    +0.000 A 
ATOM      6  C   UNL     1      49.827   8.264  13.454  0.00  0.00    +0.000 A 
ENDROOT
BRANCH   1   7
ATOM      7  C   UNL     1      51.216   7.409  15.343  0.00  0.00    +0.000 C 
BRANCH   7   9
ATOM      8  C   UNL     1      50.972   9.511  16.721  0.00  0.00    +0.000 C 
ATOM      9  N   UNL     1      51.275   8.085  16.638  0.00  0.00    +0.000 N 
ATOM     10  C   UNL     1      51.246   7.417  17.873  0.00  0.00    +0.000 C 
ATOM     11  O   UNL     1      51.386   8.042  18.925  0.00  0.00    +0.000 OA
BRANCH  10  12
ATOM     12  C   UNL     1      50.907   5.988  17.943  0.00  0.00    +0.000 A 
ATOM     13  C   UNL     1      51.791   4.940  17.735  0.00  0.00    +0.000 A 
ATOM     14  S   UNL     1      51.022   3.426  17.537  0.00  0.00    +0.000 S 
ATOM     15  C   UNL     1      49.484   4.135  17.666  0.00  0.00    +0.000 A 
ATOM     16  N   UNL     1      48.354   3.418  17.435  0.00  0.00    +0.000 NA
ATOM     17  C   UNL     1      47.263   4.100  17.564  0.00  0.00    +0.000 A 
ATOM     18  N   UNL     1      47.199   5.416  17.952  0.00  0.00    +0.000 N 
ATOM     19  C   UNL     1      48.313   6.153  18.290  0.00  0.00    +0.000 A 
ATOM     20  O   UNL     1      48.220   7.233  18.863  0.00  0.00    +0.000 OA
ATOM     21  C   UNL     1      49.562   5.470  18.010  0.00  0.00    +0.000 A 
ATOM     22  H   UNL     1      46.310   5.853  18.144  0.00  0.00    +0.000 HD
ENDBRANCH  10  12
ENDBRANCH   7   9
ENDBRANCH   1   7
BRANCH   4  23
ATOM     23  C   UNL     1      46.222   7.582  12.312  0.00  0.00    +0.000 C 
BRANCH  23  24
ATOM     24  O   UNL     1      45.983   8.885  11.761  0.00  0.00    +0.000 OA
ATOM     25  H   UNL     1      46.407   8.912  10.885  0.00  0.00    +0.000 HD
ENDBRANCH  23  24
BRANCH  23  26
ATOM     26  C   UNL     1      46.246   6.558  11.153  0.00  0.00    +0.000 C 
BRANCH  26  27
ATOM     27  N   UNL     1      44.904   6.195  10.681  0.00  0.00    +0.000 N 
ATOM     28  H   UNL     1      44.853   6.276   9.662  0.00  0.00    +0.000 HD
BRANCH  27  29
ATOM     29  C   UNL     1      44.432   4.958  11.150  0.00  0.00    +0.000 A 
ATOM     30  C   UNL     1      44.124   4.675  12.476  0.00  0.00    +0.000 A 
ATOM     31  N   UNL     1      43.632   3.503  12.931  0.00  0.00    +0.000 NA
ATOM     32  C   UNL     1      43.391   2.583  11.989  0.00  0.00    +0.000 A 
ATOM     33  N   UNL     1      43.588   2.732  10.671  0.00  0.00    +0.000 NA
ATOM     34  C   UNL     1      44.086   3.931  10.289  0.00  0.00    +0.000 A 
ENDBRANCH  27  29
ENDBRANCH  26  27
ENDBRANCH  23  26
ENDBRANCH   4  23
TORSDOF 8
ENDMDL
