MODEL 1
REMARK VINA RESULT:    -8.317      0.000      0.000
REMARK INTER + INTRA:         -14.834
REMARK INTER:                 -13.179
REMARK INTRA:                  -1.655
REMARK UNBOUND:                -1.655
REMARK  Name = 
REMARK  12 active torsions:
REMARK  status: ('A' for Active; 'I' for Inactive)
REMARK    1  A    between atoms: C_1  and  O_2
REMARK    2  A    between atoms: O_2  and  C_3
REMARK    3  A    between atoms: C_3  and  C_4
REMARK    4  A    between atoms: C_4  and  N_5
REMARK    5  A    between atoms: C_4  and  C_28
REMARK    6  A    between atoms: N_5  and  C_6
REMARK    7  A    between atoms: C_6  and  C_7
REMARK    8  A    between atoms: C_10  and  C_11
REMARK    9  A    between atoms: C_11  and  N_12
REMARK   10  A    between atoms: C_13  and  C_15
REMARK   11  A    between atoms: C_22  and  O_23
REMARK   12  A    between atoms: O_23  and  C_24
REMARK                            x       y       z     vdW  Elec       q    Type
REMARK                         _______ _______ _______ _____ _____    ______ ____
ROOT
ATOM      1  C   UNL     1      45.301   6.677  11.095  0.00  0.00    +0.000 A 
ATOM      2  C   UNL     1      44.820   7.743  11.866  0.00  0.00    +0.000 A 
ATOM      3  C   UNL     1      45.644   8.363  12.810  0.00  0.00    +0.000 A 
ATOM      4  C   UNL     1      46.965   7.934  13.002  0.00  0.00    +0.000 A 
ATOM      5  C   UNL     1      47.443   6.864  12.236  0.00  0.00    +0.000 A 
ATOM      6  C   UNL     1      46.623   6.247  11.290  0.00  0.00    +0.000 A 
ENDROOT
BRANCH   1   7
ATOM      7  C   UNL     1      44.402   5.907  10.152  0.00  0.00    +0.000 C 
BRANCH   7   8
ATOM      8  N   UNL     1      45.118   5.172   9.109  0.00  0.00    +0.000 NA
ATOM      9  H   UNL     1      44.813   5.524   8.201  0.00  0.00    +0.000 HD
BRANCH   8  10
ATOM     10  C   UNL     1      44.811   3.717   9.112  0.00  0.00    +0.000 C 
BRANCH  10  11
ATOM     11  C   UNL     1      45.689   2.943   8.131  0.00  0.00    +0.000 A 
ATOM     12  C   UNL     1      46.243   3.604   7.023  0.00  0.00    +0.000 A 
ATOM     13  C   UNL     1      47.114   2.939   6.156  0.00  0.00    +0.000 A 
ATOM     14  C   UNL     1      47.450   1.607   6.388  0.00  0.00    +0.000 A 
ATOM     15  C   UNL     1      46.915   0.935   7.480  0.00  0.00    +0.000 A 
ATOM     16  C   UNL     1      46.038   1.596   8.340  0.00  0.00    +0.000 A 
ENDBRANCH  10  11
BRANCH  10  17
ATOM     17  C   UNL     1      44.778   3.088  10.532  0.00  0.00    +0.000 C 
BRANCH  17  19
ATOM     18  C   UNL     1      43.354   2.907  12.390  0.00  0.00    +0.000 C 
ATOM     19  O   UNL     1      43.431   2.857  10.968  0.00  0.00    +0.000 OA
ENDBRANCH  17  19
ENDBRANCH  10  17
ENDBRANCH   8  10
ENDBRANCH   7   8
ENDBRANCH   1   7
BRANCH   4  20
ATOM     20  C   UNL     1      47.838   8.565  14.052  0.00  0.00    +0.000 C 
BRANCH  20  21
ATOM     21  N   UNL     1      48.054   7.657  15.152  0.00  0.00    +0.000 N 
ATOM     22  C   UNL     1      49.234   6.977  15.303  0.00  0.00    +0.000 C 
ATOM     23  O   UNL     1      50.193   7.140  14.554  0.00  0.00    +0.000 OA
ATOM     24  H   UNL     1      47.255   7.418  15.727  0.00  0.00    +0.000 HD
BRANCH  22  25
ATOM     25  C   UNL     1      49.299   6.076  16.441  0.00  0.00    +0.000 A 
ATOM     26  C   UNL     1      50.267   6.175  17.424  0.00  0.00    +0.000 A 
ATOM     27  O   UNL     1      50.091   5.241  18.389  0.00  0.00    +0.000 OA
ATOM     28  C   UNL     1      49.011   4.495  18.029  0.00  0.00    +0.000 A 
ATOM     29  N   UNL     1      48.561   3.469  18.764  0.00  0.00    +0.000 NA
ATOM     30  C   UNL     1      47.503   2.882  18.197  0.00  0.00    +0.000 A 
ATOM     31  N   UNL     1      46.900   3.209  17.039  0.00  0.00    +0.000 NA
ATOM     32  C   UNL     1      47.397   4.252  16.341  0.00  0.00    +0.000 A 
ATOM     33  C   UNL     1      48.493   4.961  16.830  0.00  0.00    +0.000 A 
BRANCH  32  34
ATOM     34  O   UNL     1      46.822   4.622  15.143  0.00  0.00    +0.000 OA
ATOM     35  C   UNL     1      46.998   3.670  14.101  0.00  0.00    +0.000 C 
ENDBRANCH  32  34
ENDBRANCH  22  25
ENDBRANCH  20  21
ENDBRANCH   4  20
TORSDOF 10
ENDMDL
MODEL 2
REMARK VINA RESULT:    -7.175      1.705      2.171
REMARK INTER + INTRA:         -13.024
REMARK INTER:                 -11.675
REMARK INTRA:                  -1.348
REMARK UNBOUND:                -1.655
REMARK  Name = 
REMARK  12 active torsions:
REMARK  status: ('A' for Active; 'I' for Inactive)
REMARK    1  A    between atoms: C_1  and  O_2
REMARK    2  A    between atoms: O_2  and  C_3
REMARK    3  A    between atoms: C_3  and  C_4
REMARK    4  A    between atoms: C_4  and  N_5
REMARK    5  A    between atoms: C_4  and  C_28
REMARK    6  A    between atoms: N_5  and  C_6
REMARK    7  A    between atoms: C_6  and  C_7
REMARK    8  A    between atoms: C_10  and  C_11
REMARK    9  A    between atoms: C_11  and  N_12
REMARK   10  A    between atoms: C_13  and  C_15
REMARK   11  A    between atoms: C_22  and  O_23
REMARK   12  A    between atoms: O_23  and  C_24
REMARK                            x       y       z     vdW  Elec       q    Type
REMARK                         _______ _______ _______ _____ _____    ______ ____
ROOT
ATOM      1  C   UNL     1      46.163   6.636  12.121  0.00  0.00    +0.000 A 
ATOM      2  C   UNL     1      46.882   5.689  12.861  0.00  0.00    +0.000 A 
ATOM      3  C   UNL     1      47.684   6.089  13.935  0.00  0.00    +0.000 A 
ATOM      4  C   UNL     1      47.781   7.442  14.293  0.00  0.00    +0.000 A 
ATOM      5  C   UNL     1      47.068   8.389  13.549  0.00  0.00    +0.000 A 
ATOM      6  C   UNL     1      46.264   7.989  12.480  0.00  0.00    +0.000 A 
ENDROOT
BRANCH   1   7
ATOM      7  C   UNL     1      45.383   6.253  10.882  0.00  0.00    +0.000 C 
BRANCH   7   8
ATOM      8  N   UNL     1      45.979   5.159  10.114  0.00  0.00    +0.000 NA
ATOM      9  H   UNL     1      46.595   5.561   9.407  0.00  0.00    +0.000 HD
BRANCH   8  10
ATOM     10  C   UNL     1      44.970   4.356   9.374  0.00  0.00    +0.000 C 
BRANCH  10  11
ATOM     11  C   UNL     1      45.620   3.363   8.412  0.00  0.00    +0.000 A 
ATOM     12  C   UNL     1      46.224   3.831   7.234  0.00  0.00    +0.000 A 
ATOM     13  C   UNL     1      46.895   2.954   6.378  0.00  0.00    +0.000 A 
ATOM     14  C   UNL     1      46.979   1.598   6.690  0.00  0.00    +0.000 A 
ATOM     15  C   UNL     1      46.389   1.115   7.852  0.00  0.00    +0.000 A 
ATOM     16  C   UNL     1      45.711   1.989   8.702  0.00  0.00    +0.000 A 
ENDBRANCH  10  11
BRANCH  10  17
ATOM     17  C   UNL     1      43.894   3.707  10.287  0.00  0.00    +0.000 C 
BRANCH  17  19
ATOM     18  C   UNL     1      43.653   3.476  12.612  0.00  0.00    +0.000 C 
ATOM     19  O   UNL     1      44.478   3.182  11.488  0.00  0.00    +0.000 OA
ENDBRANCH  17  19
ENDBRANCH  10  17
ENDBRANCH   8  10
ENDBRANCH   7   8
ENDBRANCH   1   7
BRANCH   4  20
ATOM     20  C   UNL     1      48.682   7.882  15.415  0.00  0.00    +0.000 C 
BRANCH  20  21
ATOM     21  N   UNL     1      49.530   6.798  15.846  0.00  0.00    +0.000 N 
ATOM     22  C   UNL     1      49.883   6.640  17.162  0.00  0.00    +0.000 C 
ATOM     23  O   UNL     1      49.455   7.367  18.054  0.00  0.00    +0.000 OA
ATOM     24  H   UNL     1      49.985   6.244  15.131  0.00  0.00    +0.000 HD
BRANCH  22  25
ATOM     25  C   UNL     1      50.765   5.521  17.446  0.00  0.00    +0.000 A 
ATOM     26  C   UNL     1      52.035   5.679  17.970  0.00  0.00    +0.000 A 
ATOM     27  O   UNL     1      52.641   4.484  18.171  0.00  0.00    +0.000 OA
ATOM     28  C   UNL     1      51.774   3.523  17.751  0.00  0.00    +0.000 A 
ATOM     29  N   UNL     1      52.063   2.215  17.800  0.00  0.00    +0.000 NA
ATOM     30  C   UNL     1      51.064   1.471  17.315  0.00  0.00    +0.000 A 
ATOM     31  N   UNL     1      49.886   1.892  16.817  0.00  0.00    +0.000 NA
ATOM     32  C   UNL     1      49.652   3.221  16.793  0.00  0.00    +0.000 A 
ATOM     33  C   UNL     1      50.608   4.109  17.283  0.00  0.00    +0.000 A 
BRANCH  32  34
ATOM     34  O   UNL     1      48.465   3.707  16.284  0.00  0.00    +0.000 OA
ATOM     35  C   UNL     1      47.413   3.774  17.241  0.00  0.00    +0.000 C 
ENDBRANCH  32  34
ENDBRANCH  22  25
ENDBRANCH  20  21
ENDBRANCH   4  20
TORSDOF 10
ENDMDL
MODEL 3
REMARK VINA RESULT:    -6.622      5.005      6.808
REMARK INTER + INTRA:         -12.148
REMARK INTER:                 -10.729
REMARK INTRA:                  -1.419
REMARK UNBOUND:                -1.655
REMARK  Name = 
REMARK  12 active torsions:
REMARK  status: ('A' for Active; 'I' for Inactive)
REMARK    1  A    between atoms: C_1  and  O_2
REMARK    2  A    between atoms: O_2  and  C_3
REMARK    3  A    between atoms: C_3  and  C_4
REMARK    4  A    between atoms: C_4  and  N_5
REMARK    5  A    between atoms: C_4  and  C_28
REMARK    6  A    between atoms: N_5  and  C_6
REMARK    7  A    between atoms: C_6  and  C_7
REMARK    8  A    between atoms: C_10  and  C_11
REMARK    9  A    between atoms: C_11  and  N_12
REMARK   10  A    between atoms: C_13  and  C_15
REMARK   11  A    between atoms: C_22  and  O_23
REMARK   12  A    between atoms: O_23  and  C_24
REMARK                            x       y       z     vdW  Elec       q    Type
REMARK                         _______ _______ _______ _____ _____    ______ ____
ROOT
ATOM      1  C   UNL     1      46.975   7.842  11.973  0.00  0.00    +0.000 A 
ATOM      2  C   UNL     1      47.331   9.191  12.096  0.00  0.00    +0.000 A 
ATOM      3  C   UNL     1      48.670   9.583  11.995  0.00  0.00    +0.000 A 
ATOM      4  C   UNL     1      49.679   8.637  11.767  0.00  0.00    +0.000 A 
ATOM      5  C   UNL     1      49.324   7.288  11.651  0.00  0.00    +0.000 A 
ATOM      6  C   UNL     1      47.988   6.897  11.747  0.00  0.00    +0.000 A 
ENDROOT
BRANCH   1   7
ATOM      7  C   UNL     1      45.556   7.370  12.195  0.00  0.00    +0.000 C 
BRANCH   7   8
ATOM      8  N   UNL     1      44.965   6.684  11.046  0.00  0.00    +0.000 NA
ATOM      9  H   UNL     1      44.077   7.136  10.823  0.00  0.00    +0.000 HD
BRANCH   8  10
ATOM     10  C   UNL     1      44.645   5.259  11.324  0.00  0.00    +0.000 C 
BRANCH  10  11
ATOM     11  C   UNL     1      44.954   4.358  10.130  0.00  0.00    +0.000 A 
ATOM     12  C   UNL     1      45.677   4.871   9.041  0.00  0.00    +0.000 A 
ATOM     13  C   UNL     1      46.041   4.046   7.974  0.00  0.00    +0.000 A 
ATOM     14  C   UNL     1      45.696   2.697   7.982  0.00  0.00    +0.000 A 
ATOM     15  C   UNL     1      44.982   2.168   9.051  0.00  0.00    +0.000 A 
ATOM     16  C   UNL     1      44.610   2.994  10.112  0.00  0.00    +0.000 A 
ENDBRANCH  10  11
BRANCH  10  17
ATOM     17  C   UNL     1      45.241   4.733  12.658  0.00  0.00    +0.000 C 
BRANCH  17  19
ATOM     18  C   UNL     1      42.937   4.762  13.110  0.00  0.00    +0.000 C 
ATOM     19  O   UNL     1      44.209   4.298  13.554  0.00  0.00    +0.000 OA
ENDBRANCH  17  19
ENDBRANCH  10  17
ENDBRANCH   8  10
ENDBRANCH   7   8
ENDBRANCH   1   7
BRANCH   4  20
ATOM     20  C   UNL     1      51.125   9.048  11.709  0.00  0.00    +0.000 C 
BRANCH  20  21
ATOM     21  N   UNL     1      51.947   7.967  11.221  0.00  0.00    +0.000 N 
ATOM     22  C   UNL     1      52.697   8.091  10.080  0.00  0.00    +0.000 C 
ATOM     23  O   UNL     1      52.763   9.138   9.443  0.00  0.00    +0.000 OA
ATOM     24  H   UNL     1      51.838   7.060  11.658  0.00  0.00    +0.000 HD
BRANCH  22  25
ATOM     25  C   UNL     1      53.453   6.913   9.694  0.00  0.00    +0.000 A 
ATOM     26  C   UNL     1      54.299   6.244  10.560  0.00  0.00    +0.000 A 
ATOM     27  O   UNL     1      54.860   5.162   9.969  0.00  0.00    +0.000 OA
ATOM     28  C   UNL     1      54.403   5.127   8.687  0.00  0.00    +0.000 A 
ATOM     29  N   UNL     1      54.771   4.181   7.812  0.00  0.00    +0.000 NA
ATOM     30  C   UNL     1      54.206   4.370   6.615  0.00  0.00    +0.000 A 
ATOM     31  N   UNL     1      53.368   5.355   6.243  0.00  0.00    +0.000 NA
ATOM     32  C   UNL     1      53.033   6.280   7.168  0.00  0.00    +0.000 A 
ATOM     33  C   UNL     1      53.542   6.191   8.462  0.00  0.00    +0.000 A 
BRANCH  32  34
ATOM     34  O   UNL     1      52.184   7.316   6.837  0.00  0.00    +0.000 OA
ATOM     35  C   UNL     1      52.808   8.357   6.094  0.00  0.00    +0.000 C 
ENDBRANCH  32  34
ENDBRANCH  22  25
ENDBRANCH  20  21
ENDBRANCH   4  20
TORSDOF 10
ENDMDL
MODEL 4
REMARK VINA RESULT:    -6.544      3.362      8.476
REMARK INTER + INTRA:         -12.025
REMARK INTER:                  -9.664
REMARK INTRA:                  -2.361
REMARK UNBOUND:                -1.655
REMARK  Name = 
REMARK  12 active torsions:
REMARK  status: ('A' for Active; 'I' for Inactive)
REMARK    1  A    between atoms: C_1  and  O_2
REMARK    2  A    between atoms: O_2  and  C_3
REMARK    3  A    between atoms: C_3  and  C_4
REMARK    4  A    between atoms: C_4  and  N_5
REMARK    5  A    between atoms: C_4  and  C_28
REMARK    6  A    between atoms: N_5  and  C_6
REMARK    7  A    between atoms: C_6  and  C_7
REMARK    8  A    between atoms: C_10  and  C_11
REMARK    9  A    between atoms: C_11  and  N_12
REMARK   10  A    between atoms: C_13  and  C_15
REMARK   11  A    between atoms: C_22  and  O_23
REMARK   12  A    between atoms: O_23  and  C_24
REMARK                            x       y       z     vdW  Elec       q    Type
REMARK                         _______ _______ _______ _____ _____    ______ ____
ROOT
ATOM      1  C   UNL     1      49.991   7.903  17.967  0.00  0.00    +0.000 A 
ATOM      2  C   UNL     1      50.621   7.371  16.835  0.00  0.00    +0.000 A 
ATOM      3  C   UNL     1      50.078   7.569  15.562  0.00  0.00    +0.000 A 
ATOM      4  C   UNL     1      48.897   8.306  15.393  0.00  0.00    +0.000 A 
ATOM      5  C   UNL     1      48.263   8.832  16.525  0.00  0.00    +0.000 A 
ATOM      6  C   UNL     1      48.807   8.638  17.795  0.00  0.00    +0.000 A 
ENDROOT
BRANCH   1   7
ATOM      7  C   UNL     1      50.484   7.607  19.366  0.00  0.00    +0.000 C 
BRANCH   7   8
ATOM      8  N   UNL     1      49.669   6.635  20.095  0.00  0.00    +0.000 NA
ATOM      9  H   UNL     1      49.796   6.795  21.095  0.00  0.00    +0.000 HD
BRANCH   8  10
ATOM     10  C   UNL     1      50.083   5.229  19.846  0.00  0.00    +0.000 C 
BRANCH  10  11
ATOM     11  C   UNL     1      49.253   4.573  18.744  0.00  0.00    +0.000 A 
ATOM     12  C   UNL     1      49.777   3.479  18.037  0.00  0.00    +0.000 A 
ATOM     13  C   UNL     1      49.009   2.812  17.081  0.00  0.00    +0.000 A 
ATOM     14  C   UNL     1      47.703   3.222  16.821  0.00  0.00    +0.000 A 
ATOM     15  C   UNL     1      47.164   4.301  17.510  0.00  0.00    +0.000 A 
ATOM     16  C   UNL     1      47.934   4.974  18.459  0.00  0.00    +0.000 A 
ENDBRANCH  10  11
BRANCH  10  17
ATOM     17  C   UNL     1      51.613   5.053  19.645  0.00  0.00    +0.000 C 
BRANCH  17  19
ATOM     18  C   UNL     1      53.436   3.732  20.313  0.00  0.00    +0.000 C 
ATOM     19  O   UNL     1      52.198   4.307  20.722  0.00  0.00    +0.000 OA
ENDBRANCH  17  19
ENDBRANCH  10  17
ENDBRANCH   8  10
ENDBRANCH   7   8
ENDBRANCH   1   7
BRANCH   4  20
ATOM     20  C   UNL     1      48.281   8.479  14.031  0.00  0.00    +0.000 C 
BRANCH  20  21
ATOM     21  N   UNL     1      47.270   7.479  13.794  0.00  0.00    +0.000 N 
ATOM     22  C   UNL     1      47.566   6.284  13.190  0.00  0.00    +0.000 C 
ATOM     23  O   UNL     1      48.709   5.970  12.870  0.00  0.00    +0.000 OA
ATOM     24  H   UNL     1      46.304   7.742  13.947  0.00  0.00    +0.000 HD
BRANCH  22  25
ATOM     25  C   UNL     1      46.443   5.385  12.990  0.00  0.00    +0.000 A 
ATOM     26  C   UNL     1      46.463   4.057  13.378  0.00  0.00    +0.000 A 
ATOM     27  O   UNL     1      45.286   3.444  13.111  0.00  0.00    +0.000 OA
ATOM     28  C   UNL     1      44.483   4.367  12.514  0.00  0.00    +0.000 A 
ATOM     29  N   UNL     1      43.237   4.088  12.106  0.00  0.00    +0.000 NA
ATOM     30  C   UNL     1      42.656   5.148  11.534  0.00  0.00    +0.000 A 
ATOM     31  N   UNL     1      43.178   6.374  11.345  0.00  0.00    +0.000 NA
ATOM     32  C   UNL     1      44.438   6.595  11.776  0.00  0.00    +0.000 A 
ATOM     33  C   UNL     1      45.152   5.577  12.404  0.00  0.00    +0.000 A 
BRANCH  32  34
ATOM     34  O   UNL     1      45.024   7.832  11.599  0.00  0.00    +0.000 OA
ATOM     35  C   UNL     1      44.131   8.829  11.119  0.00  0.00    +0.000 C 
ENDBRANCH  32  34
ENDBRANCH  22  25
ENDBRANCH  20  21
ENDBRANCH   4  20
TORSDOF 10
ENDMDL
MODEL 5
REMARK VINA RESULT:    -6.426      3.197      8.028
REMARK INTER + INTRA:         -11.838
REMARK INTER:                 -10.055
REMARK INTRA:                  -1.783
REMARK UNBOUND:                -1.655
REMARK  Name = 
REMARK  12 active torsions:
REMARK  status: ('A' for Active; 'I' for Inactive)
REMARK    1  A    between atoms: C_1  and  O_2
REMARK    2  A    between atoms: O_2  and  C_3
REMARK    3  A    between atoms: C_3  and  C_4
REMARK    4  A    between atoms: C_4  and  N_5
REMARK    5  A    between atoms: C_4  and  C_28
REMARK    6  A    between atoms: N_5  and  C_6
REMARK    7  A    between atoms: C_6  and  C_7
REMARK    8  A    between atoms: C_10  and  C_11
REMARK    9  A    between atoms: C_11  and  N_12
REMARK   10  A    between atoms: C_13  and  C_15
REMARK   11  A    between atoms: C_22  and  O_23
REMARK   12  A    between atoms: O_23  and  C_24
REMARK                            x       y       z     vdW  Elec       q    Type
REMARK                         _______ _______ _______ _____ _____    ______ ____
ROOT
ATOM      1  C   UNL     1      49.504   7.790  16.030  0.00  0.00    +0.000 A 
ATOM      2  C   UNL     1      50.054   7.149  14.912  0.00  0.00    +0.000 A 
ATOM      3  C   UNL     1      49.526   7.372  13.636  0.00  0.00    +0.000 A 
ATOM      4  C   UNL     1      48.441   8.241  13.451  0.00  0.00    +0.000 A 
ATOM      5  C   UNL     1      47.887   8.876  14.569  0.00  0.00    +0.000 A 
ATOM      6  C   UNL     1      48.417   8.658  15.841  0.00  0.00    +0.000 A 
ENDROOT
BRANCH   1   7
ATOM      7  C   UNL     1      49.972   7.481  17.434  0.00  0.00    +0.000 C 
BRANCH   7   8
ATOM      8  N   UNL     1      50.811   6.286  17.538  0.00  0.00    +0.000 NA
ATOM      9  H   UNL     1      51.200   6.086  16.615  0.00  0.00    +0.000 HD
BRANCH   8  10
ATOM     10  C   UNL     1      50.046   5.075  17.936  0.00  0.00    +0.000 C 
BRANCH  10  11
ATOM     11  C   UNL     1      50.870   3.799  17.779  0.00  0.00    +0.000 A 
ATOM     12  C   UNL     1      52.222   3.793  18.157  0.00  0.00    +0.000 A 
ATOM     13  C   UNL     1      52.976   2.619  18.098  0.00  0.00    +0.000 A 
ATOM     14  C   UNL     1      52.388   1.430  17.670  0.00  0.00    +0.000 A 
ATOM     15  C   UNL     1      51.051   1.413  17.293  0.00  0.00    +0.000 A 
ATOM     16  C   UNL     1      50.301   2.588  17.342  0.00  0.00    +0.000 A 
ENDBRANCH  10  11
BRANCH  10  17
ATOM     17  C   UNL     1      49.363   5.195  19.326  0.00  0.00    +0.000 C 
BRANCH  17  19
ATOM     18  C   UNL     1      47.407   4.829  18.080  0.00  0.00    +0.000 C 
ATOM     19  O   UNL     1      47.970   5.512  19.197  0.00  0.00    +0.000 OA
ENDBRANCH  17  19
ENDBRANCH  10  17
ENDBRANCH   8  10
ENDBRANCH   7   8
ENDBRANCH   1   7
BRANCH   4  20
ATOM     20  C   UNL     1      47.838   8.444  12.088  0.00  0.00    +0.000 C 
BRANCH  20  21
ATOM     21  N   UNL     1      46.790   7.483  11.842  0.00  0.00    +0.000 N 
ATOM     22  C   UNL     1      45.466   7.809  11.987  0.00  0.00    +0.000 C 
ATOM     23  O   UNL     1      45.091   8.942  12.272  0.00  0.00    +0.000 OA
ATOM     24  H   UNL     1      47.061   6.517  11.709  0.00  0.00    +0.000 HD
BRANCH  22  25
ATOM     25  C   UNL     1      44.523   6.733  11.734  0.00  0.00    +0.000 A 
ATOM     26  C   UNL     1      43.276   6.942  11.172  0.00  0.00    +0.000 A 
ATOM     27  O   UNL     1      42.603   5.778  11.012  0.00  0.00    +0.000 OA
ATOM     28  C   UNL     1      43.400   4.787  11.498  0.00  0.00    +0.000 A 
ATOM     29  N   UNL     1      43.033   3.498  11.502  0.00  0.00    +0.000 NA
ATOM     30  C   UNL     1      43.974   2.719  12.046  0.00  0.00    +0.000 A 
ATOM     31  N   UNL     1      45.164   3.092  12.552  0.00  0.00    +0.000 NA
ATOM     32  C   UNL     1      45.479   4.404  12.520  0.00  0.00    +0.000 A 
ATOM     33  C   UNL     1      44.590   5.323  11.966  0.00  0.00    +0.000 A 
BRANCH  32  34
ATOM     34  O   UNL     1      46.682   4.841  13.034  0.00  0.00    +0.000 OA
ATOM     35  C   UNL     1      46.766   4.762  14.452  0.00  0.00    +0.000 C 
ENDBRANCH  32  34
ENDBRANCH  22  25
ENDBRANCH  20  21
ENDBRANCH   4  20
TORSDOF 10
ENDMDL
MODEL 6
REMARK VINA RESULT:    -6.271      3.211      8.326
REMARK INTER + INTRA:         -11.591
REMARK INTER:                  -9.120
REMARK INTRA:                  -2.471
REMARK UNBOUND:                -1.655
REMARK  Name = 
REMARK  12 active torsions:
REMARK  status: ('A' for Active; 'I' for Inactive)
REMARK    1  A    between atoms: C_1  and  O_2
REMARK    2  A    between atoms: O_2  and  C_3
REMARK    3  A    between atoms: C_3  and  C_4
REMARK    4  A    between atoms: C_4  and  N_5
REMARK    5  A    between atoms: C_4  and  C_28
REMARK    6  A    between atoms: N_5  and  C_6
REMARK    7  A    between atoms: C_6  and  C_7
REMARK    8  A    between atoms: C_10  and  C_11
REMARK    9  A    between atoms: C_11  and  N_12
REMARK   10  A    between atoms: C_13  and  C_15
REMARK   11  A    between atoms: C_22  and  O_23
REMARK   12  A    between atoms: O_23  and  C_24
REMARK                            x       y       z     vdW  Elec       q    Type
REMARK                         _______ _______ _______ _____ _____    ______ ____
ROOT
ATOM      1  C   UNL     1      50.033   7.619  15.623  0.00  0.00    +0.000 A 
ATOM      2  C   UNL     1      49.914   7.375  14.249  0.00  0.00    +0.000 A 
ATOM      3  C   UNL     1      48.785   7.808  13.547  0.00  0.00    +0.000 A 
ATOM      4  C   UNL     1      47.753   8.496  14.203  0.00  0.00    +0.000 A 
ATOM      5  C   UNL     1      47.869   8.734  15.577  0.00  0.00    +0.000 A 
ATOM      6  C   UNL     1      48.998   8.306  16.277  0.00  0.00    +0.000 A 
ENDROOT
BRANCH   1   7
ATOM      7  C   UNL     1      51.182   7.061  16.434  0.00  0.00    +0.000 C 
BRANCH   7   8
ATOM      8  N   UNL     1      51.148   5.608  16.601  0.00  0.00    +0.000 NA
ATOM      9  H   UNL     1      50.346   5.244  16.085  0.00  0.00    +0.000 HD
BRANCH   8  10
ATOM     10  C   UNL     1      50.953   5.192  18.015  0.00  0.00    +0.000 C 
BRANCH  10  11
ATOM     11  C   UNL     1      49.538   5.485  18.510  0.00  0.00    +0.000 A 
ATOM     12  C   UNL     1      49.346   6.379  19.575  0.00  0.00    +0.000 A 
ATOM     13  C   UNL     1      48.060   6.725  19.994  0.00  0.00    +0.000 A 
ATOM     14  C   UNL     1      46.946   6.190  19.351  0.00  0.00    +0.000 A 
ATOM     15  C   UNL     1      47.113   5.304  18.293  0.00  0.00    +0.000 A 
ATOM     16  C   UNL     1      48.398   4.951  17.881  0.00  0.00    +0.000 A 
ENDBRANCH  10  11
BRANCH  10  17
ATOM     17  C   UNL     1      51.414   3.737  18.308  0.00  0.00    +0.000 C 
BRANCH  17  19
ATOM     18  C   UNL     1      50.432   1.939  17.161  0.00  0.00    +0.000 C 
ATOM     19  O   UNL     1      51.438   2.947  17.111  0.00  0.00    +0.000 OA
ENDBRANCH  17  19
ENDBRANCH  10  17
ENDBRANCH   8  10
ENDBRANCH   7   8
ENDBRANCH   1   7
BRANCH   4  20
ATOM     20  C   UNL     1      46.514   8.919  13.462  0.00  0.00    +0.000 C 
BRANCH  20  21
ATOM     21  N   UNL     1      45.717   7.772  13.100  0.00  0.00    +0.000 N 
ATOM     22  C   UNL     1      44.883   7.790  12.012  0.00  0.00    +0.000 C 
ATOM     23  O   UNL     1      44.809   8.750  11.251  0.00  0.00    +0.000 OA
ATOM     24  H   UNL     1      45.672   7.005  13.759  0.00  0.00    +0.000 HD
BRANCH  22  25
ATOM     25  C   UNL     1      44.120   6.575  11.785  0.00  0.00    +0.000 A 
ATOM     26  C   UNL     1      42.852   6.574  11.233  0.00  0.00    +0.000 A 
ATOM     27  O   UNL     1      42.370   5.316  11.098  0.00  0.00    +0.000 OA
ATOM     28  C   UNL     1      43.317   4.472  11.591  0.00  0.00    +0.000 A 
ATOM     29  N   UNL     1      43.159   3.141  11.619  0.00  0.00    +0.000 NA
ATOM     30  C   UNL     1      44.215   2.530  12.164  0.00  0.00    +0.000 A 
ATOM     31  N   UNL     1      45.335   3.095  12.652  0.00  0.00    +0.000 NA
ATOM     32  C   UNL     1      45.438   4.439  12.598  0.00  0.00    +0.000 A 
ATOM     33  C   UNL     1      44.411   5.197  12.039  0.00  0.00    +0.000 A 
BRANCH  32  34
ATOM     34  O   UNL     1      46.561   5.070  13.093  0.00  0.00    +0.000 OA
ATOM     35  C   UNL     1      46.902   4.683  14.419  0.00  0.00    +0.000 C 
ENDBRANCH  32  34
ENDBRANCH  22  25
ENDBRANCH  20  21
ENDBRANCH   4  20
TORSDOF 10
ENDMDL
MODEL 7
REMARK VINA RESULT:    -6.188      1.799      2.582
REMARK INTER + INTRA:         -11.461
REMARK INTER:                 -10.406
REMARK INTRA:                  -1.055
REMARK UNBOUND:                -1.655
REMARK  Name = 
REMARK  12 active torsions:
REMARK  status: ('A' for Active; 'I' for Inactive)
REMARK    1  A    between atoms: C_1  and  O_2
REMARK    2  A    between atoms: O_2  and  C_3
REMARK    3  A    between atoms: C_3  and  C_4
REMARK    4  A    between atoms: C_4  and  N_5
REMARK    5  A    between atoms: C_4  and  C_28
REMARK    6  A    between atoms: N_5  and  C_6
REMARK    7  A    between atoms: C_6  and  C_7
REMARK    8  A    between atoms: C_10  and  C_11
REMARK    9  A    between atoms: C_11  and  N_12
REMARK   10  A    between atoms: C_13  and  C_15
REMARK   11  A    between atoms: C_22  and  O_23
REMARK   12  A    between atoms: O_23  and  C_24
REMARK                            x       y       z     vdW  Elec       q    Type
REMARK                         _______ _______ _______ _____ _____    ______ ____
ROOT
ATOM      1  C   UNL     1      45.687   4.440  13.222  0.00  0.00    +0.000 A 
ATOM      2  C   UNL     1      46.778   4.014  13.991  0.00  0.00    +0.000 A 
ATOM      3  C   UNL     1      47.754   4.927  14.403  0.00  0.00    +0.000 A 
ATOM      4  C   UNL     1      47.659   6.283  14.059  0.00  0.00    +0.000 A 
ATOM      5  C   UNL     1      46.573   6.707  13.284  0.00  0.00    +0.000 A 
ATOM      6  C   UNL     1      45.596   5.797  12.876  0.00  0.00    +0.000 A 
ENDROOT
BRANCH   1   7
ATOM      7  C   UNL     1      44.680   3.461  12.660  0.00  0.00    +0.000 C 
BRANCH   7   8
ATOM      8  N   UNL     1      45.080   2.852  11.391  0.00  0.00    +0.000 NA
ATOM      9  H   UNL     1      46.078   2.645  11.434  0.00  0.00    +0.000 HD
BRANCH   8  10
ATOM     10  C   UNL     1      44.896   3.761  10.229  0.00  0.00    +0.000 C 
BRANCH  10  11
ATOM     11  C   UNL     1      45.540   3.207   8.959  0.00  0.00    +0.000 A 
ATOM     12  C   UNL     1      46.019   4.092   7.981  0.00  0.00    +0.000 A 
ATOM     13  C   UNL     1      46.683   3.613   6.849  0.00  0.00    +0.000 A 
ATOM     14  C   UNL     1      46.885   2.245   6.681  0.00  0.00    +0.000 A 
ATOM     15  C   UNL     1      46.420   1.352   7.639  0.00  0.00    +0.000 A 
ATOM     16  C   UNL     1      45.748   1.829   8.765  0.00  0.00    +0.000 A 
ENDBRANCH  10  11
BRANCH  10  17
ATOM     17  C   UNL     1      43.426   4.219  10.019  0.00  0.00    +0.000 C 
BRANCH  17  19
ATOM     18  C   UNL     1      42.305   5.550  11.596  0.00  0.00    +0.000 C 
ATOM     19  O   UNL     1      43.223   5.553  10.506  0.00  0.00    +0.000 OA
ENDBRANCH  17  19
ENDBRANCH  10  17
ENDBRANCH   8  10
ENDBRANCH   7   8
ENDBRANCH   1   7
BRANCH   4  20
ATOM     20  C   UNL     1      48.733   7.259  14.456  0.00  0.00    +0.000 C 
BRANCH  20  21
ATOM     21  N   UNL     1      49.029   7.150  15.864  0.00  0.00    +0.000 N 
ATOM     22  C   UNL     1      50.313   6.996  16.320  0.00  0.00    +0.000 C 
ATOM     23  O   UNL     1      51.286   7.001  15.571  0.00  0.00    +0.000 OA
ATOM     24  H   UNL     1      48.249   7.037  16.501  0.00  0.00    +0.000 HD
BRANCH  22  25
ATOM     25  C   UNL     1      50.458   6.872  17.760  0.00  0.00    +0.000 A 
ATOM     26  C   UNL     1      51.287   7.690  18.506  0.00  0.00    +0.000 A 
ATOM     27  O   UNL     1      51.221   7.393  19.826  0.00  0.00    +0.000 OA
ATOM     28  C   UNL     1      50.358   6.347  19.955  0.00  0.00    +0.000 A 
ATOM     29  N   UNL     1      50.066   5.791  21.139  0.00  0.00    +0.000 NA
ATOM     30  C   UNL     1      49.211   4.772  21.008  0.00  0.00    +0.000 A 
ATOM     31  N   UNL     1      48.665   4.293  19.875  0.00  0.00    +0.000 NA
ATOM     32  C   UNL     1      48.996   4.893  18.712  0.00  0.00    +0.000 A 
ATOM     33  C   UNL     1      49.869   5.980  18.711  0.00  0.00    +0.000 A 
BRANCH  32  34
ATOM     34  O   UNL     1      48.471   4.436  17.521  0.00  0.00    +0.000 OA
ATOM     35  C   UNL     1      48.019   3.088  17.570  0.00  0.00    +0.000 C 
ENDBRANCH  32  34
ENDBRANCH  22  25
ENDBRANCH  20  21
ENDBRANCH   4  20
TORSDOF 10
ENDMDL
MODEL 8
REMARK VINA RESULT:    -6.056      3.189      8.274
REMARK INTER + INTRA:         -11.251
REMARK INTER:                  -9.256
REMARK INTRA:                  -1.995
REMARK UNBOUND:                -1.655
REMARK  Name = 
REMARK  12 active torsions:
REMARK  status: ('A' for Active; 'I' for Inactive)
REMARK    1  A    between atoms: C_1  and  O_2
REMARK    2  A    between atoms: O_2  and  C_3
REMARK    3  A    between atoms: C_3  and  C_4
REMARK    4  A    between atoms: C_4  and  N_5
REMARK    5  A    between atoms: C_4  and  C_28
REMARK    6  A    between atoms: N_5  and  C_6
REMARK    7  A    between atoms: C_6  and  C_7
REMARK    8  A    between atoms: C_10  and  C_11
REMARK    9  A    between atoms: C_11  and  N_12
REMARK   10  A    between atoms: C_13  and  C_15
REMARK   11  A    between atoms: C_22  and  O_23
REMARK   12  A    between atoms: O_23  and  C_24
REMARK                            x       y       z     vdW  Elec       q    Type
REMARK                         _______ _______ _______ _____ _____    ______ ____
ROOT
ATOM      1  C   UNL     1      49.729   7.867  15.826  0.00  0.00    +0.000 A 
ATOM      2  C   UNL     1      50.298   7.414  14.629  0.00  0.00    +0.000 A 
ATOM      3  C   UNL     1      49.670   7.665  13.405  0.00  0.00    +0.000 A 
ATOM      4  C   UNL     1      48.463   8.376  13.351  0.00  0.00    +0.000 A 
ATOM      5  C   UNL     1      47.890   8.823  14.548  0.00  0.00    +0.000 A 
ATOM      6  C   UNL     1      48.519   8.576  15.770  0.00  0.00    +0.000 A 
ENDROOT
BRANCH   1   7
ATOM      7  C   UNL     1      50.317   7.510  17.173  0.00  0.00    +0.000 C 
BRANCH   7   8
ATOM      8  N   UNL     1      49.339   7.454  18.259  0.00  0.00    +0.000 NA
ATOM      9  H   UNL     1      49.516   8.234  18.892  0.00  0.00    +0.000 HD
BRANCH   8  10
ATOM     10  C   UNL     1      49.456   6.220  19.080  0.00  0.00    +0.000 C 
BRANCH  10  11
ATOM     11  C   UNL     1      49.016   4.975  18.313  0.00  0.00    +0.000 A 
ATOM     12  C   UNL     1      49.972   4.022  17.929  0.00  0.00    +0.000 A 
ATOM     13  C   UNL     1      49.586   2.837  17.297  0.00  0.00    +0.000 A 
ATOM     14  C   UNL     1      48.239   2.584  17.046  0.00  0.00    +0.000 A 
ATOM     15  C   UNL     1      47.276   3.513  17.420  0.00  0.00    +0.000 A 
ATOM     16  C   UNL     1      47.662   4.701  18.042  0.00  0.00    +0.000 A 
ENDBRANCH  10  11
BRANCH  10  17
ATOM     17  C   UNL     1      50.838   6.057  19.770  0.00  0.00    +0.000 C 
BRANCH  17  19
ATOM     18  C   UNL     1      52.364   7.707  20.450  0.00  0.00    +0.000 C 
ATOM     19  O   UNL     1      51.088   7.123  20.697  0.00  0.00    +0.000 OA
ENDBRANCH  17  19
ENDBRANCH  10  17
ENDBRANCH   8  10
ENDBRANCH   7   8
ENDBRANCH   1   7
BRANCH   4  20
ATOM     20  C   UNL     1      47.757   8.604  12.042  0.00  0.00    +0.000 C 
BRANCH  20  21
ATOM     21  N   UNL     1      46.738   7.607  11.828  0.00  0.00    +0.000 N 
ATOM     22  C   UNL     1      45.404   7.910  11.917  0.00  0.00    +0.000 C 
ATOM     23  O   UNL     1      44.997   9.049  12.122  0.00  0.00    +0.000 OA
ATOM     24  H   UNL     1      47.033   6.640  11.761  0.00  0.00    +0.000 HD
BRANCH  22  25
ATOM     25  C   UNL     1      44.492   6.800  11.705  0.00  0.00    +0.000 A 
ATOM     26  C   UNL     1      43.215   6.961  11.196  0.00  0.00    +0.000 A 
ATOM     27  O   UNL     1      42.579   5.772  11.065  0.00  0.00    +0.000 OA
ATOM     28  C   UNL     1      43.432   4.813  11.518  0.00  0.00    +0.000 A 
ATOM     29  N   UNL     1      43.114   3.511  11.539  0.00  0.00    +0.000 NA
ATOM     30  C   UNL     1      44.105   2.768  12.043  0.00  0.00    +0.000 A 
ATOM     31  N   UNL     1      45.300   3.187  12.498  0.00  0.00    +0.000 NA
ATOM     32  C   UNL     1      45.565   4.509  12.453  0.00  0.00    +0.000 A 
ATOM     33  C   UNL     1      44.620   5.394  11.935  0.00  0.00    +0.000 A 
BRANCH  32  34
ATOM     34  O   UNL     1      46.772   4.991  12.915  0.00  0.00    +0.000 OA
ATOM     35  C   UNL     1      46.930   4.893  14.325  0.00  0.00    +0.000 C 
ENDBRANCH  32  34
ENDBRANCH  22  25
ENDBRANCH  20  21
ENDBRANCH   4  20
TORSDOF 10
ENDMDL
MODEL 9
REMARK VINA RESULT:    -5.921      2.057      2.570
REMARK INTER + INTRA:         -11.037
REMARK INTER:                 -10.035
REMARK INTRA:                  -1.002
REMARK UNBOUND:                -1.655
REMARK  Name = 
REMARK  12 active torsions:
REMARK  status: ('A' for Active; 'I' for Inactive)
REMARK    1  A    between atoms: C_1  and  O_2
REMARK    2  A    between atoms: O_2  and  C_3
REMARK    3  A    between atoms: C_3  and  C_4
REMARK    4  A    between atoms: C_4  and  N_5
REMARK    5  A    between atoms: C_4  and  C_28
REMARK    6  A    between atoms: N_5  and  C_6
REMARK    7  A    between atoms: C_6  and  C_7
REMARK    8  A    between atoms: C_10  and  C_11
REMARK    9  A    between atoms: C_11  and  N_12
REMARK   10  A    between atoms: C_13  and  C_15
REMARK   11  A    between atoms: C_22  and  O_23
REMARK   12  A    between atoms: O_23  and  C_24
REMARK                            x       y       z     vdW  Elec       q    Type
REMARK                         _______ _______ _______ _____ _____    ______ ____
ROOT
ATOM      1  C   UNL     1      46.528   7.428  12.445  0.00  0.00    +0.000 A 
ATOM      2  C   UNL     1      47.501   6.562  12.960  0.00  0.00    +0.000 A 
ATOM      3  C   UNL     1      48.469   7.033  13.853  0.00  0.00    +0.000 A 
ATOM      4  C   UNL     1      48.482   8.378  14.253  0.00  0.00    +0.000 A 
ATOM      5  C   UNL     1      47.514   9.245  13.732  0.00  0.00    +0.000 A 
ATOM      6  C   UNL     1      46.545   8.774  12.845  0.00  0.00    +0.000 A 
ENDROOT
BRANCH   1   7
ATOM      7  C   UNL     1      45.543   6.981  11.388  0.00  0.00    +0.000 C 
BRANCH   7   8
ATOM      8  N   UNL     1      46.016   5.871  10.560  0.00  0.00    +0.000 NA
ATOM      9  H   UNL     1      46.285   6.242   9.648  0.00  0.00    +0.000 HD
BRANCH   8  10
ATOM     10  C   UNL     1      44.964   4.854  10.299  0.00  0.00    +0.000 C 
BRANCH  10  11
ATOM     11  C   UNL     1      45.388   3.850   9.228  0.00  0.00    +0.000 A 
ATOM     12  C   UNL     1      46.016   4.306   8.058  0.00  0.00    +0.000 A 
ATOM     13  C   UNL     1      46.485   3.404   7.101  0.00  0.00    +0.000 A 
ATOM     14  C   UNL     1      46.341   2.033   7.301  0.00  0.00    +0.000 A 
ATOM     15  C   UNL     1      45.725   1.560   8.453  0.00  0.00    +0.000 A 
ATOM     16  C   UNL     1      45.248   2.461   9.405  0.00  0.00    +0.000 A 
ENDBRANCH  10  11
BRANCH  10  17
ATOM     17  C   UNL     1      44.413   4.179  11.585  0.00  0.00    +0.000 C 
BRANCH  17  19
ATOM     18  C   UNL     1      42.391   5.355  11.791  0.00  0.00    +0.000 C 
ATOM     19  O   UNL     1      43.665   5.108  12.381  0.00  0.00    +0.000 OA
ENDBRANCH  17  19
ENDBRANCH  10  17
ENDBRANCH   8  10
ENDBRANCH   7   8
ENDBRANCH   1   7
BRANCH   4  20
ATOM     20  C   UNL     1      49.551   8.900  15.173  0.00  0.00    +0.000 C 
BRANCH  20  21
ATOM     21  N   UNL     1      49.477   8.258  16.462  0.00  0.00    +0.000 N 
ATOM     22  C   UNL     1      48.608   8.688  17.432  0.00  0.00    +0.000 C 
ATOM     23  O   UNL     1      47.805   9.597  17.244  0.00  0.00    +0.000 OA
ATOM     24  H   UNL     1      50.192   7.578  16.690  0.00  0.00    +0.000 HD
BRANCH  22  25
ATOM     25  C   UNL     1      48.663   7.965  18.690  0.00  0.00    +0.000 A 
ATOM     26  C   UNL     1      48.783   8.595  19.916  0.00  0.00    +0.000 A 
ATOM     27  O   UNL     1      48.780   7.703  20.935  0.00  0.00    +0.000 OA
ATOM     28  C   UNL     1      48.685   6.464  20.379  0.00  0.00    +0.000 A 
ATOM     29  N   UNL     1      48.665   5.341  21.111  0.00  0.00    +0.000 NA
ATOM     30  C   UNL     1      48.585   4.252  20.340  0.00  0.00    +0.000 A 
ATOM     31  N   UNL     1      48.531   4.193  18.997  0.00  0.00    +0.000 NA
ATOM     32  C   UNL     1      48.555   5.356  18.313  0.00  0.00    +0.000 A 
ATOM     33  C   UNL     1      48.622   6.568  18.998  0.00  0.00    +0.000 A 
BRANCH  32  34
ATOM     34  O   UNL     1      48.511   5.352  16.934  0.00  0.00    +0.000 OA
ATOM     35  C   UNL     1      47.584   4.419  16.391  0.00  0.00    +0.000 C 
ENDBRANCH  32  34
ENDBRANCH  22  25
ENDBRANCH  20  21
ENDBRANCH   4  20
TORSDOF 10
ENDMDL
