MODEL 1
REMARK VINA RESULT:    -6.743      0.000      0.000
REMARK INTER + INTRA:         -11.315
REMARK INTER:                  -9.699
REMARK INTRA:                  -1.616
REMARK UNBOUND:                -1.616
REMARK  Name = 
REMARK  12 active torsions:
REMARK  status: ('A' for Active; 'I' for Inactive)
REMARK    1  A    between atoms: C_1  and  O_2
REMARK    2  A    between atoms: O_2  and  C_3
REMARK    3  A    between atoms: C_5  and  C_6
REMARK    4  A    between atoms: C_6  and  C_7
REMARK    5  A    between atoms: C_6  and  C_8
REMARK    6  A    between atoms: C_6  and  C_9
REMARK    7  A    between atoms: C_9  and  N_10
REMARK    8  A    between atoms: N_10  and  C_11
REMARK    9  A    between atoms: C_16  and  C_17
REMARK   10  A    between atoms: C_28  and  O_29
REMARK   11  A    between atoms: O_29  and  C_30
REMARK   12  A    between atoms: C_31  and  O_32
REMARK                            x       y       z     vdW  Elec       q    Type
REMARK                         _______ _______ _______ _____ _____    ______ ____
ROOT
ATOM      1  N   UNL     1      49.553   7.929  15.160  0.00  0.00    +0.000 N 
ATOM      2  H   UNL     1      50.256   8.662  15.228  0.00  0.00    +0.000 HD
ENDROOT
BRANCH   1   3
ATOM      3  C   UNL     1      49.482   7.198  16.353  0.00  0.00    +0.000 A 
ATOM      4  C   UNL     1      48.565   7.473  17.375  0.00  0.00    +0.000 A 
ATOM      5  C   UNL     1      48.499   6.688  18.527  0.00  0.00    +0.000 A 
ATOM      6  C   UNL     1      49.330   5.580  18.664  0.00  0.00    +0.000 A 
ATOM      7 CL   UNL     1      49.189   4.647  20.114  0.00  0.00    +0.000 Cl
ATOM      8  C   UNL     1      50.235   5.246  17.645  0.00  0.00    +0.000 A 
ATOM      9  C   UNL     1      50.300   6.064  16.498  0.00  0.00    +0.000 A 
BRANCH   8  10
ATOM     10  C   UNL     1      51.094   4.055  17.712  0.00  0.00    +0.000 C 
ATOM     11  C   UNL     1      50.623   2.843  17.366  0.00  0.00    +0.000 C 
ATOM     12  C   UNL     1      51.429   1.574  17.417  0.00  0.00    +0.000 C 
ATOM     13  N   UNL     1      52.827   1.837  17.749  0.00  0.00    +0.000 N 
ATOM     14  C   UNL     1      53.888   1.034  17.411  0.00  0.00    +0.000 C 
ATOM     15  N   UNL     1      53.617  -0.081  16.694  0.00  0.00    +0.000 N 
ATOM     16  O   UNL     1      55.051   1.245  17.742  0.00  0.00    +0.000 OA
ATOM     17  C   UNL     1      53.055   2.897  18.732  0.00  0.00    +0.000 C 
ATOM     18  C   UNL     1      52.493   4.231  18.238  0.00  0.00    +0.000 C 
ATOM     19  H   UNL     1      52.851  -0.105  16.043  0.00  0.00    +0.000 HD
ATOM     20  H   UNL     1      54.454  -0.561  16.383  0.00  0.00    +0.000 HD
ENDBRANCH   8  10
ENDBRANCH   1   3
BRANCH   1  21
ATOM     21  C   UNL     1      48.297   8.340  14.521  0.00  0.00    +0.000 C 
BRANCH  21  22
ATOM     22  C   UNL     1      48.121   7.870  13.046  0.00  0.00    +0.000 C 
ATOM     23  C   UNL     1      49.518   7.649  12.424  0.00  0.00    +0.000 C 
ATOM     24  C   UNL     1      47.361   8.960  12.259  0.00  0.00    +0.000 C 
BRANCH  22  27
ATOM     25  C   UNL     1      45.642   5.088  11.889  0.00  0.00    +0.000 A 
ATOM     26  C   UNL     1      46.352   6.296  11.950  0.00  0.00    +0.000 A 
ATOM     27  C   UNL     1      47.316   6.541  12.953  0.00  0.00    +0.000 A 
ATOM     28  C   UNL     1      47.545   5.525  13.904  0.00  0.00    +0.000 A 
ATOM     29  C   UNL     1      46.849   4.313  13.859  0.00  0.00    +0.000 A 
ATOM     30  C   UNL     1      45.903   4.110  12.850  0.00  0.00    +0.000 A 
BRANCH  25  32
ATOM     31  C   UNL     1      43.425   5.406  11.051  0.00  0.00    +0.000 C 
ATOM     32  O   UNL     1      44.695   4.781  10.946  0.00  0.00    +0.000 OA
ENDBRANCH  25  32
BRANCH  29  33
ATOM     33  O   UNL     1      47.008   3.267  14.735  0.00  0.00    +0.000 OA
ATOM     34  C   UNL     1      47.295   3.609  16.086  0.00  0.00    +0.000 C 
ENDBRANCH  29  33
BRANCH  30  35
ATOM     35  O   UNL     1      45.221   2.917  12.813  0.00  0.00    +0.000 OA
ATOM     36  H   UNL     1      44.315   3.150  12.536  0.00  0.00    +0.000 HD
ENDBRANCH  30  35
ENDBRANCH  22  27
ENDBRANCH  21  22
ENDBRANCH   1  21
TORSDOF 8
ENDMDL
MODEL 2
REMARK VINA RESULT:    -6.669      0.252      2.211
REMARK INTER + INTRA:         -11.209
REMARK INTER:                  -9.783
REMARK INTRA:                  -1.426
REMARK UNBOUND:                -1.616
REMARK  Name = 
REMARK  12 active torsions:
REMARK  status: ('A' for Active; 'I' for Inactive)
REMARK    1  A    between atoms: C_1  and  O_2
REMARK    2  A    between atoms: O_2  and  C_3
REMARK    3  A    between atoms: C_5  and  C_6
REMARK    4  A    between atoms: C_6  and  C_7
REMARK    5  A    between atoms: C_6  and  C_8
REMARK    6  A    between atoms: C_6  and  C_9
REMARK    7  A    between atoms: C_9  and  N_10
REMARK    8  A    between atoms: N_10  and  C_11
REMARK    9  A    between atoms: C_16  and  C_17
REMARK   10  A    between atoms: C_28  and  O_29
REMARK   11  A    between atoms: O_29  and  C_30
REMARK   12  A    between atoms: C_31  and  O_32
REMARK                            x       y       z     vdW  Elec       q    Type
REMARK                         _______ _______ _______ _____ _____    ______ ____
ROOT
ATOM      1  N   UNL     1      49.515   7.898  14.839  0.00  0.00    +0.000 N 
ATOM      2  H   UNL     1      50.295   8.547  14.766  0.00  0.00    +0.000 HD
ENDROOT
BRANCH   1   3
ATOM      3  C   UNL     1      49.504   7.275  16.095  0.00  0.00    +0.000 A 
ATOM      4  C   UNL     1      48.663   7.666  17.144  0.00  0.00    +0.000 A 
ATOM      5  C   UNL     1      48.653   6.987  18.363  0.00  0.00    +0.000 A 
ATOM      6  C   UNL     1      49.464   5.870  18.545  0.00  0.00    +0.000 A 
ATOM      7 CL   UNL     1      49.395   5.072  20.078  0.00  0.00    +0.000 Cl
ATOM      8  C   UNL     1      50.292   5.422  17.505  0.00  0.00    +0.000 A 
ATOM      9  C   UNL     1      50.301   6.135  16.288  0.00  0.00    +0.000 A 
BRANCH   8  10
ATOM     10  C   UNL     1      51.124   4.216  17.624  0.00  0.00    +0.000 C 
ATOM     11  C   UNL     1      50.614   2.997  17.368  0.00  0.00    +0.000 C 
ATOM     12  C   UNL     1      51.391   1.714  17.477  0.00  0.00    +0.000 C 
ATOM     13  N   UNL     1      52.804   1.961  17.753  0.00  0.00    +0.000 N 
ATOM     14  C   UNL     1      53.836   1.112  17.437  0.00  0.00    +0.000 C 
ATOM     15  N   UNL     1      53.517  -0.039  16.799  0.00  0.00    +0.000 N 
ATOM     16  O   UNL     1      55.012   1.312  17.722  0.00  0.00    +0.000 OA
ATOM     17  C   UNL     1      53.086   3.074  18.660  0.00  0.00    +0.000 C 
ATOM     18  C   UNL     1      52.542   4.389  18.099  0.00  0.00    +0.000 C 
ATOM     19  H   UNL     1      52.732  -0.084  16.172  0.00  0.00    +0.000 HD
ATOM     20  H   UNL     1      54.333  -0.558  16.497  0.00  0.00    +0.000 HD
ENDBRANCH   8  10
ENDBRANCH   1   3
BRANCH   1  21
ATOM     21  C   UNL     1      48.244   8.400  14.302  0.00  0.00    +0.000 C 
BRANCH  21  22
ATOM     22  C   UNL     1      47.907   7.930  12.855  0.00  0.00    +0.000 C 
ATOM     23  C   UNL     1      49.219   7.843  12.041  0.00  0.00    +0.000 C 
ATOM     24  C   UNL     1      46.951   8.954  12.204  0.00  0.00    +0.000 C 
BRANCH  22  27
ATOM     25  C   UNL     1      46.921   4.254  13.713  0.00  0.00    +0.000 A 
ATOM     26  C   UNL     1      47.560   5.501  13.744  0.00  0.00    +0.000 A 
ATOM     27  C   UNL     1      47.218   6.534  12.844  0.00  0.00    +0.000 A 
ATOM     28  C   UNL     1      46.204   6.272  11.899  0.00  0.00    +0.000 A 
ATOM     29  C   UNL     1      45.552   5.035  11.853  0.00  0.00    +0.000 A 
ATOM     30  C   UNL     1      45.922   4.039  12.762  0.00  0.00    +0.000 A 
BRANCH  25  32
ATOM     31  C   UNL     1      47.488   3.505  15.912  0.00  0.00    +0.000 C 
ATOM     32  O   UNL     1      47.199   3.208  14.554  0.00  0.00    +0.000 OA
ENDBRANCH  25  32
BRANCH  29  33
ATOM     33  O   UNL     1      44.554   4.690  10.976  0.00  0.00    +0.000 OA
ATOM     34  C   UNL     1      43.306   5.354  11.143  0.00  0.00    +0.000 C 
ENDBRANCH  29  33
BRANCH  30  35
ATOM     35  O   UNL     1      45.279   2.824  12.710  0.00  0.00    +0.000 OA
ATOM     36  H   UNL     1      44.401   2.983  13.104  0.00  0.00    +0.000 HD
ENDBRANCH  30  35
ENDBRANCH  22  27
ENDBRANCH  21  22
ENDBRANCH   1  21
TORSDOF 8
ENDMDL
MODEL 3
REMARK VINA RESULT:    -6.551      3.601      7.524
REMARK INTER + INTRA:         -11.039
REMARK INTER:                  -9.499
REMARK INTRA:                  -1.539
REMARK UNBOUND:                -1.616
REMARK  Name = 
REMARK  12 active torsions:
REMARK  status: ('A' for Active; 'I' for Inactive)
REMARK    1  A    between atoms: C_1  and  O_2
REMARK    2  A    between atoms: O_2  and  C_3
REMARK    3  A    between atoms: C_5  and  C_6
REMARK    4  A    between atoms: C_6  and  C_7
REMARK    5  A    between atoms: C_6  and  C_8
REMARK    6  A    between atoms: C_6  and  C_9
REMARK    7  A    between atoms: C_9  and  N_10
REMARK    8  A    between atoms: N_10  and  C_11
REMARK    9  A    between atoms: C_16  and  C_17
REMARK   10  A    between atoms: C_28  and  O_29
REMARK   11  A    between atoms: O_29  and  C_30
REMARK   12  A    between atoms: C_31  and  O_32
REMARK                            x       y       z     vdW  Elec       q    Type
REMARK                         _______ _______ _______ _____ _____    ______ ____
ROOT
ATOM      1  N   UNL     1      50.514   7.415  14.200  0.00  0.00    +0.000 N 
ATOM      2  H   UNL     1      50.483   6.409  14.356  0.00  0.00    +0.000 HD
ENDROOT
BRANCH   1   3
ATOM      3  C   UNL     1      49.283   7.879  13.716  0.00  0.00    +0.000 A 
ATOM      4  C   UNL     1      48.982   9.235  13.542  0.00  0.00    +0.000 A 
ATOM      5  C   UNL     1      47.759   9.650  13.012  0.00  0.00    +0.000 A 
ATOM      6  C   UNL     1      46.819   8.706  12.608  0.00  0.00    +0.000 A 
ATOM      7 CL   UNL     1      45.329   9.290  11.954  0.00  0.00    +0.000 Cl
ATOM      8  C   UNL     1      47.098   7.336  12.729  0.00  0.00    +0.000 A 
ATOM      9  C   UNL     1      48.331   6.939  13.285  0.00  0.00    +0.000 A 
BRANCH   8  10
ATOM     10  C   UNL     1      46.165   6.298  12.265  0.00  0.00    +0.000 C 
ATOM     11  C   UNL     1      46.076   5.984  10.959  0.00  0.00    +0.000 C 
ATOM     12  C   UNL     1      45.143   4.946  10.399  0.00  0.00    +0.000 C 
ATOM     13  N   UNL     1      44.448   4.219  11.460  0.00  0.00    +0.000 N 
ATOM     14  C   UNL     1      43.937   2.949  11.348  0.00  0.00    +0.000 C 
ATOM     15  N   UNL     1      44.110   2.313  10.166  0.00  0.00    +0.000 N 
ATOM     16  O   UNL     1      43.311   2.372  12.233  0.00  0.00    +0.000 OA
ATOM     17  C   UNL     1      44.054   5.017  12.621  0.00  0.00    +0.000 C 
ATOM     18  C   UNL     1      45.275   5.649  13.290  0.00  0.00    +0.000 C 
ATOM     19  H   UNL     1      44.920   2.488   9.597  0.00  0.00    +0.000 HD
ATOM     20  H   UNL     1      43.812   1.345  10.194  0.00  0.00    +0.000 HD
ENDBRANCH   8  10
ENDBRANCH   1   3
BRANCH   1  21
ATOM     21  C   UNL     1      51.176   8.182  15.262  0.00  0.00    +0.000 C 
BRANCH  21  22
ATOM     22  C   UNL     1      51.372   7.416  16.605  0.00  0.00    +0.000 C 
ATOM     23  C   UNL     1      51.948   8.393  17.656  0.00  0.00    +0.000 C 
ATOM     24  C   UNL     1      52.357   6.248  16.377  0.00  0.00    +0.000 C 
BRANCH  22  27
ATOM     25  C   UNL     1      48.300   5.092  17.223  0.00  0.00    +0.000 A 
ATOM     26  C   UNL     1      49.509   5.592  16.721  0.00  0.00    +0.000 A 
ATOM     27  C   UNL     1      50.032   6.835  17.142  0.00  0.00    +0.000 A 
ATOM     28  C   UNL     1      49.292   7.568  18.093  0.00  0.00    +0.000 A 
ATOM     29  C   UNL     1      48.085   7.085  18.609  0.00  0.00    +0.000 A 
ATOM     30  C   UNL     1      47.603   5.851  18.164  0.00  0.00    +0.000 A 
BRANCH  25  32
ATOM     31  C   UNL     1      48.543   2.731  16.930  0.00  0.00    +0.000 C 
ATOM     32  O   UNL     1      47.735   3.896  16.862  0.00  0.00    +0.000 OA
ENDBRANCH  25  32
BRANCH  29  33
ATOM     33  O   UNL     1      47.301   7.723  19.538  0.00  0.00    +0.000 OA
ATOM     34  C   UNL     1      47.293   9.146  19.493  0.00  0.00    +0.000 C 
ENDBRANCH  29  33
BRANCH  30  35
ATOM     35  O   UNL     1      46.414   5.383  18.673  0.00  0.00    +0.000 OA
ATOM     36  H   UNL     1      46.587   5.225  19.620  0.00  0.00    +0.000 HD
ENDBRANCH  30  35
ENDBRANCH  22  27
ENDBRANCH  21  22
ENDBRANCH   1  21
TORSDOF 8
ENDMDL
MODEL 4
REMARK VINA RESULT:    -6.516      3.542      7.571
REMARK INTER + INTRA:         -10.988
REMARK INTER:                  -9.416
REMARK INTRA:                  -1.572
REMARK UNBOUND:                -1.616
REMARK  Name = 
REMARK  12 active torsions:
REMARK  status: ('A' for Active; 'I' for Inactive)
REMARK    1  A    between atoms: C_1  and  O_2
REMARK    2  A    between atoms: O_2  and  C_3
REMARK    3  A    between atoms: C_5  and  C_6
REMARK    4  A    between atoms: C_6  and  C_7
REMARK    5  A    between atoms: C_6  and  C_8
REMARK    6  A    between atoms: C_6  and  C_9
REMARK    7  A    between atoms: C_9  and  N_10
REMARK    8  A    between atoms: N_10  and  C_11
REMARK    9  A    between atoms: C_16  and  C_17
REMARK   10  A    between atoms: C_28  and  O_29
REMARK   11  A    between atoms: O_29  and  C_30
REMARK   12  A    between atoms: C_31  and  O_32
REMARK                            x       y       z     vdW  Elec       q    Type
REMARK                         _______ _______ _______ _____ _____    ______ ____
ROOT
ATOM      1  N   UNL     1      50.443   7.400  14.204  0.00  0.00    +0.000 N 
ATOM      2  H   UNL     1      50.425   6.397  14.377  0.00  0.00    +0.000 HD
ENDROOT
BRANCH   1   3
ATOM      3  C   UNL     1      49.185   7.853  13.785  0.00  0.00    +0.000 A 
ATOM      4  C   UNL     1      48.832   9.206  13.722  0.00  0.00    +0.000 A 
ATOM      5  C   UNL     1      47.583   9.614  13.253  0.00  0.00    +0.000 A 
ATOM      6  C   UNL     1      46.667   8.669  12.798  0.00  0.00    +0.000 A 
ATOM      7 CL   UNL     1      45.141   9.246  12.224  0.00  0.00    +0.000 Cl
ATOM      8  C   UNL     1      46.997   7.306  12.808  0.00  0.00    +0.000 A 
ATOM      9  C   UNL     1      48.257   6.914  13.304  0.00  0.00    +0.000 A 
BRANCH   8  10
ATOM     10  C   UNL     1      46.090   6.272  12.286  0.00  0.00    +0.000 C 
ATOM     11  C   UNL     1      46.077   5.962  10.976  0.00  0.00    +0.000 C 
ATOM     12  C   UNL     1      45.175   4.929  10.359  0.00  0.00    +0.000 C 
ATOM     13  N   UNL     1      44.417   4.201  11.374  0.00  0.00    +0.000 N 
ATOM     14  C   UNL     1      43.910   2.933  11.229  0.00  0.00    +0.000 C 
ATOM     15  N   UNL     1      44.151   2.299  10.057  0.00  0.00    +0.000 N 
ATOM     16  O   UNL     1      43.232   2.355  12.073  0.00  0.00    +0.000 OA
ATOM     17  C   UNL     1      43.958   4.997  12.513  0.00  0.00    +0.000 C 
ATOM     18  C   UNL     1      45.140   5.622  13.255  0.00  0.00    +0.000 C 
ATOM     19  H   UNL     1      44.994   2.474   9.537  0.00  0.00    +0.000 HD
ATOM     20  H   UNL     1      43.849   1.333  10.064  0.00  0.00    +0.000 HD
ENDBRANCH   8  10
ENDBRANCH   1   3
BRANCH   1  21
ATOM     21  C   UNL     1      51.163   8.185  15.214  0.00  0.00    +0.000 C 
BRANCH  21  22
ATOM     22  C   UNL     1      51.391   7.460  16.575  0.00  0.00    +0.000 C 
ATOM     23  C   UNL     1      51.991   8.467  17.582  0.00  0.00    +0.000 C 
ATOM     24  C   UNL     1      52.369   6.285  16.359  0.00  0.00    +0.000 C 
BRANCH  22  27
ATOM     25  C   UNL     1      48.030   7.112  18.527  0.00  0.00    +0.000 A 
ATOM     26  C   UNL     1      49.222   7.644  18.015  0.00  0.00    +0.000 A 
ATOM     27  C   UNL     1      50.063   6.897  17.161  0.00  0.00    +0.000 A 
ATOM     28  C   UNL     1      49.667   5.583  16.836  0.00  0.00    +0.000 A 
ATOM     29  C   UNL     1      48.481   5.034  17.335  0.00  0.00    +0.000 A 
ATOM     30  C   UNL     1      47.677   5.808  18.177  0.00  0.00    +0.000 A 
BRANCH  25  32
ATOM     31  C   UNL     1      47.626   8.126  20.654  0.00  0.00    +0.000 C 
ATOM     32  O   UNL     1      47.166   7.778  19.357  0.00  0.00    +0.000 OA
ENDBRANCH  25  32
BRANCH  29  33
ATOM     33  O   UNL     1      48.012   3.771  17.071  0.00  0.00    +0.000 OA
ATOM     34  C   UNL     1      48.961   2.713  17.144  0.00  0.00    +0.000 C 
ENDBRANCH  29  33
BRANCH  30  35
ATOM     35  O   UNL     1      46.513   5.262  18.666  0.00  0.00    +0.000 OA
ATOM     36  H   UNL     1      46.515   4.338  18.355  0.00  0.00    +0.000 HD
ENDBRANCH  30  35
ENDBRANCH  22  27
ENDBRANCH  21  22
ENDBRANCH   1  21
TORSDOF 8
ENDMDL
MODEL 5
REMARK VINA RESULT:    -6.415      5.125      7.082
REMARK INTER + INTRA:         -10.844
REMARK INTER:                  -9.802
REMARK INTRA:                  -1.042
REMARK UNBOUND:                -1.616
REMARK  Name = 
REMARK  12 active torsions:
REMARK  status: ('A' for Active; 'I' for Inactive)
REMARK    1  A    between atoms: C_1  and  O_2
REMARK    2  A    between atoms: O_2  and  C_3
REMARK    3  A    between atoms: C_5  and  C_6
REMARK    4  A    between atoms: C_6  and  C_7
REMARK    5  A    between atoms: C_6  and  C_8
REMARK    6  A    between atoms: C_6  and  C_9
REMARK    7  A    between atoms: C_9  and  N_10
REMARK    8  A    between atoms: N_10  and  C_11
REMARK    9  A    between atoms: C_16  and  C_17
REMARK   10  A    between atoms: C_28  and  O_29
REMARK   11  A    between atoms: O_29  and  C_30
REMARK   12  A    between atoms: C_31  and  O_32
REMARK                            x       y       z     vdW  Elec       q    Type
REMARK                         _______ _______ _______ _____ _____    ______ ____
ROOT
ATOM      1  N   UNL     1      49.592   7.865  12.151  0.00  0.00    +0.000 N 
ATOM      2  H   UNL     1      49.666   6.860  12.292  0.00  0.00    +0.000 HD
ENDROOT
BRANCH   1   3
ATOM      3  C   UNL     1      50.612   8.323  11.306  0.00  0.00    +0.000 A 
ATOM      4  C   UNL     1      51.015   9.663  11.237  0.00  0.00    +0.000 A 
ATOM      5  C   UNL     1      52.069  10.066  10.415  0.00  0.00    +0.000 A 
ATOM      6  C   UNL     1      52.771   9.124   9.669  0.00  0.00    +0.000 A 
ATOM      7 CL   UNL     1      54.069   9.693   8.679  0.00  0.00    +0.000 Cl
ATOM      8  C   UNL     1      52.424   7.766   9.742  0.00  0.00    +0.000 A 
ATOM      9  C   UNL     1      51.344   7.383  10.562  0.00  0.00    +0.000 A 
BRANCH   8  10
ATOM     10  C   UNL     1      53.169   6.724   9.020  0.00  0.00    +0.000 C 
ATOM     11  C   UNL     1      54.171   6.052   9.617  0.00  0.00    +0.000 C 
ATOM     12  C   UNL     1      54.989   4.981   8.949  0.00  0.00    +0.000 C 
ATOM     13  N   UNL     1      54.472   4.657   7.622  0.00  0.00    +0.000 N 
ATOM     14  C   UNL     1      54.644   3.460   6.972  0.00  0.00    +0.000 C 
ATOM     15  N   UNL     1      55.333   2.494   7.626  0.00  0.00    +0.000 N 
ATOM     16  O   UNL     1      54.246   3.222   5.836  0.00  0.00    +0.000 OA
ATOM     17  C   UNL     1      53.964   5.790   6.847  0.00  0.00    +0.000 C 
ATOM     18  C   UNL     1      52.812   6.480   7.578  0.00  0.00    +0.000 C 
ATOM     19  H   UNL     1      55.303   2.426   8.629  0.00  0.00    +0.000 HD
ATOM     20  H   UNL     1      55.321   1.607   7.139  0.00  0.00    +0.000 HD
ENDBRANCH   8  10
ENDBRANCH   1   3
BRANCH   1  21
ATOM     21  C   UNL     1      48.227   8.354  11.920  0.00  0.00    +0.000 C 
BRANCH  21  22
ATOM     22  C   UNL     1      47.201   7.999  13.037  0.00  0.00    +0.000 C 
ATOM     23  C   UNL     1      45.982   8.940  12.912  0.00  0.00    +0.000 C 
ATOM     24  C   UNL     1      47.873   8.189  14.415  0.00  0.00    +0.000 C 
BRANCH  22  27
ATOM     25  C   UNL     1      45.301   4.778  11.924  0.00  0.00    +0.000 A 
ATOM     26  C   UNL     1      45.724   6.112  12.003  0.00  0.00    +0.000 A 
ATOM     27  C   UNL     1      46.710   6.526  12.926  0.00  0.00    +0.000 A 
ATOM     28  C   UNL     1      47.262   5.547  13.778  0.00  0.00    +0.000 A 
ATOM     29  C   UNL     1      46.856   4.210  13.713  0.00  0.00    +0.000 A 
ATOM     30  C   UNL     1      45.877   3.843  12.785  0.00  0.00    +0.000 A 
BRANCH  25  32
ATOM     31  C   UNL     1      42.991   4.597  11.332  0.00  0.00    +0.000 C 
ATOM     32  O   UNL     1      44.353   4.305  11.054  0.00  0.00    +0.000 OA
ENDBRANCH  25  32
BRANCH  29  33
ATOM     33  O   UNL     1      47.339   3.190  14.494  0.00  0.00    +0.000 OA
ATOM     34  C   UNL     1      47.595   3.502  15.859  0.00  0.00    +0.000 C 
ENDBRANCH  29  33
BRANCH  30  35
ATOM     35  O   UNL     1      45.481   2.527  12.728  0.00  0.00    +0.000 OA
ATOM     36  H   UNL     1      46.008   2.133  12.009  0.00  0.00    +0.000 HD
ENDBRANCH  30  35
ENDBRANCH  22  27
ENDBRANCH  21  22
ENDBRANCH   1  21
TORSDOF 8
ENDMDL
MODEL 6
REMARK VINA RESULT:    -6.370      5.085      7.388
REMARK INTER + INTRA:         -10.778
REMARK INTER:                  -9.719
REMARK INTRA:                  -1.059
REMARK UNBOUND:                -1.616
REMARK  Name = 
REMARK  12 active torsions:
REMARK  status: ('A' for Active; 'I' for Inactive)
REMARK    1  A    between atoms: C_1  and  O_2
REMARK    2  A    between atoms: O_2  and  C_3
REMARK    3  A    between atoms: C_5  and  C_6
REMARK    4  A    between atoms: C_6  and  C_7
REMARK    5  A    between atoms: C_6  and  C_8
REMARK    6  A    between atoms: C_6  and  C_9
REMARK    7  A    between atoms: C_9  and  N_10
REMARK    8  A    between atoms: N_10  and  C_11
REMARK    9  A    between atoms: C_16  and  C_17
REMARK   10  A    between atoms: C_28  and  O_29
REMARK   11  A    between atoms: O_29  and  C_30
REMARK   12  A    between atoms: C_31  and  O_32
REMARK                            x       y       z     vdW  Elec       q    Type
REMARK                         _______ _______ _______ _____ _____    ______ ____
ROOT
ATOM      1  N   UNL     1      49.433   7.837  12.127  0.00  0.00    +0.000 N 
ATOM      2  H   UNL     1      49.452   6.821  12.186  0.00  0.00    +0.000 HD
ENDROOT
BRANCH   1   3
ATOM      3  C   UNL     1      50.502   8.308  11.352  0.00  0.00    +0.000 A 
ATOM      4  C   UNL     1      50.949   9.635  11.376  0.00  0.00    +0.000 A 
ATOM      5  C   UNL     1      52.048  10.049  10.623  0.00  0.00    +0.000 A 
ATOM      6  C   UNL     1      52.752   9.127   9.852  0.00  0.00    +0.000 A 
ATOM      7 CL   UNL     1      54.108   9.708   8.950  0.00  0.00    +0.000 Cl
ATOM      8  C   UNL     1      52.361   7.780   9.833  0.00  0.00    +0.000 A 
ATOM      9  C   UNL     1      51.236   7.387  10.585  0.00  0.00    +0.000 A 
BRANCH   8  10
ATOM     10  C   UNL     1      53.102   6.755   9.083  0.00  0.00    +0.000 C 
ATOM     11  C   UNL     1      54.093   6.055   9.666  0.00  0.00    +0.000 C 
ATOM     12  C   UNL     1      54.909   5.000   8.969  0.00  0.00    +0.000 C 
ATOM     13  N   UNL     1      54.399   4.725   7.627  0.00  0.00    +0.000 N 
ATOM     14  C   UNL     1      54.568   3.548   6.940  0.00  0.00    +0.000 C 
ATOM     15  N   UNL     1      55.242   2.556   7.566  0.00  0.00    +0.000 N 
ATOM     16  O   UNL     1      54.177   3.352   5.793  0.00  0.00    +0.000 OA
ATOM     17  C   UNL     1      53.908   5.888   6.886  0.00  0.00    +0.000 C 
ATOM     18  C   UNL     1      52.755   6.563   7.631  0.00  0.00    +0.000 C 
ATOM     19  H   UNL     1      55.203   2.454   8.566  0.00  0.00    +0.000 HD
ATOM     20  H   UNL     1      55.228   1.685   7.050  0.00  0.00    +0.000 HD
ENDBRANCH   8  10
ENDBRANCH   1   3
BRANCH   1  21
ATOM     21  C   UNL     1      48.103   8.415  11.900  0.00  0.00    +0.000 C 
BRANCH  21  22
ATOM     22  C   UNL     1      47.036   8.057  12.977  0.00  0.00    +0.000 C 
ATOM     23  C   UNL     1      45.782   8.931  12.745  0.00  0.00    +0.000 C 
ATOM     24  C   UNL     1      47.622   8.340  14.378  0.00  0.00    +0.000 C 
BRANCH  22  27
ATOM     25  C   UNL     1      46.793   4.223  13.657  0.00  0.00    +0.000 A 
ATOM     26  C   UNL     1      47.187   5.566  13.739  0.00  0.00    +0.000 A 
ATOM     27  C   UNL     1      46.621   6.558  12.908  0.00  0.00    +0.000 A 
ATOM     28  C   UNL     1      45.639   6.155  11.980  0.00  0.00    +0.000 A 
ATOM     29  C   UNL     1      45.231   4.820  11.884  0.00  0.00    +0.000 A 
ATOM     30  C   UNL     1      45.816   3.869  12.725  0.00  0.00    +0.000 A 
BRANCH  25  32
ATOM     31  C   UNL     1      47.613   3.498  15.783  0.00  0.00    +0.000 C 
ATOM     32  O   UNL     1      47.296   3.208  14.430  0.00  0.00    +0.000 OA
ENDBRANCH  25  32
BRANCH  29  33
ATOM     33  O   UNL     1      44.282   4.335  11.018  0.00  0.00    +0.000 OA
ATOM     34  C   UNL     1      44.625   4.332   9.637  0.00  0.00    +0.000 C 
ENDBRANCH  29  33
BRANCH  30  35
ATOM     35  O   UNL     1      45.412   2.559  12.623  0.00  0.00    +0.000 OA
ATOM     36  H   UNL     1      46.053   2.140  12.019  0.00  0.00    +0.000 HD
ENDBRANCH  30  35
ENDBRANCH  22  27
ENDBRANCH  21  22
ENDBRANCH   1  21
TORSDOF 8
ENDMDL
MODEL 7
REMARK VINA RESULT:    -6.347      3.164      7.821
REMARK INTER + INTRA:         -10.746
REMARK INTER:                  -9.091
REMARK INTRA:                  -1.655
REMARK UNBOUND:                -1.616
REMARK  Name = 
REMARK  12 active torsions:
REMARK  status: ('A' for Active; 'I' for Inactive)
REMARK    1  A    between atoms: C_1  and  O_2
REMARK    2  A    between atoms: O_2  and  C_3
REMARK    3  A    between atoms: C_5  and  C_6
REMARK    4  A    between atoms: C_6  and  C_7
REMARK    5  A    between atoms: C_6  and  C_8
REMARK    6  A    between atoms: C_6  and  C_9
REMARK    7  A    between atoms: C_9  and  N_10
REMARK    8  A    between atoms: N_10  and  C_11
REMARK    9  A    between atoms: C_16  and  C_17
REMARK   10  A    between atoms: C_28  and  O_29
REMARK   11  A    between atoms: O_29  and  C_30
REMARK   12  A    between atoms: C_31  and  O_32
REMARK                            x       y       z     vdW  Elec       q    Type
REMARK                         _______ _______ _______ _____ _____    ______ ____
ROOT
ATOM      1  N   UNL     1      49.631   8.080  16.835  0.00  0.00    +0.000 N 
ATOM      2  H   UNL     1      50.242   7.269  16.760  0.00  0.00    +0.000 HD
ENDROOT
BRANCH   1   3
ATOM      3  C   UNL     1      49.372   8.625  15.570  0.00  0.00    +0.000 A 
ATOM      4  C   UNL     1      50.148   9.635  14.990  0.00  0.00    +0.000 A 
ATOM      5  C   UNL     1      49.882  10.115  13.707  0.00  0.00    +0.000 A 
ATOM      6  C   UNL     1      48.848   9.562  12.957  0.00  0.00    +0.000 A 
ATOM      7 CL   UNL     1      48.578  10.199  11.372  0.00  0.00    +0.000 Cl
ATOM      8  C   UNL     1      48.072   8.519  13.486  0.00  0.00    +0.000 A 
ATOM      9  C   UNL     1      48.345   8.063  14.792  0.00  0.00    +0.000 A 
BRANCH   8  10
ATOM     10  C   UNL     1      47.007   7.860  12.717  0.00  0.00    +0.000 C 
ATOM     11  C   UNL     1      47.289   6.854  11.867  0.00  0.00    +0.000 C 
ATOM     12  C   UNL     1      46.264   6.135  11.035  0.00  0.00    +0.000 C 
ATOM     13  N   UNL     1      44.906   6.563  11.365  0.00  0.00    +0.000 N 
ATOM     14  C   UNL     1      43.770   5.813  11.181  0.00  0.00    +0.000 C 
ATOM     15  N   UNL     1      43.925   4.568  10.670  0.00  0.00    +0.000 N 
ATOM     16  O   UNL     1      42.632   6.206  11.417  0.00  0.00    +0.000 OA
ATOM     17  C   UNL     1      44.746   7.986  11.667  0.00  0.00    +0.000 C 
ATOM     18  C   UNL     1      45.606   8.390  12.866  0.00  0.00    +0.000 C 
ATOM     19  H   UNL     1      44.755   4.032  10.858  0.00  0.00    +0.000 HD
ATOM     20  H   UNL     1      43.065   4.035  10.670  0.00  0.00    +0.000 HD
ENDBRANCH   8  10
ENDBRANCH   1   3
BRANCH   1  21
ATOM     21  C   UNL     1      48.507   7.919  17.765  0.00  0.00    +0.000 C 
BRANCH  21  22
ATOM     22  C   UNL     1      48.636   6.723  18.755  0.00  0.00    +0.000 C 
ATOM     23  C   UNL     1      47.372   6.674  19.644  0.00  0.00    +0.000 C 
ATOM     24  C   UNL     1      49.889   6.933  19.634  0.00  0.00    +0.000 C 
BRANCH  22  27
ATOM     25  C   UNL     1      49.903   3.215  17.608  0.00  0.00    +0.000 A 
ATOM     26  C   UNL     1      49.800   4.434  18.294  0.00  0.00    +0.000 A 
ATOM     27  C   UNL     1      48.776   5.364  18.009  0.00  0.00    +0.000 A 
ATOM     28  C   UNL     1      47.850   5.030  17.001  0.00  0.00    +0.000 A 
ATOM     29  C   UNL     1      47.933   3.819  16.305  0.00  0.00    +0.000 A 
ATOM     30  C   UNL     1      48.962   2.926  16.618  0.00  0.00    +0.000 A 
BRANCH  25  32
ATOM     31  C   UNL     1      52.223   2.685  17.840  0.00  0.00    +0.000 C 
ATOM     32  O   UNL     1      50.866   2.266  17.832  0.00  0.00    +0.000 OA
ENDBRANCH  25  32
BRANCH  29  33
ATOM     33  O   UNL     1      47.076   3.406  15.315  0.00  0.00    +0.000 OA
ATOM     34  C   UNL     1      46.666   4.395  14.377  0.00  0.00    +0.000 C 
ENDBRANCH  29  33
BRANCH  30  35
ATOM     35  O   UNL     1      49.039   1.738  15.930  0.00  0.00    +0.000 OA
ATOM     36  H   UNL     1      48.309   1.769  15.284  0.00  0.00    +0.000 HD
ENDBRANCH  30  35
ENDBRANCH  22  27
ENDBRANCH  21  22
ENDBRANCH   1  21
TORSDOF 8
ENDMDL
MODEL 8
REMARK VINA RESULT:    -6.249      2.956      7.988
REMARK INTER + INTRA:         -10.604
REMARK INTER:                  -9.112
REMARK INTRA:                  -1.492
REMARK UNBOUND:                -1.616
REMARK  Name = 
REMARK  12 active torsions:
REMARK  status: ('A' for Active; 'I' for Inactive)
REMARK    1  A    between atoms: C_1  and  O_2
REMARK    2  A    between atoms: O_2  and  C_3
REMARK    3  A    between atoms: C_5  and  C_6
REMARK    4  A    between atoms: C_6  and  C_7
REMARK    5  A    between atoms: C_6  and  C_8
REMARK    6  A    between atoms: C_6  and  C_9
REMARK    7  A    between atoms: C_9  and  N_10
REMARK    8  A    between atoms: N_10  and  C_11
REMARK    9  A    between atoms: C_16  and  C_17
REMARK   10  A    between atoms: C_28  and  O_29
REMARK   11  A    between atoms: O_29  and  C_30
REMARK   12  A    between atoms: C_31  and  O_32
REMARK                            x       y       z     vdW  Elec       q    Type
REMARK                         _______ _______ _______ _____ _____    ______ ____
ROOT
ATOM      1  N   UNL     1      50.163   7.821  17.278  0.00  0.00    +0.000 N 
ATOM      2  H   UNL     1      51.100   8.164  17.479  0.00  0.00    +0.000 HD
ENDROOT
BRANCH   1   3
ATOM      3  C   UNL     1      49.919   7.826  15.898  0.00  0.00    +0.000 A 
ATOM      4  C   UNL     1      50.812   8.354  14.957  0.00  0.00    +0.000 A 
ATOM      5  C   UNL     1      50.549   8.294  13.588  0.00  0.00    +0.000 A 
ATOM      6  C   UNL     1      49.395   7.667  13.126  0.00  0.00    +0.000 A 
ATOM      7 CL   UNL     1      49.136   7.623  11.417  0.00  0.00    +0.000 Cl
ATOM      8  C   UNL     1      48.495   7.090  14.035  0.00  0.00    +0.000 A 
ATOM      9  C   UNL     1      48.769   7.179  15.414  0.00  0.00    +0.000 A 
BRANCH   8  10
ATOM     10  C   UNL     1      47.292   6.365  13.599  0.00  0.00    +0.000 C 
ATOM     11  C   UNL     1      47.237   5.021  13.656  0.00  0.00    +0.000 C 
ATOM     12  C   UNL     1      46.052   4.203  13.220  0.00  0.00    +0.000 C 
ATOM     13  N   UNL     1      44.915   5.049  12.864  0.00  0.00    +0.000 N 
ATOM     14  C   UNL     1      43.597   4.665  12.904  0.00  0.00    +0.000 C 
ATOM     15  N   UNL     1      43.330   3.408  13.328  0.00  0.00    +0.000 N 
ATOM     16  O   UNL     1      42.657   5.372  12.553  0.00  0.00    +0.000 OA
ATOM     17  C   UNL     1      45.246   6.295  12.172  0.00  0.00    +0.000 C 
ATOM     18  C   UNL     1      46.155   7.173  13.033  0.00  0.00    +0.000 C 
ATOM     19  H   UNL     1      43.918   2.954  14.007  0.00  0.00    +0.000 HD
ATOM     20  H   UNL     1      42.339   3.234  13.442  0.00  0.00    +0.000 HD
ENDBRANCH   8  10
ENDBRANCH   1   3
BRANCH   1  21
ATOM     21  C   UNL     1      49.762   6.639  18.050  0.00  0.00    +0.000 C 
BRANCH  21  22
ATOM     22  C   UNL     1      50.906   5.964  18.865  0.00  0.00    +0.000 C 
ATOM     23  C   UNL     1      50.492   5.908  20.353  0.00  0.00    +0.000 C 
ATOM     24  C   UNL     1      52.195   6.801  18.707  0.00  0.00    +0.000 C 
BRANCH  22  27
ATOM     25  C   UNL     1      52.617   2.516  18.222  0.00  0.00    +0.000 A 
ATOM     26  C   UNL     1      52.385   3.821  18.679  0.00  0.00    +0.000 A 
ATOM     27  C   UNL     1      51.194   4.516  18.370  0.00  0.00    +0.000 A 
ATOM     28  C   UNL     1      50.235   3.852  17.578  0.00  0.00    +0.000 A 
ATOM     29  C   UNL     1      50.446   2.550  17.114  0.00  0.00    +0.000 A 
ATOM     30  C   UNL     1      51.639   1.898  17.441  0.00  0.00    +0.000 A 
BRANCH  25  32
ATOM     31  C   UNL     1      54.565   2.185  19.569  0.00  0.00    +0.000 C 
ATOM     32  O   UNL     1      53.745   1.783  18.482  0.00  0.00    +0.000 OA
ENDBRANCH  25  32
BRANCH  29  33
ATOM     33  O   UNL     1      49.571   1.824  16.345  0.00  0.00    +0.000 OA
ATOM     34  C   UNL     1      48.255   2.349  16.214  0.00  0.00    +0.000 C 
ENDBRANCH  29  33
BRANCH  30  35
ATOM     35  O   UNL     1      51.842   0.619  16.980  0.00  0.00    +0.000 OA
ATOM     36  H   UNL     1      51.565   0.638  16.045  0.00  0.00    +0.000 HD
ENDBRANCH  30  35
ENDBRANCH  22  27
ENDBRANCH  21  22
ENDBRANCH   1  21
TORSDOF 8
ENDMDL
MODEL 9
REMARK VINA RESULT:    -5.850      3.314      7.502
REMARK INTER + INTRA:         -10.031
REMARK INTER:                  -8.420
REMARK INTRA:                  -1.611
REMARK UNBOUND:                -1.616
REMARK  Name = 
REMARK  12 active torsions:
REMARK  status: ('A' for Active; 'I' for Inactive)
REMARK    1  A    between atoms: C_1  and  O_2
REMARK    2  A    between atoms: O_2  and  C_3
REMARK    3  A    between atoms: C_5  and  C_6
REMARK    4  A    between atoms: C_6  and  C_7
REMARK    5  A    between atoms: C_6  and  C_8
REMARK    6  A    between atoms: C_6  and  C_9
REMARK    7  A    between atoms: C_9  and  N_10
REMARK    8  A    between atoms: N_10  and  C_11
REMARK    9  A    between atoms: C_16  and  C_17
REMARK   10  A    between atoms: C_28  and  O_29
REMARK   11  A    between atoms: O_29  and  C_30
REMARK   12  A    between atoms: C_31  and  O_32
REMARK                            x       y       z     vdW  Elec       q    Type
REMARK                         _______ _______ _______ _____ _____    ______ ____
ROOT
ATOM      1  N   UNL     1      49.389   8.835  16.919  0.00  0.00    +0.000 N 
ATOM      2  H   UNL     1      50.389   8.722  17.071  0.00  0.00    +0.000 HD
ENDROOT
BRANCH   1   3
ATOM      3  C   UNL     1      49.131   9.256  15.607  0.00  0.00    +0.000 A 
ATOM      4  C   UNL     1      49.847  10.274  14.967  0.00  0.00    +0.000 A 
ATOM      5  C   UNL     1      49.587  10.628  13.642  0.00  0.00    +0.000 A 
ATOM      6  C   UNL     1      48.622   9.938  12.913  0.00  0.00    +0.000 A 
ATOM      7 CL   UNL     1      48.357  10.424  11.275  0.00  0.00    +0.000 Cl
ATOM      8  C   UNL     1      47.911   8.884  13.506  0.00  0.00    +0.000 A 
ATOM      9  C   UNL     1      48.175   8.556  14.851  0.00  0.00    +0.000 A 
BRANCH   8  10
ATOM     10  C   UNL     1      46.923   8.085  12.765  0.00  0.00    +0.000 C 
ATOM     11  C   UNL     1      47.294   6.977  12.095  0.00  0.00    +0.000 C 
ATOM     12  C   UNL     1      46.353   6.111  11.304  0.00  0.00    +0.000 C 
ATOM     13  N   UNL     1      44.964   6.535  11.468  0.00  0.00    +0.000 N 
ATOM     14  C   UNL     1      43.864   5.728  11.313  0.00  0.00    +0.000 C 
ATOM     15  N   UNL     1      44.087   4.429  11.002  0.00  0.00    +0.000 N 
ATOM     16  O   UNL     1      42.702   6.112  11.406  0.00  0.00    +0.000 OA
ATOM     17  C   UNL     1      44.749   7.980  11.547  0.00  0.00    +0.000 C 
ATOM     18  C   UNL     1      45.504   8.582  12.733  0.00  0.00    +0.000 C 
ATOM     19  H   UNL     1      44.912   3.954  11.326  0.00  0.00    +0.000 HD
ATOM     20  H   UNL     1      43.242   3.871  11.018  0.00  0.00    +0.000 HD
ENDBRANCH   8  10
ENDBRANCH   1   3
BRANCH   1  21
ATOM     21  C   UNL     1      48.557   7.765  17.482  0.00  0.00    +0.000 C 
BRANCH  21  22
ATOM     22  C   UNL     1      49.330   6.691  18.304  0.00  0.00    +0.000 C 
ATOM     23  C   UNL     1      48.732   6.627  19.728  0.00  0.00    +0.000 C 
ATOM     24  C   UNL     1      50.820   7.092  18.377  0.00  0.00    +0.000 C 
BRANCH  22  27
ATOM     25  C   UNL     1      48.246   3.691  16.057  0.00  0.00    +0.000 A 
ATOM     26  C   UNL     1      48.314   4.971  16.625  0.00  0.00    +0.000 A 
ATOM     27  C   UNL     1      49.230   5.280  17.655  0.00  0.00    +0.000 A 
ATOM     28  C   UNL     1      50.083   4.250  18.103  0.00  0.00    +0.000 A 
ATOM     29  C   UNL     1      50.033   2.967  17.548  0.00  0.00    +0.000 A 
ATOM     30  C   UNL     1      49.111   2.704  16.530  0.00  0.00    +0.000 A 
BRANCH  25  32
ATOM     31  C   UNL     1      46.590   4.332  14.455  0.00  0.00    +0.000 C 
ATOM     32  O   UNL     1      47.386   3.321  15.056  0.00  0.00    +0.000 OA
ENDBRANCH  25  32
BRANCH  29  33
ATOM     33  O   UNL     1      50.825   1.907  17.914  0.00  0.00    +0.000 OA
ATOM     34  C   UNL     1      52.192   1.972  17.524  0.00  0.00    +0.000 C 
ENDBRANCH  29  33
BRANCH  30  35
ATOM     35  O   UNL     1      49.066   1.440  15.990  0.00  0.00    +0.000 OA
ATOM     36  H   UNL     1      49.370   0.847  16.703  0.00  0.00    +0.000 HD
ENDBRANCH  30  35
ENDBRANCH  22  27
ENDBRANCH  21  22
ENDBRANCH   1  21
TORSDOF 8
ENDMDL
