MODEL 1
REMARK VINA RESULT:    -6.828      0.000      0.000
REMARK INTER + INTRA:         -10.320
REMARK INTER:                  -9.422
REMARK INTRA:                  -0.897
REMARK UNBOUND:                -0.897
REMARK  Name = 
REMARK  7 active torsions:
REMARK  status: ('A' for Active; 'I' for Inactive)
REMARK    1  A    between atoms: N_1  and  C_2
REMARK    2  A    between atoms: C_2  and  C_3
REMARK    3  A    between atoms: C_3  and  C_4
REMARK    4  A    between atoms: C_4  and  C_5
REMARK    5  A    between atoms: C_5  and  N_6
REMARK    6  A    between atoms: C_5  and  C_16
REMARK    7  A    between atoms: C_10  and  C_11
REMARK                            x       y       z     vdW  Elec       q    Type
REMARK                         _______ _______ _______ _____ _____    ______ ____
ROOT
ATOM      1  C   UNL     1      44.938   3.743  12.015  0.00  0.00    +0.000 C 
ENDROOT
BRANCH   1   2
ATOM      2  N   UNL     1      45.548   5.022  12.407  0.00  0.00    +0.000 N 
ATOM      3  C   UNL     1      46.500   4.999  13.434  0.00  0.00    +0.000 A 
ATOM      4  C   UNL     1      47.424   6.053  13.553  0.00  0.00    +0.000 A 
ATOM      5  N   UNL     1      48.252   6.251  14.616  0.00  0.00    +0.000 NA
ATOM      6  C   UNL     1      48.113   5.329  15.606  0.00  0.00    +0.000 A 
ATOM      7  C   UNL     1      47.239   4.262  15.500  0.00  0.00    +0.000 A 
ATOM      8  N   UNL     1      46.425   4.077  14.420  0.00  0.00    +0.000 NA
ATOM      9  H   UNL     1      45.864   5.555  11.606  0.00  0.00    +0.000 HD
BRANCH   6  10
ATOM     10  C   UNL     1      48.873   5.548  16.865  0.00  0.00    +0.000 C 
ATOM     11  N   UNL     1      48.209   6.195  17.874  0.00  0.00    +0.000 N 
ATOM     12  O   UNL     1      50.024   5.141  17.014  0.00  0.00    +0.000 OA
ATOM     13  H   UNL     1      47.237   6.463  17.744  0.00  0.00    +0.000 HD
ATOM     14  H   UNL     1      48.646   6.285  18.781  0.00  0.00    +0.000 HD
ENDBRANCH   6  10
ENDBRANCH   1   2
BRANCH   1  15
ATOM     15  C   UNL     1      44.957   3.597  10.491  0.00  0.00    +0.000 A 
ATOM     16  C   UNL     1      45.410   4.667   9.704  0.00  0.00    +0.000 A 
ATOM     17  C   UNL     1      45.614   4.506   8.331  0.00  0.00    +0.000 A 
ATOM     18  C   UNL     1      45.335   3.285   7.722  0.00  0.00    +0.000 A 
ATOM     19  C   UNL     1      44.841   2.226   8.480  0.00  0.00    +0.000 A 
ATOM     20  C   UNL     1      44.661   2.377   9.856  0.00  0.00    +0.000 A 
ENDBRANCH   1  15
BRANCH   1  21
ATOM     21  C   UNL     1      43.478   3.676  12.534  0.00  0.00    +0.000 C 
BRANCH  21  22
ATOM     22  C   UNL     1      42.935   5.074  12.891  0.00  0.00    +0.000 C 
BRANCH  22  23
ATOM     23  C   UNL     1      42.256   5.812  11.739  0.00  0.00    +0.000 C 
BRANCH  23  24
ATOM     24  N   UNL     1      43.081   6.903  11.231  0.00  0.00    +0.000 NA
ATOM     25  H   UNL     1      42.989   7.708  11.850  0.00  0.00    +0.000 HD
ATOM     26  H   UNL     1      42.726   7.204  10.323  0.00  0.00    +0.000 HD
ENDBRANCH  23  24
ENDBRANCH  22  23
ENDBRANCH  21  22
ENDBRANCH   1  21
TORSDOF 7
ENDMDL
MODEL 2
REMARK VINA RESULT:    -6.521      1.632      1.919
REMARK INTER + INTRA:          -9.897
REMARK INTER:                  -8.853
REMARK INTRA:                  -1.044
REMARK UNBOUND:                -0.897
REMARK  Name = 
REMARK  7 active torsions:
REMARK  status: ('A' for Active; 'I' for Inactive)
REMARK    1  A    between atoms: N_1  and  C_2
REMARK    2  A    between atoms: C_2  and  C_3
REMARK    3  A    between atoms: C_3  and  C_4
REMARK    4  A    between atoms: C_4  and  C_5
REMARK    5  A    between atoms: C_5  and  N_6
REMARK    6  A    between atoms: C_5  and  C_16
REMARK    7  A    between atoms: C_10  and  C_11
REMARK                            x       y       z     vdW  Elec       q    Type
REMARK                         _______ _______ _______ _____ _____    ______ ____
ROOT
ATOM      1  C   UNL     1      44.989   4.601  10.644  0.00  0.00    +0.000 C 
ENDROOT
BRANCH   1   2
ATOM      2  N   UNL     1      45.680   5.892  10.769  0.00  0.00    +0.000 N 
ATOM      3  C   UNL     1      46.606   6.033  11.810  0.00  0.00    +0.000 A 
ATOM      4  C   UNL     1      47.600   7.026  11.729  0.00  0.00    +0.000 A 
ATOM      5  N   UNL     1      48.419   7.399  12.753  0.00  0.00    +0.000 NA
ATOM      6  C   UNL     1      48.193   6.729  13.914  0.00  0.00    +0.000 A 
ATOM      7  C   UNL     1      47.247   5.723  14.012  0.00  0.00    +0.000 A 
ATOM      8  N   UNL     1      46.445   5.359  12.970  0.00  0.00    +0.000 NA
ATOM      9  H   UNL     1      46.051   6.214   9.883  0.00  0.00    +0.000 HD
BRANCH   6  10
ATOM     10  C   UNL     1      48.940   7.169  15.122  0.00  0.00    +0.000 C 
ATOM     11  N   UNL     1      48.336   8.122  15.899  0.00  0.00    +0.000 N 
ATOM     12  O   UNL     1      50.026   6.684  15.433  0.00  0.00    +0.000 OA
ATOM     13  H   UNL     1      47.409   8.459  15.652  0.00  0.00    +0.000 HD
ATOM     14  H   UNL     1      48.756   8.388  16.780  0.00  0.00    +0.000 HD
ENDBRANCH   6  10
ENDBRANCH   1   2
BRANCH   1  15
ATOM     15  C   UNL     1      45.433   3.888   9.364  0.00  0.00    +0.000 A 
ATOM     16  C   UNL     1      46.066   4.626   8.351  0.00  0.00    +0.000 A 
ATOM     17  C   UNL     1      46.646   3.982   7.255  0.00  0.00    +0.000 A 
ATOM     18  C   UNL     1      46.573   2.596   7.141  0.00  0.00    +0.000 A 
ATOM     19  C   UNL     1      45.910   1.851   8.113  0.00  0.00    +0.000 A 
ATOM     20  C   UNL     1      45.351   2.491   9.221  0.00  0.00    +0.000 A 
ENDBRANCH   1  15
BRANCH   1  21
ATOM     21  C   UNL     1      43.454   4.826  10.617  0.00  0.00    +0.000 C 
BRANCH  21  22
ATOM     22  C   UNL     1      42.745   4.049  11.745  0.00  0.00    +0.000 C 
BRANCH  22  23
ATOM     23  C   UNL     1      43.048   4.547  13.157  0.00  0.00    +0.000 C 
BRANCH  23  24
ATOM     24  N   UNL     1      43.355   5.974  13.174  0.00  0.00    +0.000 NA
ATOM     25  H   UNL     1      42.976   6.408  12.333  0.00  0.00    +0.000 HD
ATOM     26  H   UNL     1      44.366   6.104  13.128  0.00  0.00    +0.000 HD
ENDBRANCH  23  24
ENDBRANCH  22  23
ENDBRANCH  21  22
ENDBRANCH   1  21
TORSDOF 7
ENDMDL
MODEL 3
REMARK VINA RESULT:    -5.953      1.804      2.572
REMARK INTER + INTRA:          -9.113
REMARK INTER:                  -9.637
REMARK INTRA:                   0.524
REMARK UNBOUND:                -0.897
REMARK  Name = 
REMARK  7 active torsions:
REMARK  status: ('A' for Active; 'I' for Inactive)
REMARK    1  A    between atoms: N_1  and  C_2
REMARK    2  A    between atoms: C_2  and  C_3
REMARK    3  A    between atoms: C_3  and  C_4
REMARK    4  A    between atoms: C_4  and  C_5
REMARK    5  A    between atoms: C_5  and  N_6
REMARK    6  A    between atoms: C_5  and  C_16
REMARK    7  A    between atoms: C_10  and  C_11
REMARK                            x       y       z     vdW  Elec       q    Type
REMARK                         _______ _______ _______ _____ _____    ______ ____
ROOT
ATOM      1  C   UNL     1      44.368   3.172  10.296  0.00  0.00    +0.000 C 
ENDROOT
BRANCH   1   2
ATOM      2  N   UNL     1      45.112   2.953  11.545  0.00  0.00    +0.000 N 
ATOM      3  C   UNL     1      45.656   4.076  12.182  0.00  0.00    +0.000 A 
ATOM      4  C   UNL     1      45.973   4.015  13.552  0.00  0.00    +0.000 A 
ATOM      5  N   UNL     1      46.688   4.954  14.231  0.00  0.00    +0.000 NA
ATOM      6  C   UNL     1      47.109   5.993  13.462  0.00  0.00    +0.000 A 
ATOM      7  C   UNL     1      46.782   6.097  12.121  0.00  0.00    +0.000 A 
ATOM      8  N   UNL     1      46.053   5.148  11.463  0.00  0.00    +0.000 NA
ATOM      9  H   UNL     1      44.609   2.355  12.190  0.00  0.00    +0.000 HD
BRANCH   6  10
ATOM     10  C   UNL     1      48.017   6.992  14.086  0.00  0.00    +0.000 C 
ATOM     11  N   UNL     1      47.460   8.199  14.419  0.00  0.00    +0.000 N 
ATOM     12  O   UNL     1      49.196   6.743  14.328  0.00  0.00    +0.000 OA
ATOM     13  H   UNL     1      46.467   8.353  14.266  0.00  0.00    +0.000 HD
ATOM     14  H   UNL     1      48.008   8.877  14.931  0.00  0.00    +0.000 HD
ENDBRANCH   6  10
ENDBRANCH   1   2
BRANCH   1  15
ATOM     15  C   UNL     1      45.305   3.027   9.094  0.00  0.00    +0.000 A 
ATOM     16  C   UNL     1      45.780   1.753   8.742  0.00  0.00    +0.000 A 
ATOM     17  C   UNL     1      46.483   1.558   7.551  0.00  0.00    +0.000 A 
ATOM     18  C   UNL     1      46.750   2.638   6.713  0.00  0.00    +0.000 A 
ATOM     19  C   UNL     1      46.326   3.916   7.068  0.00  0.00    +0.000 A 
ATOM     20  C   UNL     1      45.602   4.109   8.246  0.00  0.00    +0.000 A 
ENDBRANCH   1  15
BRANCH   1  21
ATOM     21  C   UNL     1      43.734   4.588  10.304  0.00  0.00    +0.000 C 
BRANCH  21  22
ATOM     22  C   UNL     1      42.584   4.691  11.326  0.00  0.00    +0.000 C 
BRANCH  22  23
ATOM     23  C   UNL     1      42.450   6.053  12.005  0.00  0.00    +0.000 C 
BRANCH  23  24
ATOM     24  N   UNL     1      42.765   7.148  11.094  0.00  0.00    +0.000 NA
ATOM     25  H   UNL     1      43.544   6.872  10.497  0.00  0.00    +0.000 HD
ATOM     26  H   UNL     1      43.091   7.953  11.629  0.00  0.00    +0.000 HD
ENDBRANCH  23  24
ENDBRANCH  22  23
ENDBRANCH  21  22
ENDBRANCH   1  21
TORSDOF 7
ENDMDL
MODEL 4
REMARK VINA RESULT:    -5.946      3.733      6.519
REMARK INTER + INTRA:          -9.103
REMARK INTER:                  -8.019
REMARK INTRA:                  -1.084
REMARK UNBOUND:                -0.897
REMARK  Name = 
REMARK  7 active torsions:
REMARK  status: ('A' for Active; 'I' for Inactive)
REMARK    1  A    between atoms: N_1  and  C_2
REMARK    2  A    between atoms: C_2  and  C_3
REMARK    3  A    between atoms: C_3  and  C_4
REMARK    4  A    between atoms: C_4  and  C_5
REMARK    5  A    between atoms: C_5  and  N_6
REMARK    6  A    between atoms: C_5  and  C_16
REMARK    7  A    between atoms: C_10  and  C_11
REMARK                            x       y       z     vdW  Elec       q    Type
REMARK                         _______ _______ _______ _____ _____    ______ ____
ROOT
ATOM      1  C   UNL     1      45.821   8.732  12.161  0.00  0.00    +0.000 C 
ENDROOT
BRANCH   1   2
ATOM      2  N   UNL     1      45.214   7.694  13.007  0.00  0.00    +0.000 N 
ATOM      3  C   UNL     1      45.071   6.413  12.460  0.00  0.00    +0.000 A 
ATOM      4  C   UNL     1      44.931   5.302  13.313  0.00  0.00    +0.000 A 
ATOM      5  N   UNL     1      44.580   4.048  12.913  0.00  0.00    +0.000 NA
ATOM      6  C   UNL     1      44.350   3.938  11.577  0.00  0.00    +0.000 A 
ATOM      7  C   UNL     1      44.516   5.004  10.710  0.00  0.00    +0.000 A 
ATOM      8  N   UNL     1      44.878   6.250  11.133  0.00  0.00    +0.000 NA
ATOM      9  H   UNL     1      45.623   7.669  13.934  0.00  0.00    +0.000 HD
BRANCH   6  10
ATOM     10  C   UNL     1      43.823   2.642  11.072  0.00  0.00    +0.000 C 
ATOM     11  N   UNL     1      44.443   2.122   9.965  0.00  0.00    +0.000 N 
ATOM     12  O   UNL     1      42.907   2.044  11.632  0.00  0.00    +0.000 OA
ATOM     13  H   UNL     1      45.240   2.606   9.561  0.00  0.00    +0.000 HD
ATOM     14  H   UNL     1      44.187   1.200   9.637  0.00  0.00    +0.000 HD
ENDBRANCH   6  10
ENDBRANCH   1   2
BRANCH   1  15
ATOM     15  C   UNL     1      47.228   9.064  12.665  0.00  0.00    +0.000 A 
ATOM     16  C   UNL     1      47.559   8.802  14.004  0.00  0.00    +0.000 A 
ATOM     17  C   UNL     1      48.878   8.920  14.450  0.00  0.00    +0.000 A 
ATOM     18  C   UNL     1      49.877   9.333  13.573  0.00  0.00    +0.000 A 
ATOM     19  C   UNL     1      49.560   9.640  12.252  0.00  0.00    +0.000 A 
ATOM     20  C   UNL     1      48.247   9.499  11.798  0.00  0.00    +0.000 A 
ENDBRANCH   1  15
BRANCH   1  21
ATOM     21  C   UNL     1      44.939  10.007  12.178  0.00  0.00    +0.000 C 
BRANCH  21  22
ATOM     22  C   UNL     1      44.324  10.293  10.793  0.00  0.00    +0.000 C 
BRANCH  22  23
ATOM     23  C   UNL     1      42.852   9.912  10.654  0.00  0.00    +0.000 C 
BRANCH  23  24
ATOM     24  N   UNL     1      42.632   8.492  10.910  0.00  0.00    +0.000 NA
ATOM     25  H   UNL     1      41.683   8.358  11.256  0.00  0.00    +0.000 HD
ATOM     26  H   UNL     1      43.252   8.182  11.659  0.00  0.00    +0.000 HD
ENDBRANCH  23  24
ENDBRANCH  22  23
ENDBRANCH  21  22
ENDBRANCH   1  21
TORSDOF 7
ENDMDL
MODEL 5
REMARK VINA RESULT:    -5.598      3.633      6.449
REMARK INTER + INTRA:          -8.623
REMARK INTER:                  -7.541
REMARK INTRA:                  -1.082
REMARK UNBOUND:                -0.897
REMARK  Name = 
REMARK  7 active torsions:
REMARK  status: ('A' for Active; 'I' for Inactive)
REMARK    1  A    between atoms: N_1  and  C_2
REMARK    2  A    between atoms: C_2  and  C_3
REMARK    3  A    between atoms: C_3  and  C_4
REMARK    4  A    between atoms: C_4  and  C_5
REMARK    5  A    between atoms: C_5  and  N_6
REMARK    6  A    between atoms: C_5  and  C_16
REMARK    7  A    between atoms: C_10  and  C_11
REMARK                            x       y       z     vdW  Elec       q    Type
REMARK                         _______ _______ _______ _____ _____    ______ ____
ROOT
ATOM      1  C   UNL     1      47.317   8.177  12.396  0.00  0.00    +0.000 C 
ENDROOT
BRANCH   1   2
ATOM      2  N   UNL     1      46.707   7.128  13.226  0.00  0.00    +0.000 N 
ATOM      3  C   UNL     1      46.210   5.992  12.574  0.00  0.00    +0.000 A 
ATOM      4  C   UNL     1      46.035   4.796  13.294  0.00  0.00    +0.000 A 
ATOM      5  N   UNL     1      45.375   3.696  12.835  0.00  0.00    +0.000 NA
ATOM      6  C   UNL     1      44.861   3.841  11.585  0.00  0.00    +0.000 A 
ATOM      7  C   UNL     1      45.049   4.993  10.840  0.00  0.00    +0.000 A 
ATOM      8  N   UNL     1      45.724   6.079  11.317  0.00  0.00    +0.000 NA
ATOM      9  H   UNL     1      47.283   6.888  14.024  0.00  0.00    +0.000 HD
BRANCH   6  10
ATOM     10  C   UNL     1      44.002   2.746  11.060  0.00  0.00    +0.000 C 
ATOM     11  N   UNL     1      44.429   2.136   9.909  0.00  0.00    +0.000 N 
ATOM     12  O   UNL     1      42.983   2.378  11.640  0.00  0.00    +0.000 OA
ATOM     13  H   UNL     1      45.309   2.419   9.487  0.00  0.00    +0.000 HD
ATOM     14  H   UNL     1      43.934   1.325   9.562  0.00  0.00    +0.000 HD
ENDBRANCH   6  10
ENDBRANCH   1   2
BRANCH   1  15
ATOM     15  C   UNL     1      48.839   8.160  12.564  0.00  0.00    +0.000 A 
ATOM     16  C   UNL     1      49.651   7.908  11.447  0.00  0.00    +0.000 A 
ATOM     17  C   UNL     1      51.037   8.066  11.523  0.00  0.00    +0.000 A 
ATOM     18  C   UNL     1      51.632   8.444  12.724  0.00  0.00    +0.000 A 
ATOM     19  C   UNL     1      50.847   8.655  13.854  0.00  0.00    +0.000 A 
ATOM     20  C   UNL     1      49.459   8.522  13.774  0.00  0.00    +0.000 A 
ENDBRANCH   1  15
BRANCH   1  21
ATOM     21  C   UNL     1      46.756   9.564  12.804  0.00  0.00    +0.000 C 
BRANCH  21  22
ATOM     22  C   UNL     1      45.806  10.132  11.730  0.00  0.00    +0.000 C 
BRANCH  22  23
ATOM     23  C   UNL     1      44.334   9.770  11.920  0.00  0.00    +0.000 C 
BRANCH  23  24
ATOM     24  N   UNL     1      43.929   8.670  11.050  0.00  0.00    +0.000 NA
ATOM     25  H   UNL     1      44.692   8.452  10.411  0.00  0.00    +0.000 HD
ATOM     26  H   UNL     1      43.147   8.969  10.466  0.00  0.00    +0.000 HD
ENDBRANCH  23  24
ENDBRANCH  22  23
ENDBRANCH  21  22
ENDBRANCH   1  21
TORSDOF 7
ENDMDL
MODEL 6
REMARK VINA RESULT:    -5.523      3.355      8.201
REMARK INTER + INTRA:          -8.519
REMARK INTER:                  -7.568
REMARK INTRA:                  -0.951
REMARK UNBOUND:                -0.897
REMARK  Name = 
REMARK  7 active torsions:
REMARK  status: ('A' for Active; 'I' for Inactive)
REMARK    1  A    between atoms: N_1  and  C_2
REMARK    2  A    between atoms: C_2  and  C_3
REMARK    3  A    between atoms: C_3  and  C_4
REMARK    4  A    between atoms: C_4  and  C_5
REMARK    5  A    between atoms: C_5  and  N_6
REMARK    6  A    between atoms: C_5  and  C_16
REMARK    7  A    between atoms: C_10  and  C_11
REMARK                            x       y       z     vdW  Elec       q    Type
REMARK                         _______ _______ _______ _____ _____    ______ ____
ROOT
ATOM      1  C   UNL     1      50.071   4.943  17.592  0.00  0.00    +0.000 C 
ENDROOT
BRANCH   1   2
ATOM      2  N   UNL     1      48.684   4.543  17.316  0.00  0.00    +0.000 N 
ATOM      3  C   UNL     1      48.166   4.829  16.046  0.00  0.00    +0.000 A 
ATOM      4  C   UNL     1      47.058   4.107  15.566  0.00  0.00    +0.000 A 
ATOM      5  N   UNL     1      46.341   4.424  14.452  0.00  0.00    +0.000 NA
ATOM      6  C   UNL     1      46.777   5.543  13.814  0.00  0.00    +0.000 A 
ATOM      7  C   UNL     1      47.885   6.252  14.243  0.00  0.00    +0.000 A 
ATOM      8  N   UNL     1      48.596   5.908  15.357  0.00  0.00    +0.000 NA
ATOM      9  H   UNL     1      48.499   3.587  17.596  0.00  0.00    +0.000 HD
BRANCH   6  10
ATOM     10  C   UNL     1      45.967   6.046  12.672  0.00  0.00    +0.000 C 
ATOM     11  N   UNL     1      44.647   6.307  12.929  0.00  0.00    +0.000 N 
ATOM     12  O   UNL     1      46.456   6.253  11.563  0.00  0.00    +0.000 OA
ATOM     13  H   UNL     1      44.285   6.187  13.872  0.00  0.00    +0.000 HD
ATOM     14  H   UNL     1      44.075   6.739  12.216  0.00  0.00    +0.000 HD
ENDBRANCH   6  10
ENDBRANCH   1   2
BRANCH   1  15
ATOM     15  C   UNL     1      50.953   3.702  17.754  0.00  0.00    +0.000 A 
ATOM     16  C   UNL     1      50.452   2.448  17.375  0.00  0.00    +0.000 A 
ATOM     17  C   UNL     1      51.286   1.327  17.337  0.00  0.00    +0.000 A 
ATOM     18  C   UNL     1      52.623   1.440  17.709  0.00  0.00    +0.000 A 
ATOM     19  C   UNL     1      53.128   2.668  18.131  0.00  0.00    +0.000 A 
ATOM     20  C   UNL     1      52.302   3.793  18.146  0.00  0.00    +0.000 A 
ENDBRANCH   1  15
BRANCH   1  21
ATOM     21  C   UNL     1      50.124   5.802  18.883  0.00  0.00    +0.000 C 
BRANCH  21  22
ATOM     22  C   UNL     1      48.788   5.758  19.652  0.00  0.00    +0.000 C 
BRANCH  22  23
ATOM     23  C   UNL     1      48.749   4.768  20.814  0.00  0.00    +0.000 C 
BRANCH  23  24
ATOM     24  N   UNL     1      48.376   3.428  20.374  0.00  0.00    +0.000 NA
ATOM     25  H   UNL     1      48.760   3.262  19.446  0.00  0.00    +0.000 HD
ATOM     26  H   UNL     1      47.361   3.373  20.274  0.00  0.00    +0.000 HD
ENDBRANCH  23  24
ENDBRANCH  22  23
ENDBRANCH  21  22
ENDBRANCH   1  21
TORSDOF 7
ENDMDL
MODEL 7
REMARK VINA RESULT:    -5.416      2.322      3.784
REMARK INTER + INTRA:          -8.371
REMARK INTER:                  -7.562
REMARK INTRA:                  -0.809
REMARK UNBOUND:                -0.897
REMARK  Name = 
REMARK  7 active torsions:
REMARK  status: ('A' for Active; 'I' for Inactive)
REMARK    1  A    between atoms: N_1  and  C_2
REMARK    2  A    between atoms: C_2  and  C_3
REMARK    3  A    between atoms: C_3  and  C_4
REMARK    4  A    between atoms: C_4  and  C_5
REMARK    5  A    between atoms: C_5  and  N_6
REMARK    6  A    between atoms: C_5  and  C_16
REMARK    7  A    between atoms: C_10  and  C_11
REMARK                            x       y       z     vdW  Elec       q    Type
REMARK                         _______ _______ _______ _____ _____    ______ ____
ROOT
ATOM      1  C   UNL     1      46.406   5.135  13.861  0.00  0.00    +0.000 C 
ENDROOT
BRANCH   1   2
ATOM      2  N   UNL     1      46.805   4.018  14.730  0.00  0.00    +0.000 N 
ATOM      3  C   UNL     1      47.449   4.331  15.934  0.00  0.00    +0.000 A 
ATOM      4  C   UNL     1      47.453   3.396  16.986  0.00  0.00    +0.000 A 
ATOM      5  N   UNL     1      48.209   3.492  18.115  0.00  0.00    +0.000 NA
ATOM      6  C   UNL     1      49.007   4.593  18.155  0.00  0.00    +0.000 A 
ATOM      7  C   UNL     1      48.997   5.547  17.152  0.00  0.00    +0.000 A 
ATOM      8  N   UNL     1      48.222   5.435  16.034  0.00  0.00    +0.000 NA
ATOM      9  H   UNL     1      46.056   3.349  14.861  0.00  0.00    +0.000 HD
BRANCH   6  10
ATOM     10  C   UNL     1      49.971   4.706  19.281  0.00  0.00    +0.000 C 
ATOM     11  N   UNL     1      49.512   4.332  20.517  0.00  0.00    +0.000 N 
ATOM     12  O   UNL     1      51.131   5.080  19.115  0.00  0.00    +0.000 OA
ATOM     13  H   UNL     1      48.568   3.967  20.613  0.00  0.00    +0.000 HD
ATOM     14  H   UNL     1      50.153   4.300  21.298  0.00  0.00    +0.000 HD
ENDBRANCH   6  10
ENDBRANCH   1   2
BRANCH   1  15
ATOM     15  C   UNL     1      45.177   4.745  13.035  0.00  0.00    +0.000 A 
ATOM     16  C   UNL     1      44.130   5.667  12.883  0.00  0.00    +0.000 A 
ATOM     17  C   UNL     1      43.084   5.417  11.991  0.00  0.00    +0.000 A 
ATOM     18  C   UNL     1      43.053   4.228  11.267  0.00  0.00    +0.000 A 
ATOM     19  C   UNL     1      44.060   3.282  11.438  0.00  0.00    +0.000 A 
ATOM     20  C   UNL     1      45.119   3.540  12.310  0.00  0.00    +0.000 A 
ENDBRANCH   1  15
BRANCH   1  21
ATOM     21  C   UNL     1      47.578   5.514  12.919  0.00  0.00    +0.000 C 
BRANCH  21  22
ATOM     22  C   UNL     1      47.578   7.020  12.587  0.00  0.00    +0.000 C 
BRANCH  22  23
ATOM     23  C   UNL     1      46.929   7.910  13.645  0.00  0.00    +0.000 C 
BRANCH  23  24
ATOM     24  N   UNL     1      47.862   8.251  14.714  0.00  0.00    +0.000 NA
ATOM     25  H   UNL     1      47.358   8.283  15.599  0.00  0.00    +0.000 HD
ATOM     26  H   UNL     1      48.224   9.194  14.562  0.00  0.00    +0.000 HD
ENDBRANCH  23  24
ENDBRANCH  22  23
ENDBRANCH  21  22
ENDBRANCH   1  21
TORSDOF 7
ENDMDL
MODEL 8
REMARK VINA RESULT:    -5.256      2.888      4.977
REMARK INTER + INTRA:          -8.151
REMARK INTER:                  -7.486
REMARK INTRA:                  -0.665
REMARK UNBOUND:                -0.897
REMARK  Name = 
REMARK  7 active torsions:
REMARK  status: ('A' for Active; 'I' for Inactive)
REMARK    1  A    between atoms: N_1  and  C_2
REMARK    2  A    between atoms: C_2  and  C_3
REMARK    3  A    between atoms: C_3  and  C_4
REMARK    4  A    between atoms: C_4  and  C_5
REMARK    5  A    between atoms: C_5  and  N_6
REMARK    6  A    between atoms: C_5  and  C_16
REMARK    7  A    between atoms: C_10  and  C_11
REMARK                            x       y       z     vdW  Elec       q    Type
REMARK                         _______ _______ _______ _____ _____    ______ ____
ROOT
ATOM      1  C   UNL     1      46.831   4.642  13.584  0.00  0.00    +0.000 C 
ENDROOT
BRANCH   1   2
ATOM      2  N   UNL     1      46.897   6.025  14.077  0.00  0.00    +0.000 N 
ATOM      3  C   UNL     1      47.733   6.918  13.395  0.00  0.00    +0.000 A 
ATOM      4  C   UNL     1      47.515   8.304  13.510  0.00  0.00    +0.000 A 
ATOM      5  N   UNL     1      48.371   9.269  13.073  0.00  0.00    +0.000 NA
ATOM      6  C   UNL     1      49.507   8.784  12.504  0.00  0.00    +0.000 A 
ATOM      7  C   UNL     1      49.731   7.428  12.344  0.00  0.00    +0.000 A 
ATOM      8  N   UNL     1      48.854   6.478  12.782  0.00  0.00    +0.000 NA
ATOM      9  H   UNL     1      45.977   6.415  14.244  0.00  0.00    +0.000 HD
BRANCH   6  10
ATOM     10  C   UNL     1      50.562   9.763  12.127  0.00  0.00    +0.000 C 
ATOM     11  N   UNL     1      50.133  10.932  11.555  0.00  0.00    +0.000 N 
ATOM     12  O   UNL     1      51.754   9.558  12.347  0.00  0.00    +0.000 OA
ATOM     13  H   UNL     1      49.137  11.101  11.445  0.00  0.00    +0.000 HD
ATOM     14  H   UNL     1      50.799  11.670  11.368  0.00  0.00    +0.000 HD
ENDBRANCH   6  10
ENDBRANCH   1   2
BRANCH   1  15
ATOM     15  C   UNL     1      45.455   4.367  12.973  0.00  0.00    +0.000 A 
ATOM     16  C   UNL     1      44.416   5.288  13.177  0.00  0.00    +0.000 A 
ATOM     17  C   UNL     1      43.207   5.164  12.487  0.00  0.00    +0.000 A 
ATOM     18  C   UNL     1      43.009   4.100  11.611  0.00  0.00    +0.000 A 
ATOM     19  C   UNL     1      44.012   3.152  11.429  0.00  0.00    +0.000 A 
ATOM     20  C   UNL     1      45.230   3.287  12.099  0.00  0.00    +0.000 A 
ENDBRANCH   1  15
BRANCH   1  21
ATOM     21  C   UNL     1      47.099   3.654  14.750  0.00  0.00    +0.000 C 
BRANCH  21  22
ATOM     22  C   UNL     1      47.448   4.396  16.056  0.00  0.00    +0.000 C 
BRANCH  22  23
ATOM     23  C   UNL     1      47.791   3.489  17.237  0.00  0.00    +0.000 C 
BRANCH  23  24
ATOM     24  N   UNL     1      46.612   2.797  17.749  0.00  0.00    +0.000 NA
ATOM     25  H   UNL     1      46.835   2.384  18.654  0.00  0.00    +0.000 HD
ATOM     26  H   UNL     1      46.381   2.017  17.132  0.00  0.00    +0.000 HD
ENDBRANCH  23  24
ENDBRANCH  22  23
ENDBRANCH  21  22
ENDBRANCH   1  21
TORSDOF 7
ENDMDL
MODEL 9
REMARK VINA RESULT:    -5.209      2.911      7.933
REMARK INTER + INTRA:          -8.086
REMARK INTER:                  -7.087
REMARK INTRA:                  -0.999
REMARK UNBOUND:                -0.897
REMARK  Name = 
REMARK  7 active torsions:
REMARK  status: ('A' for Active; 'I' for Inactive)
REMARK    1  A    between atoms: N_1  and  C_2
REMARK    2  A    between atoms: C_2  and  C_3
REMARK    3  A    between atoms: C_3  and  C_4
REMARK    4  A    between atoms: C_4  and  C_5
REMARK    5  A    between atoms: C_5  and  N_6
REMARK    6  A    between atoms: C_5  and  C_16
REMARK    7  A    between atoms: C_10  and  C_11
REMARK                            x       y       z     vdW  Elec       q    Type
REMARK                         _______ _______ _______ _____ _____    ______ ____
ROOT
ATOM      1  C   UNL     1      48.666   5.590  16.817  0.00  0.00    +0.000 C 
ENDROOT
BRANCH   1   2
ATOM      2  N   UNL     1      48.531   6.227  15.500  0.00  0.00    +0.000 N 
ATOM      3  C   UNL     1      47.559   5.717  14.629  0.00  0.00    +0.000 A 
ATOM      4  C   UNL     1      47.072   6.520  13.580  0.00  0.00    +0.000 A 
ATOM      5  N   UNL     1      46.292   6.078  12.555  0.00  0.00    +0.000 NA
ATOM      6  C   UNL     1      46.013   4.748  12.605  0.00  0.00    +0.000 A 
ATOM      7  C   UNL     1      46.448   3.942  13.643  0.00  0.00    +0.000 A 
ATOM      8  N   UNL     1      47.221   4.410  14.667  0.00  0.00    +0.000 NA
ATOM      9  H   UNL     1      48.490   7.237  15.566  0.00  0.00    +0.000 HD
BRANCH   6  10
ATOM     10  C   UNL     1      45.289   4.150  11.452  0.00  0.00    +0.000 C 
ATOM     11  N   UNL     1      44.995   2.814  11.542  0.00  0.00    +0.000 N 
ATOM     12  O   UNL     1      44.937   4.818  10.482  0.00  0.00    +0.000 OA
ATOM     13  H   UNL     1      45.242   2.301  12.385  0.00  0.00    +0.000 HD
ATOM     14  H   UNL     1      44.422   2.380  10.831  0.00  0.00    +0.000 HD
ENDBRANCH   6  10
ENDBRANCH   1   2
BRANCH   1  15
ATOM     15  C   UNL     1      48.371   6.605  17.924  0.00  0.00    +0.000 A 
ATOM     16  C   UNL     1      48.403   7.976  17.627  0.00  0.00    +0.000 A 
ATOM     17  C   UNL     1      47.963   8.919  18.559  0.00  0.00    +0.000 A 
ATOM     18  C   UNL     1      47.516   8.507  19.811  0.00  0.00    +0.000 A 
ATOM     19  C   UNL     1      47.519   7.154  20.141  0.00  0.00    +0.000 A 
ATOM     20  C   UNL     1      47.935   6.208  19.202  0.00  0.00    +0.000 A 
ENDBRANCH   1  15
BRANCH   1  21
ATOM     21  C   UNL     1      50.102   5.028  16.985  0.00  0.00    +0.000 C 
BRANCH  21  22
ATOM     22  C   UNL     1      50.094   3.633  17.644  0.00  0.00    +0.000 C 
BRANCH  22  23
ATOM     23  C   UNL     1      48.933   2.733  17.228  0.00  0.00    +0.000 C 
BRANCH  23  24
ATOM     24  N   UNL     1      49.214   2.023  15.984  0.00  0.00    +0.000 NA
ATOM     25  H   UNL     1      49.873   1.269  16.172  0.00  0.00    +0.000 HD
ATOM     26  H   UNL     1      49.684   2.652  15.332  0.00  0.00    +0.000 HD
ENDBRANCH  23  24
ENDBRANCH  22  23
ENDBRANCH  21  22
ENDBRANCH   1  21
TORSDOF 7
ENDMDL
