MODEL 1
REMARK VINA RESULT:    -8.310      0.000      0.000
REMARK INTER + INTRA:         -11.698
REMARK INTER:                 -10.739
REMARK INTRA:                  -0.959
REMARK UNBOUND:                -0.959
REMARK  Name = 
REMARK  5 active torsions:
REMARK  status: ('A' for Active; 'I' for Inactive)
REMARK    1  A    between atoms: C_2  and  C_4
REMARK    2  A    between atoms: N_8  and  C_9
REMARK    3  A    between atoms: C_9  and  C_10
REMARK    4  A    between atoms: C_13  and  C_14
REMARK    5  A    between atoms: C_18  and  C_19
REMARK                            x       y       z     vdW  Elec       q    Type
REMARK                         _______ _______ _______ _____ _____    ______ ____
ROOT
ATOM      1  C   UNL     1      44.087   4.672  11.479  0.00  0.00    +0.000 C 
ATOM      2  C   UNL     1      42.630   4.988  11.788  0.00  0.00    +0.000 C 
ATOM      3  C   UNL     1      43.263   5.572  10.571  0.00  0.00    +0.000 C 
ENDROOT
BRANCH   1   8
ATOM      4  C   UNL     1      46.494   2.880   7.353  0.00  0.00    +0.000 A 
ATOM      5  C   UNL     1      46.016   1.755   8.019  0.00  0.00    +0.000 A 
ATOM      6  C   UNL     1      45.327   1.920   9.224  0.00  0.00    +0.000 A 
ATOM      7  C   UNL     1      45.126   3.200   9.738  0.00  0.00    +0.000 A 
ATOM      8  N   UNL     1      44.467   3.324  10.986  0.00  0.00    +0.000 N 
ATOM      9  N   UNL     1      45.550   4.295   9.071  0.00  0.00    +0.000 NA
ATOM     10  C   UNL     1      46.240   4.118   7.918  0.00  0.00    +0.000 A 
ATOM     11  H   UNL     1      44.928   2.731  11.667  0.00  0.00    +0.000 HD
BRANCH   4  13
ATOM     12  N   UNL     1      48.637   2.555   6.248  0.00  0.00    +0.000 N 
ATOM     13  C   UNL     1      47.303   2.815   6.118  0.00  0.00    +0.000 C 
ATOM     14  O   UNL     1      46.796   2.971   5.016  0.00  0.00    +0.000 OA
ATOM     15  H   UNL     1      49.155   2.435   5.386  0.00  0.00    +0.000 HD
ATOM     16  H   UNL     1      49.038   2.166   7.089  0.00  0.00    +0.000 HD
ENDBRANCH   4  13
ENDBRANCH   1   8
BRANCH   1  17
ATOM     17  C   UNL     1      45.176   5.302  12.344  0.00  0.00    +0.000 A 
ATOM     18  C   UNL     1      45.828   4.544  13.309  0.00  0.00    +0.000 A 
ATOM     19  C   UNL     1      46.889   5.070  14.037  0.00  0.00    +0.000 A 
ATOM     20  C   UNL     1      47.387   6.364  13.792  0.00  0.00    +0.000 A 
ATOM     21  C   UNL     1      46.781   7.183  12.799  0.00  0.00    +0.000 A 
ATOM     22  C   UNL     1      45.648   6.619  12.137  0.00  0.00    +0.000 A 
BRANCH  21  23
ATOM     23  C   UNL     1      47.303   8.518  12.332  0.00  0.00    +0.000 A 
ATOM     24  C   UNL     1      46.486   9.666  12.372  0.00  0.00    +0.000 A 
ATOM     25  C   UNL     1      46.934  10.876  11.853  0.00  0.00    +0.000 A 
ATOM     26  N   UNL     1      48.132  11.042  11.266  0.00  0.00    +0.000 NA
ATOM     27  C   UNL     1      48.926   9.957  11.243  0.00  0.00    +0.000 A 
ATOM     28  C   UNL     1      48.577   8.724  11.788  0.00  0.00    +0.000 A 
ENDBRANCH  21  23
BRANCH  20  29
ATOM     29  C   UNL     1      48.585   6.759  14.636  0.00  0.00    +0.000 C 
ATOM     30  F   UNL     1      48.842   5.883  15.655  0.00  0.00    +0.000 F 
ATOM     31  F   UNL     1      49.754   6.838  13.945  0.00  0.00    +0.000 F 
ATOM     32  F   UNL     1      48.415   7.960  15.259  0.00  0.00    +0.000 F 
ENDBRANCH  20  29
ENDBRANCH   1  17
TORSDOF 5
ENDMDL
MODEL 2
REMARK VINA RESULT:    -8.093      1.960      3.828
REMARK INTER + INTRA:         -11.417
REMARK INTER:                 -10.605
REMARK INTRA:                  -0.813
REMARK UNBOUND:                -0.959
REMARK  Name = 
REMARK  5 active torsions:
REMARK  status: ('A' for Active; 'I' for Inactive)
REMARK    1  A    between atoms: C_2  and  C_4
REMARK    2  A    between atoms: N_8  and  C_9
REMARK    3  A    between atoms: C_9  and  C_10
REMARK    4  A    between atoms: C_13  and  C_14
REMARK    5  A    between atoms: C_18  and  C_19
REMARK                            x       y       z     vdW  Elec       q    Type
REMARK                         _______ _______ _______ _____ _____    ______ ____
ROOT
ATOM      1  C   UNL     1      44.139   4.717  11.608  0.00  0.00    +0.000 C 
ATOM      2  C   UNL     1      42.773   5.086  12.169  0.00  0.00    +0.000 C 
ATOM      3  C   UNL     1      43.211   5.667  10.867  0.00  0.00    +0.000 C 
ENDROOT
BRANCH   1   8
ATOM      4  C   UNL     1      46.407   2.892   7.418  0.00  0.00    +0.000 A 
ATOM      5  C   UNL     1      45.786   1.795   8.009  0.00  0.00    +0.000 A 
ATOM      6  C   UNL     1      45.096   1.971   9.212  0.00  0.00    +0.000 A 
ATOM      7  C   UNL     1      45.036   3.235   9.799  0.00  0.00    +0.000 A 
ATOM      8  N   UNL     1      44.369   3.364  11.042  0.00  0.00    +0.000 N 
ATOM      9  N   UNL     1      45.599   4.308   9.204  0.00  0.00    +0.000 NA
ATOM     10  C   UNL     1      46.288   4.117   8.052  0.00  0.00    +0.000 A 
ATOM     11  H   UNL     1      44.743   2.682  11.693  0.00  0.00    +0.000 HD
BRANCH   4  13
ATOM     12  N   UNL     1      48.562   2.548   6.343  0.00  0.00    +0.000 N 
ATOM     13  C   UNL     1      47.229   2.803   6.194  0.00  0.00    +0.000 C 
ATOM     14  O   UNL     1      46.733   2.934   5.083  0.00  0.00    +0.000 OA
ATOM     15  H   UNL     1      49.089   2.412   5.490  0.00  0.00    +0.000 HD
ATOM     16  H   UNL     1      48.955   2.178   7.197  0.00  0.00    +0.000 HD
ENDBRANCH   4  13
ENDBRANCH   1   8
BRANCH   1  17
ATOM     17  C   UNL     1      45.387   5.284  12.280  0.00  0.00    +0.000 A 
ATOM     18  C   UNL     1      45.891   6.519  11.891  0.00  0.00    +0.000 A 
ATOM     19  C   UNL     1      46.965   7.097  12.558  0.00  0.00    +0.000 A 
ATOM     20  C   UNL     1      47.550   6.493  13.687  0.00  0.00    +0.000 A 
ATOM     21  C   UNL     1      47.064   5.240  14.154  0.00  0.00    +0.000 A 
ATOM     22  C   UNL     1      46.011   4.657  13.385  0.00  0.00    +0.000 A 
BRANCH  21  23
ATOM     23  C   UNL     1      47.491   4.559  15.429  0.00  0.00    +0.000 A 
ATOM     24  C   UNL     1      47.878   3.203  15.428  0.00  0.00    +0.000 A 
ATOM     25  C   UNL     1      48.181   2.549  16.618  0.00  0.00    +0.000 A 
ATOM     26  N   UNL     1      48.107   3.126  17.829  0.00  0.00    +0.000 NA
ATOM     27  C   UNL     1      47.759   4.424  17.838  0.00  0.00    +0.000 A 
ATOM     28  C   UNL     1      47.493   5.168  16.691  0.00  0.00    +0.000 A 
ENDBRANCH  21  23
BRANCH  20  29
ATOM     29  C   UNL     1      48.673   7.286  14.329  0.00  0.00    +0.000 C 
ATOM     30  F   UNL     1      48.274   7.997  15.428  0.00  0.00    +0.000 F 
ATOM     31  F   UNL     1      49.714   6.527  14.767  0.00  0.00    +0.000 F 
ATOM     32  F   UNL     1      49.196   8.225  13.491  0.00  0.00    +0.000 F 
ENDBRANCH  20  29
ENDBRANCH   1  17
TORSDOF 5
ENDMDL
MODEL 3
REMARK VINA RESULT:    -7.196      5.416      8.151
REMARK INTER + INTRA:         -10.258
REMARK INTER:                 -10.164
REMARK INTRA:                  -0.094
REMARK UNBOUND:                -0.959
REMARK  Name = 
REMARK  5 active torsions:
REMARK  status: ('A' for Active; 'I' for Inactive)
REMARK    1  A    between atoms: C_2  and  C_4
REMARK    2  A    between atoms: N_8  and  C_9
REMARK    3  A    between atoms: C_9  and  C_10
REMARK    4  A    between atoms: C_13  and  C_14
REMARK    5  A    between atoms: C_18  and  C_19
REMARK                            x       y       z     vdW  Elec       q    Type
REMARK                         _______ _______ _______ _____ _____    ______ ____
ROOT
ATOM      1  C   UNL     1      48.194   4.436  16.856  0.00  0.00    +0.000 C 
ATOM      2  C   UNL     1      47.129   4.183  17.914  0.00  0.00    +0.000 C 
ATOM      3  C   UNL     1      47.644   3.040  17.107  0.00  0.00    +0.000 C 
ENDROOT
BRANCH   1   8
ATOM      4  C   UNL     1      52.389   1.647  17.670  0.00  0.00    +0.000 A 
ATOM      5  C   UNL     1      52.715   2.935  18.087  0.00  0.00    +0.000 A 
ATOM      6  C   UNL     1      51.764   3.952  17.960  0.00  0.00    +0.000 A 
ATOM      7  C   UNL     1      50.510   3.666  17.422  0.00  0.00    +0.000 A 
ATOM      8  N   UNL     1      49.591   4.732  17.264  0.00  0.00    +0.000 N 
ATOM      9  N   UNL     1      50.177   2.408  17.058  0.00  0.00    +0.000 NA
ATOM     10  C   UNL     1      51.118   1.438  17.162  0.00  0.00    +0.000 A 
ATOM     11  H   UNL     1      50.039   5.484  16.752  0.00  0.00    +0.000 HD
BRANCH   4  13
ATOM     12  N   UNL     1      53.047  -0.550  18.480  0.00  0.00    +0.000 N 
ATOM     13  C   UNL     1      53.343   0.519  17.684  0.00  0.00    +0.000 C 
ATOM     14  O   UNL     1      54.353   0.531  16.994  0.00  0.00    +0.000 OA
ATOM     15  H   UNL     1      53.672  -1.344  18.412  0.00  0.00    +0.000 HD
ATOM     16  H   UNL     1      52.122  -0.717  18.849  0.00  0.00    +0.000 HD
ENDBRANCH   4  13
ENDBRANCH   1   8
BRANCH   1  17
ATOM     17  C   UNL     1      47.798   5.161  15.573  0.00  0.00    +0.000 A 
ATOM     18  C   UNL     1      48.623   6.144  15.041  0.00  0.00    +0.000 A 
ATOM     19  C   UNL     1      48.329   6.744  13.822  0.00  0.00    +0.000 A 
ATOM     20  C   UNL     1      47.224   6.346  13.047  0.00  0.00    +0.000 A 
ATOM     21  C   UNL     1      46.353   5.326  13.521  0.00  0.00    +0.000 A 
ATOM     22  C   UNL     1      46.660   4.800  14.813  0.00  0.00    +0.000 A 
BRANCH  21  23
ATOM     23  C   UNL     1      45.230   4.702  12.733  0.00  0.00    +0.000 A 
ATOM     24  C   UNL     1      43.990   5.360  12.599  0.00  0.00    +0.000 A 
ATOM     25  C   UNL     1      42.924   4.743  11.953  0.00  0.00    +0.000 A 
ATOM     26  N   UNL     1      42.974   3.500  11.445  0.00  0.00    +0.000 NA
ATOM     27  C   UNL     1      44.159   2.873  11.550  0.00  0.00    +0.000 A 
ATOM     28  C   UNL     1      45.291   3.439  12.131  0.00  0.00    +0.000 A 
ENDBRANCH  21  23
BRANCH  20  29
ATOM     29  C   UNL     1      47.083   7.064  11.717  0.00  0.00    +0.000 C 
ATOM     30  F   UNL     1      46.759   6.228  10.682  0.00  0.00    +0.000 F 
ATOM     31  F   UNL     1      46.120   8.025  11.699  0.00  0.00    +0.000 F 
ATOM     32  F   UNL     1      48.242   7.661  11.318  0.00  0.00    +0.000 F 
ENDBRANCH  20  29
ENDBRANCH   1  17
TORSDOF 5
ENDMDL
MODEL 4
REMARK VINA RESULT:    -6.901      3.547      6.270
REMARK INTER + INTRA:          -9.877
REMARK INTER:                  -8.671
REMARK INTRA:                  -1.206
REMARK UNBOUND:                -0.959
REMARK  Name = 
REMARK  5 active torsions:
REMARK  status: ('A' for Active; 'I' for Inactive)
REMARK    1  A    between atoms: C_2  and  C_4
REMARK    2  A    between atoms: N_8  and  C_9
REMARK    3  A    between atoms: C_9  and  C_10
REMARK    4  A    between atoms: C_13  and  C_14
REMARK    5  A    between atoms: C_18  and  C_19
REMARK                            x       y       z     vdW  Elec       q    Type
REMARK                         _______ _______ _______ _____ _____    ______ ____
ROOT
ATOM      1  C   UNL     1      48.377   8.289  12.730  0.00  0.00    +0.000 C 
ATOM      2  C   UNL     1      49.451   9.018  11.933  0.00  0.00    +0.000 C 
ATOM      3  C   UNL     1      49.347   7.534  11.833  0.00  0.00    +0.000 C 
ENDROOT
BRANCH   1   8
ATOM      4  C   UNL     1      44.638   4.925  11.875  0.00  0.00    +0.000 A 
ATOM      5  C   UNL     1      44.130   6.154  11.464  0.00  0.00    +0.000 A 
ATOM      6  C   UNL     1      44.921   7.298  11.603  0.00  0.00    +0.000 A 
ATOM      7  C   UNL     1      46.201   7.194  12.146  0.00  0.00    +0.000 A 
ATOM      8  N   UNL     1      46.954   8.382  12.316  0.00  0.00    +0.000 N 
ATOM      9  N   UNL     1      46.713   5.996  12.504  0.00  0.00    +0.000 NA
ATOM     10  C   UNL     1      45.924   4.900  12.388  0.00  0.00    +0.000 A 
ATOM     11  H   UNL     1      46.399   9.057  12.831  0.00  0.00    +0.000 HD
BRANCH   4  13
ATOM     12  N   UNL     1      44.302   2.633  12.620  0.00  0.00    +0.000 N 
ATOM     13  C   UNL     1      43.859   3.669  11.849  0.00  0.00    +0.000 C 
ATOM     14  O   UNL     1      42.843   3.565  11.175  0.00  0.00    +0.000 OA
ATOM     15  H   UNL     1      43.710   1.813  12.648  0.00  0.00    +0.000 HD
ATOM     16  H   UNL     1      44.962   2.757  13.374  0.00  0.00    +0.000 HD
ENDBRANCH   4  13
ENDBRANCH   1   8
BRANCH   1  17
ATOM     17  C   UNL     1      48.536   8.174  14.244  0.00  0.00    +0.000 A 
ATOM     18  C   UNL     1      48.163   9.228  15.068  0.00  0.00    +0.000 A 
ATOM     19  C   UNL     1      48.205   9.105  16.452  0.00  0.00    +0.000 A 
ATOM     20  C   UNL     1      48.568   7.898  17.079  0.00  0.00    +0.000 A 
ATOM     21  C   UNL     1      48.935   6.771  16.292  0.00  0.00    +0.000 A 
ATOM     22  C   UNL     1      48.947   6.979  14.879  0.00  0.00    +0.000 A 
BRANCH  21  23
ATOM     23  C   UNL     1      49.196   5.384  16.822  0.00  0.00    +0.000 A 
ATOM     24  C   UNL     1      50.474   5.021  17.293  0.00  0.00    +0.000 A 
ATOM     25  C   UNL     1      50.739   3.714  17.693  0.00  0.00    +0.000 A 
ATOM     26  N   UNL     1      49.838   2.719  17.642  0.00  0.00    +0.000 NA
ATOM     27  C   UNL     1      48.611   3.061  17.214  0.00  0.00    +0.000 A 
ATOM     28  C   UNL     1      48.247   4.354  16.847  0.00  0.00    +0.000 A 
ENDBRANCH  21  23
BRANCH  20  29
ATOM     29  C   UNL     1      48.505   7.919  18.595  0.00  0.00    +0.000 C 
ATOM     30  F   UNL     1      48.120   9.130  19.104  0.00  0.00    +0.000 F 
ATOM     31  F   UNL     1      47.631   7.026  19.131  0.00  0.00    +0.000 F 
ATOM     32  F   UNL     1      49.716   7.680  19.173  0.00  0.00    +0.000 F 
ENDBRANCH  20  29
ENDBRANCH   1  17
TORSDOF 5
ENDMDL
MODEL 5
REMARK VINA RESULT:    -6.573      5.488      7.537
REMARK INTER + INTRA:          -9.454
REMARK INTER:                  -8.865
REMARK INTRA:                  -0.589
REMARK UNBOUND:                -0.959
REMARK  Name = 
REMARK  5 active torsions:
REMARK  status: ('A' for Active; 'I' for Inactive)
REMARK    1  A    between atoms: C_2  and  C_4
REMARK    2  A    between atoms: N_8  and  C_9
REMARK    3  A    between atoms: C_9  and  C_10
REMARK    4  A    between atoms: C_13  and  C_14
REMARK    5  A    between atoms: C_18  and  C_19
REMARK                            x       y       z     vdW  Elec       q    Type
REMARK                         _______ _______ _______ _____ _____    ______ ____
ROOT
ATOM      1  C   UNL     1      48.161   4.841  16.948  0.00  0.00    +0.000 C 
ATOM      2  C   UNL     1      47.184   5.146  18.075  0.00  0.00    +0.000 C 
ATOM      3  C   UNL     1      47.504   3.727  17.748  0.00  0.00    +0.000 C 
ENDROOT
BRANCH   1   8
ATOM      4  C   UNL     1      52.261   1.894  17.677  0.00  0.00    +0.000 A 
ATOM      5  C   UNL     1      52.710   3.201  17.849  0.00  0.00    +0.000 A 
ATOM      6  C   UNL     1      51.810   4.257  17.679  0.00  0.00    +0.000 A 
ATOM      7  C   UNL     1      50.483   3.990  17.346  0.00  0.00    +0.000 A 
ATOM      8  N   UNL     1      49.613   5.088  17.135  0.00  0.00    +0.000 N 
ATOM      9  N   UNL     1      50.035   2.722  17.223  0.00  0.00    +0.000 NA
ATOM     10  C   UNL     1      50.925   1.709  17.363  0.00  0.00    +0.000 A 
ATOM     11  H   UNL     1      50.033   5.721  16.463  0.00  0.00    +0.000 HD
BRANCH   4  13
ATOM     12  N   UNL     1      53.375   0.020  16.597  0.00  0.00    +0.000 N 
ATOM     13  C   UNL     1      53.144   0.711  17.751  0.00  0.00    +0.000 C 
ATOM     14  O   UNL     1      53.664   0.370  18.805  0.00  0.00    +0.000 OA
ATOM     15  H   UNL     1      54.045  -0.737  16.656  0.00  0.00    +0.000 HD
ATOM     16  H   UNL     1      53.190   0.407  15.682  0.00  0.00    +0.000 HD
ENDBRANCH   4  13
ENDBRANCH   1   8
BRANCH   1  17
ATOM     17  C   UNL     1      47.714   5.072  15.506  0.00  0.00    +0.000 A 
ATOM     18  C   UNL     1      46.799   4.213  14.912  0.00  0.00    +0.000 A 
ATOM     19  C   UNL     1      46.304   4.464  13.637  0.00  0.00    +0.000 A 
ATOM     20  C   UNL     1      46.659   5.621  12.917  0.00  0.00    +0.000 A 
ATOM     21  C   UNL     1      47.573   6.555  13.480  0.00  0.00    +0.000 A 
ATOM     22  C   UNL     1      48.107   6.208  14.759  0.00  0.00    +0.000 A 
BRANCH  21  23
ATOM     23  C   UNL     1      47.921   7.898  12.891  0.00  0.00    +0.000 A 
ATOM     24  C   UNL     1      46.998   8.963  12.930  0.00  0.00    +0.000 A 
ATOM     25  C   UNL     1      47.282  10.173  12.303  0.00  0.00    +0.000 A 
ATOM     26  N   UNL     1      48.407  10.410  11.609  0.00  0.00    +0.000 NA
ATOM     27  C   UNL     1      49.302   9.407  11.584  0.00  0.00    +0.000 A 
ATOM     28  C   UNL     1      49.122   8.186  12.230  0.00  0.00    +0.000 A 
ENDBRANCH  21  23
BRANCH  20  29
ATOM     29  C   UNL     1      45.984   5.767  11.566  0.00  0.00    +0.000 C 
ATOM     30  F   UNL     1      44.948   6.661  11.573  0.00  0.00    +0.000 F 
ATOM     31  F   UNL     1      46.807   6.201  10.574  0.00  0.00    +0.000 F 
ATOM     32  F   UNL     1      45.423   4.604  11.132  0.00  0.00    +0.000 F 
ENDBRANCH  20  29
ENDBRANCH   1  17
TORSDOF 5
ENDMDL
MODEL 6
REMARK VINA RESULT:    -6.046      5.317      8.635
REMARK INTER + INTRA:          -8.772
REMARK INTER:                  -8.386
REMARK INTRA:                  -0.386
REMARK UNBOUND:                -0.959
REMARK  Name = 
REMARK  5 active torsions:
REMARK  status: ('A' for Active; 'I' for Inactive)
REMARK    1  A    between atoms: C_2  and  C_4
REMARK    2  A    between atoms: N_8  and  C_9
REMARK    3  A    between atoms: C_9  and  C_10
REMARK    4  A    between atoms: C_13  and  C_14
REMARK    5  A    between atoms: C_18  and  C_19
REMARK                            x       y       z     vdW  Elec       q    Type
REMARK                         _______ _______ _______ _____ _____    ______ ____
ROOT
ATOM      1  C   UNL     1      48.037   4.296  16.897  0.00  0.00    +0.000 C 
ATOM      2  C   UNL     1      47.196   3.107  17.339  0.00  0.00    +0.000 C 
ATOM      3  C   UNL     1      48.557   2.872  16.778  0.00  0.00    +0.000 C 
ENDROOT
BRANCH   1   8
ATOM      4  C   UNL     1      52.794   5.251  18.475  0.00  0.00    +0.000 A 
ATOM      5  C   UNL     1      51.967   5.940  19.358  0.00  0.00    +0.000 A 
ATOM      6  C   UNL     1      50.583   5.899  19.165  0.00  0.00    +0.000 A 
ATOM      7  C   UNL     1      50.052   5.171  18.101  0.00  0.00    +0.000 A 
ATOM      8  N   UNL     1      48.648   5.192  17.910  0.00  0.00    +0.000 N 
ATOM      9  N   UNL     1      50.850   4.465  17.271  0.00  0.00    +0.000 NA
ATOM     10  C   UNL     1      52.191   4.537  17.453  0.00  0.00    +0.000 A 
ATOM     11  H   UNL     1      48.331   6.155  17.881  0.00  0.00    +0.000 HD
BRANCH   4  13
ATOM     12  N   UNL     1      54.886   6.450  18.154  0.00  0.00    +0.000 N 
ATOM     13  C   UNL     1      54.270   5.294  18.537  0.00  0.00    +0.000 C 
ATOM     14  O   UNL     1      54.918   4.335  18.933  0.00  0.00    +0.000 OA
ATOM     15  H   UNL     1      55.890   6.484  18.281  0.00  0.00    +0.000 HD
ATOM     16  H   UNL     1      54.397   7.331  18.078  0.00  0.00    +0.000 HD
ENDBRANCH   4  13
ENDBRANCH   1   8
BRANCH   1  17
ATOM     17  C   UNL     1      47.643   5.042  15.625  0.00  0.00    +0.000 A 
ATOM     18  C   UNL     1      48.470   6.032  15.109  0.00  0.00    +0.000 A 
ATOM     19  C   UNL     1      48.178   6.652  13.899  0.00  0.00    +0.000 A 
ATOM     20  C   UNL     1      47.073   6.268  13.117  0.00  0.00    +0.000 A 
ATOM     21  C   UNL     1      46.200   5.242  13.574  0.00  0.00    +0.000 A 
ATOM     22  C   UNL     1      46.505   4.695  14.858  0.00  0.00    +0.000 A 
BRANCH  21  23
ATOM     23  C   UNL     1      45.077   4.632  12.775  0.00  0.00    +0.000 A 
ATOM     24  C   UNL     1      45.265   3.424  12.073  0.00  0.00    +0.000 A 
ATOM     25  C   UNL     1      44.259   2.911  11.259  0.00  0.00    +0.000 A 
ATOM     26  N   UNL     1      43.076   3.515  11.060  0.00  0.00    +0.000 NA
ATOM     27  C   UNL     1      42.880   4.657  11.743  0.00  0.00    +0.000 A 
ATOM     28  C   UNL     1      43.811   5.211  12.619  0.00  0.00    +0.000 A 
ENDBRANCH  21  23
BRANCH  20  29
ATOM     29  C   UNL     1      46.934   7.007  11.798  0.00  0.00    +0.000 C 
ATOM     30  F   UNL     1      46.794   6.173  10.722  0.00  0.00    +0.000 F 
ATOM     31  F   UNL     1      45.859   7.837  11.733  0.00  0.00    +0.000 F 
ATOM     32  F   UNL     1      48.031   7.759  11.501  0.00  0.00    +0.000 F 
ENDBRANCH  20  29
ENDBRANCH   1  17
TORSDOF 5
ENDMDL
MODEL 7
REMARK VINA RESULT:    -6.036      5.177      8.258
REMARK INTER + INTRA:          -8.760
REMARK INTER:                  -8.117
REMARK INTRA:                  -0.642
REMARK UNBOUND:                -0.959
REMARK  Name = 
REMARK  5 active torsions:
REMARK  status: ('A' for Active; 'I' for Inactive)
REMARK    1  A    between atoms: C_2  and  C_4
REMARK    2  A    between atoms: N_8  and  C_9
REMARK    3  A    between atoms: C_9  and  C_10
REMARK    4  A    between atoms: C_13  and  C_14
REMARK    5  A    between atoms: C_18  and  C_19
REMARK                            x       y       z     vdW  Elec       q    Type
REMARK                         _______ _______ _______ _____ _____    ______ ____
ROOT
ATOM      1  C   UNL     1      49.780   6.984  17.431  0.00  0.00    +0.000 C 
ATOM      2  C   UNL     1      49.049   7.816  18.476  0.00  0.00    +0.000 C 
ATOM      3  C   UNL     1      48.677   6.384  18.290  0.00  0.00    +0.000 C 
ENDROOT
BRANCH   1   8
ATOM      4  C   UNL     1      52.175   2.490  17.737  0.00  0.00    +0.000 A 
ATOM      5  C   UNL     1      53.121   3.439  18.115  0.00  0.00    +0.000 A 
ATOM      6  C   UNL     1      52.769   4.792  18.102  0.00  0.00    +0.000 A 
ATOM      7  C   UNL     1      51.484   5.171  17.717  0.00  0.00    +0.000 A 
ATOM      8  N   UNL     1      51.180   6.554  17.670  0.00  0.00    +0.000 N 
ATOM      9  N   UNL     1      50.552   4.249  17.393  0.00  0.00    +0.000 NA
ATOM     10  C   UNL     1      50.915   2.943  17.383  0.00  0.00    +0.000 A 
ATOM     11  H   UNL     1      51.879   7.029  17.110  0.00  0.00    +0.000 HD
BRANCH   4  13
ATOM     12  N   UNL     1      51.540   0.177  18.143  0.00  0.00    +0.000 N 
ATOM     13  C   UNL     1      52.464   1.044  17.635  0.00  0.00    +0.000 C 
ATOM     14  O   UNL     1      53.486   0.636  17.101  0.00  0.00    +0.000 OA
ATOM     15  H   UNL     1      51.721  -0.808  17.991  0.00  0.00    +0.000 HD
ATOM     16  H   UNL     1      50.589   0.449  18.346  0.00  0.00    +0.000 HD
ENDBRANCH   4  13
ENDBRANCH   1   8
BRANCH   1  17
ATOM     17  C   UNL     1      49.498   7.248  15.954  0.00  0.00    +0.000 A 
ATOM     18  C   UNL     1      50.486   7.785  15.138  0.00  0.00    +0.000 A 
ATOM     19  C   UNL     1      50.282   7.938  13.771  0.00  0.00    +0.000 A 
ATOM     20  C   UNL     1      49.098   7.505  13.145  0.00  0.00    +0.000 A 
ATOM     21  C   UNL     1      48.056   6.922  13.919  0.00  0.00    +0.000 A 
ATOM     22  C   UNL     1      48.290   6.860  15.327  0.00  0.00    +0.000 A 
BRANCH  21  23
ATOM     23  C   UNL     1      46.810   6.282  13.363  0.00  0.00    +0.000 A 
ATOM     24  C   UNL     1      46.709   4.881  13.247  0.00  0.00    +0.000 A 
ATOM     25  C   UNL     1      45.599   4.295  12.647  0.00  0.00    +0.000 A 
ATOM     26  N   UNL     1      44.578   4.992  12.121  0.00  0.00    +0.000 NA
ATOM     27  C   UNL     1      44.656   6.328  12.245  0.00  0.00    +0.000 A 
ATOM     28  C   UNL     1      45.703   6.992  12.879  0.00  0.00    +0.000 A 
ENDBRANCH  21  23
BRANCH  20  29
ATOM     29  C   UNL     1      49.064   7.695  11.639  0.00  0.00    +0.000 C 
ATOM     30  F   UNL     1      48.137   6.905  11.015  0.00  0.00    +0.000 F 
ATOM     31  F   UNL     1      48.763   8.960  11.242  0.00  0.00    +0.000 F 
ATOM     32  F   UNL     1      50.244   7.365  11.043  0.00  0.00    +0.000 F 
ENDBRANCH  20  29
ENDBRANCH   1  17
TORSDOF 5
ENDMDL
MODEL 8
REMARK VINA RESULT:    -5.617      4.846      7.710
REMARK INTER + INTRA:          -8.218
REMARK INTER:                  -7.684
REMARK INTRA:                  -0.534
REMARK UNBOUND:                -0.959
REMARK  Name = 
REMARK  5 active torsions:
REMARK  status: ('A' for Active; 'I' for Inactive)
REMARK    1  A    between atoms: C_2  and  C_4
REMARK    2  A    between atoms: N_8  and  C_9
REMARK    3  A    between atoms: C_9  and  C_10
REMARK    4  A    between atoms: C_13  and  C_14
REMARK    5  A    between atoms: C_18  and  C_19
REMARK                            x       y       z     vdW  Elec       q    Type
REMARK                         _______ _______ _______ _____ _____    ______ ____
ROOT
ATOM      1  C   UNL     1      47.726   4.394  16.524  0.00  0.00    +0.000 C 
ATOM      2  C   UNL     1      47.157   3.182  17.248  0.00  0.00    +0.000 C 
ATOM      3  C   UNL     1      48.584   3.172  16.816  0.00  0.00    +0.000 C 
ENDROOT
BRANCH   1   8
ATOM      4  C   UNL     1      51.882   7.181  17.519  0.00  0.00    +0.000 A 
ATOM      5  C   UNL     1      50.867   7.745  18.287  0.00  0.00    +0.000 A 
ATOM      6  C   UNL     1      49.577   7.212  18.206  0.00  0.00    +0.000 A 
ATOM      7  C   UNL     1      49.326   6.128  17.366  0.00  0.00    +0.000 A 
ATOM      8  N   UNL     1      47.997   5.647  17.274  0.00  0.00    +0.000 N 
ATOM      9  N   UNL     1      50.319   5.551  16.654  0.00  0.00    +0.000 NA
ATOM     10  C   UNL     1      51.559   6.096  16.722  0.00  0.00    +0.000 A 
ATOM     11  H   UNL     1      47.377   6.420  17.058  0.00  0.00    +0.000 HD
BRANCH   4  13
ATOM     12  N   UNL     1      53.422   9.004  17.046  0.00  0.00    +0.000 N 
ATOM     13  C   UNL     1      53.259   7.716  17.467  0.00  0.00    +0.000 C 
ATOM     14  O   UNL     1      54.219   7.036  17.804  0.00  0.00    +0.000 OA
ATOM     15  H   UNL     1      54.363   9.374  17.094  0.00  0.00    +0.000 HD
ATOM     16  H   UNL     1      52.662   9.669  17.014  0.00  0.00    +0.000 HD
ENDBRANCH   4  13
ENDBRANCH   1   8
BRANCH   1  17
ATOM     17  C   UNL     1      47.294   4.661  15.085  0.00  0.00    +0.000 A 
ATOM     18  C   UNL     1      46.680   3.660  14.342  0.00  0.00    +0.000 A 
ATOM     19  C   UNL     1      46.190   3.914  13.066  0.00  0.00    +0.000 A 
ATOM     20  C   UNL     1      46.238   5.199  12.494  0.00  0.00    +0.000 A 
ATOM     21  C   UNL     1      46.831   6.275  13.213  0.00  0.00    +0.000 A 
ATOM     22  C   UNL     1      47.386   5.939  14.486  0.00  0.00    +0.000 A 
BRANCH  21  23
ATOM     23  C   UNL     1      46.814   7.721  12.788  0.00  0.00    +0.000 A 
ATOM     24  C   UNL     1      45.619   8.468  12.816  0.00  0.00    +0.000 A 
ATOM     25  C   UNL     1      45.585   9.773  12.335  0.00  0.00    +0.000 A 
ATOM     26  N   UNL     1      46.644  10.401  11.797  0.00  0.00    +0.000 NA
ATOM     27  C   UNL     1      47.793   9.703  11.786  0.00  0.00    +0.000 A 
ATOM     28  C   UNL     1      47.928   8.415  12.296  0.00  0.00    +0.000 A 
ENDBRANCH  21  23
BRANCH  20  29
ATOM     29  C   UNL     1      45.607   5.313  11.119  0.00  0.00    +0.000 C 
ATOM     30  F   UNL     1      46.401   5.958  10.210  0.00  0.00    +0.000 F 
ATOM     31  F   UNL     1      45.316   4.118  10.537  0.00  0.00    +0.000 F 
ATOM     32  F   UNL     1      44.452   6.037  11.131  0.00  0.00    +0.000 F 
ENDBRANCH  20  29
ENDBRANCH   1  17
TORSDOF 5
ENDMDL
MODEL 9
REMARK VINA RESULT:    -5.567      4.066      6.233
REMARK INTER + INTRA:          -8.153
REMARK INTER:                  -7.094
REMARK INTRA:                  -1.059
REMARK UNBOUND:                -0.959
REMARK  Name = 
REMARK  5 active torsions:
REMARK  status: ('A' for Active; 'I' for Inactive)
REMARK    1  A    between atoms: C_2  and  C_4
REMARK    2  A    between atoms: N_8  and  C_9
REMARK    3  A    between atoms: C_9  and  C_10
REMARK    4  A    between atoms: C_13  and  C_14
REMARK    5  A    between atoms: C_18  and  C_19
REMARK                            x       y       z     vdW  Elec       q    Type
REMARK                         _______ _______ _______ _____ _____    ______ ____
ROOT
ATOM      1  C   UNL     1      48.455   7.999  13.661  0.00  0.00    +0.000 C 
ATOM      2  C   UNL     1      49.573   8.835  13.053  0.00  0.00    +0.000 C 
ATOM      3  C   UNL     1      49.466   7.390  12.701  0.00  0.00    +0.000 C 
ENDROOT
BRANCH   1   8
ATOM      4  C   UNL     1      44.737   4.875  12.098  0.00  0.00    +0.000 A 
ATOM      5  C   UNL     1      44.261   6.161  11.862  0.00  0.00    +0.000 A 
ATOM      6  C   UNL     1      45.054   7.256  12.221  0.00  0.00    +0.000 A 
ATOM      7  C   UNL     1      46.303   7.046  12.803  0.00  0.00    +0.000 A 
ATOM      8  N   UNL     1      47.056   8.179  13.197  0.00  0.00    +0.000 N 
ATOM      9  N   UNL     1      46.785   5.798  12.991  0.00  0.00    +0.000 NA
ATOM     10  C   UNL     1      45.994   4.747  12.664  0.00  0.00    +0.000 A 
ATOM     11  H   UNL     1      46.481   8.773  13.784  0.00  0.00    +0.000 HD
BRANCH   4  13
ATOM     12  N   UNL     1      44.286   2.522  12.522  0.00  0.00    +0.000 N 
ATOM     13  C   UNL     1      43.949   3.652  11.834  0.00  0.00    +0.000 C 
ATOM     14  O   UNL     1      43.018   3.654  11.041  0.00  0.00    +0.000 OA
ATOM     15  H   UNL     1      43.683   1.720  12.385  0.00  0.00    +0.000 HD
ATOM     16  H   UNL     1      44.855   2.539  13.356  0.00  0.00    +0.000 HD
ENDBRANCH   4  13
ENDBRANCH   1   8
BRANCH   1  17
ATOM     17  C   UNL     1      48.533   7.632  15.140  0.00  0.00    +0.000 A 
ATOM     18  C   UNL     1      49.011   6.386  15.528  0.00  0.00    +0.000 A 
ATOM     19  C   UNL     1      49.184   6.071  16.871  0.00  0.00    +0.000 A 
ATOM     20  C   UNL     1      48.942   7.010  17.891  0.00  0.00    +0.000 A 
ATOM     21  C   UNL     1      48.476   8.314  17.560  0.00  0.00    +0.000 A 
ATOM     22  C   UNL     1      48.244   8.556  16.172  0.00  0.00    +0.000 A 
BRANCH  21  23
ATOM     23  C   UNL     1      48.322   9.457  18.531  0.00  0.00    +0.000 A 
ATOM     24  C   UNL     1      49.404  10.317  18.810  0.00  0.00    +0.000 A 
ATOM     25  C   UNL     1      49.290  11.312  19.775  0.00  0.00    +0.000 A 
ATOM     26  N   UNL     1      48.188  11.514  20.516  0.00  0.00    +0.000 NA
ATOM     27  C   UNL     1      47.144  10.712  20.242  0.00  0.00    +0.000 A 
ATOM     28  C   UNL     1      47.155   9.728  19.256  0.00  0.00    +0.000 A 
ENDBRANCH  21  23
BRANCH  20  29
ATOM     29  C   UNL     1      49.237   6.521  19.296  0.00  0.00    +0.000 C 
ATOM     30  F   UNL     1      48.158   6.599  20.134  0.00  0.00    +0.000 F 
ATOM     31  F   UNL     1      49.633   5.221  19.364  0.00  0.00    +0.000 F 
ATOM     32  F   UNL     1      50.200   7.258  19.917  0.00  0.00    +0.000 F 
ENDBRANCH  20  29
ENDBRANCH   1  17
TORSDOF 5
ENDMDL
