MODEL 1
REMARK VINA RESULT:    -7.400      0.000      0.000
REMARK INTER + INTRA:         -12.776
REMARK INTER:                 -11.077
REMARK INTRA:                  -1.700
REMARK UNBOUND:                -1.700
REMARK  Name = 
REMARK  10 active torsions:
REMARK  status: ('A' for Active; 'I' for Inactive)
REMARK    1  A    between atoms: C_1  and  C_2
REMARK    2  A    between atoms: C_2  and  N_3
REMARK    3  A    between atoms: C_2  and  C_20
REMARK    4  A    between atoms: N_3  and  C_4
REMARK    5  A    between atoms: C_4  and  C_5
REMARK    6  A    between atoms: C_8  and  C_9
REMARK    7  A    between atoms: C_9  and  C_10
REMARK    8  A    between atoms: C_9  and  C_12
REMARK    9  A    between atoms: C_10  and  O_11
REMARK   10  A    between atoms: C_12  and  N_13
REMARK                            x       y       z     vdW  Elec       q    Type
REMARK                         _______ _______ _______ _____ _____    ______ ____
ROOT
ATOM      1  C   UNL     1      46.845   8.635  13.025  0.00  0.00    +0.000 C 
ENDROOT
BRANCH   1   2
ATOM      2  C   UNL     1      46.141   7.447  12.408  0.00  0.00    +0.000 A 
ATOM      3  C   UNL     1      46.667   6.753  11.315  0.00  0.00    +0.000 A 
ATOM      4  C   UNL     1      46.049   5.590  10.838  0.00  0.00    +0.000 A 
ATOM      5  C   UNL     1      44.878   5.092  11.438  0.00  0.00    +0.000 A 
ATOM      6  C   UNL     1      44.366   5.773  12.548  0.00  0.00    +0.000 A 
ATOM      7  C   UNL     1      44.986   6.935  13.020  0.00  0.00    +0.000 A 
BRANCH   5   8
ATOM      8  C   UNL     1      44.198   3.845  10.875  0.00  0.00    +0.000 C 
BRANCH   8   9
ATOM      9  C   UNL     1      43.317   3.132  11.920  0.00  0.00    +0.000 C 
BRANCH   9  10
ATOM     10  O   UNL     1      43.044   1.776  11.576  0.00  0.00    +0.000 OA
ATOM     11  H   UNL     1      43.548   1.585  10.766  0.00  0.00    +0.000 HD
ENDBRANCH   9  10
ENDBRANCH   8   9
BRANCH   8  12
ATOM     12  C   UNL     1      45.200   2.880  10.185  0.00  0.00    +0.000 C 
BRANCH  12  13
ATOM     13  N   UNL     1      44.794   2.449   8.826  0.00  0.00    +0.000 NA
ATOM     14  C   UNL     1      45.672   1.382   8.316  0.00  0.00    +0.000 C 
ATOM     15  C   UNL     1      46.799   2.119   7.618  0.00  0.00    +0.000 C 
ATOM     16  C   UNL     1      46.075   3.266   6.945  0.00  0.00    +0.000 C 
ATOM     17  C   UNL     1      44.860   3.528   7.826  0.00  0.00    +0.000 C 
ENDBRANCH  12  13
ENDBRANCH   8  12
ENDBRANCH   5   8
ENDBRANCH   1   2
BRANCH   1  18
ATOM     18  N   UNL     1      47.343   8.411  14.382  0.00  0.00    +0.000 NA
ATOM     19  H   UNL     1      46.600   8.029  14.974  0.00  0.00    +0.000 HD
BRANCH  18  21
ATOM     20  C   UNL     1      49.781   8.264  14.012  0.00  0.00    +0.000 C 
ATOM     21  C   UNL     1      48.506   7.514  14.411  0.00  0.00    +0.000 C 
BRANCH  21  22
ATOM     22  C   UNL     1      48.681   6.824  15.753  0.00  0.00    +0.000 A 
ATOM     23  C   UNL     1      49.357   7.408  16.814  0.00  0.00    +0.000 A 
ATOM     24  S   UNL     1      49.311   6.477  18.243  0.00  0.00    +0.000 S 
ATOM     25  C   UNL     1      48.457   5.224  17.470  0.00  0.00    +0.000 A 
ATOM     26  N   UNL     1      48.118   4.088  18.138  0.00  0.00    +0.000 NA
ATOM     27  C   UNL     1      47.513   3.208  17.413  0.00  0.00    +0.000 A 
ATOM     28  N   UNL     1      47.206   3.362  16.084  0.00  0.00    +0.000 N 
ATOM     29  C   UNL     1      47.514   4.498  15.370  0.00  0.00    +0.000 A 
ATOM     30  O   UNL     1      47.246   4.593  14.180  0.00  0.00    +0.000 OA
ATOM     31  C   UNL     1      48.197   5.519  16.144  0.00  0.00    +0.000 A 
ATOM     32  H   UNL     1      46.752   2.626  15.567  0.00  0.00    +0.000 HD
ENDBRANCH  21  22
ENDBRANCH  18  21
ENDBRANCH   1  18
TORSDOF 9
ENDMDL
MODEL 2
REMARK VINA RESULT:    -7.301      2.684      3.353
REMARK INTER + INTRA:         -12.629
REMARK INTER:                 -11.433
REMARK INTRA:                  -1.196
REMARK UNBOUND:                -1.700
REMARK  Name = 
REMARK  10 active torsions:
REMARK  status: ('A' for Active; 'I' for Inactive)
REMARK    1  A    between atoms: C_1  and  C_2
REMARK    2  A    between atoms: C_2  and  N_3
REMARK    3  A    between atoms: C_2  and  C_20
REMARK    4  A    between atoms: N_3  and  C_4
REMARK    5  A    between atoms: C_4  and  C_5
REMARK    6  A    between atoms: C_8  and  C_9
REMARK    7  A    between atoms: C_9  and  C_10
REMARK    8  A    between atoms: C_9  and  C_12
REMARK    9  A    between atoms: C_10  and  O_11
REMARK   10  A    between atoms: C_12  and  N_13
REMARK                            x       y       z     vdW  Elec       q    Type
REMARK                         _______ _______ _______ _____ _____    ______ ____
ROOT
ATOM      1  C   UNL     1      48.594   6.146  15.370  0.00  0.00    +0.000 C 
ENDROOT
BRANCH   1   2
ATOM      2  C   UNL     1      47.575   5.868  14.287  0.00  0.00    +0.000 A 
ATOM      3  C   UNL     1      47.489   6.643  13.127  0.00  0.00    +0.000 A 
ATOM      4  C   UNL     1      46.611   6.293  12.094  0.00  0.00    +0.000 A 
ATOM      5  C   UNL     1      45.785   5.159  12.197  0.00  0.00    +0.000 A 
ATOM      6  C   UNL     1      45.889   4.370  13.347  0.00  0.00    +0.000 A 
ATOM      7  C   UNL     1      46.767   4.724  14.377  0.00  0.00    +0.000 A 
BRANCH   5   8
ATOM      8  C   UNL     1      44.804   4.819  11.074  0.00  0.00    +0.000 C 
BRANCH   8   9
ATOM      9  C   UNL     1      43.380   5.332  11.362  0.00  0.00    +0.000 C 
BRANCH   9  10
ATOM     10  O   UNL     1      42.417   4.283  11.409  0.00  0.00    +0.000 OA
ATOM     11  H   UNL     1      42.810   3.519  10.954  0.00  0.00    +0.000 HD
ENDBRANCH   9  10
ENDBRANCH   8   9
BRANCH   8  12
ATOM     12  C   UNL     1      44.829   3.313  10.698  0.00  0.00    +0.000 C 
BRANCH  12  13
ATOM     13  N   UNL     1      44.352   3.019   9.325  0.00  0.00    +0.000 NA
ATOM     14  C   UNL     1      44.763   1.674   8.889  0.00  0.00    +0.000 C 
ATOM     15  C   UNL     1      46.121   1.882   8.248  0.00  0.00    +0.000 C 
ATOM     16  C   UNL     1      45.940   3.192   7.510  0.00  0.00    +0.000 C 
ATOM     17  C   UNL     1      44.885   3.945   8.311  0.00  0.00    +0.000 C 
ENDBRANCH  12  13
ENDBRANCH   8  12
ENDBRANCH   5   8
ENDBRANCH   1   2
BRANCH   1  18
ATOM     18  N   UNL     1      49.024   4.966  16.120  0.00  0.00    +0.000 NA
ATOM     19  H   UNL     1      49.808   4.510  15.644  0.00  0.00    +0.000 HD
BRANCH  18  21
ATOM     20  C   UNL     1      48.299   4.889  18.479  0.00  0.00    +0.000 C 
ATOM     21  C   UNL     1      49.408   5.289  17.500  0.00  0.00    +0.000 C 
BRANCH  21  22
ATOM     22  C   UNL     1      50.734   4.666  17.902  0.00  0.00    +0.000 A 
ATOM     23  C   UNL     1      51.761   5.398  18.480  0.00  0.00    +0.000 A 
ATOM     24  S   UNL     1      53.097   4.441  18.942  0.00  0.00    +0.000 S 
ATOM     25  C   UNL     1      52.384   3.033  18.310  0.00  0.00    +0.000 A 
ATOM     26  N   UNL     1      53.031   1.836  18.354  0.00  0.00    +0.000 NA
ATOM     27  C   UNL     1      52.388   0.865  17.796  0.00  0.00    +0.000 A 
ATOM     28  N   UNL     1      51.153   0.977  17.208  0.00  0.00    +0.000 N 
ATOM     29  C   UNL     1      50.452   2.161  17.153  0.00  0.00    +0.000 A 
ATOM     30  O   UNL     1      49.363   2.229  16.600  0.00  0.00    +0.000 OA
ATOM     31  C   UNL     1      51.136   3.284  17.768  0.00  0.00    +0.000 A 
ATOM     32  H   UNL     1      50.713   0.183  16.769  0.00  0.00    +0.000 HD
ENDBRANCH  21  22
ENDBRANCH  18  21
ENDBRANCH   1  18
TORSDOF 9
ENDMDL
MODEL 3
REMARK VINA RESULT:    -7.162      2.179      2.878
REMARK INTER + INTRA:         -12.421
REMARK INTER:                 -11.052
REMARK INTRA:                  -1.369
REMARK UNBOUND:                -1.700
REMARK  Name = 
REMARK  10 active torsions:
REMARK  status: ('A' for Active; 'I' for Inactive)
REMARK    1  A    between atoms: C_1  and  C_2
REMARK    2  A    between atoms: C_2  and  N_3
REMARK    3  A    between atoms: C_2  and  C_20
REMARK    4  A    between atoms: N_3  and  C_4
REMARK    5  A    between atoms: C_4  and  C_5
REMARK    6  A    between atoms: C_8  and  C_9
REMARK    7  A    between atoms: C_9  and  C_10
REMARK    8  A    between atoms: C_9  and  C_12
REMARK    9  A    between atoms: C_10  and  O_11
REMARK   10  A    between atoms: C_12  and  N_13
REMARK                            x       y       z     vdW  Elec       q    Type
REMARK                         _______ _______ _______ _____ _____    ______ ____
ROOT
ATOM      1  C   UNL     1      48.793   6.882  14.776  0.00  0.00    +0.000 C 
ENDROOT
BRANCH   1   2
ATOM      2  C   UNL     1      47.830   6.300  13.765  0.00  0.00    +0.000 A 
ATOM      3  C   UNL     1      47.036   5.185  14.046  0.00  0.00    +0.000 A 
ATOM      4  C   UNL     1      46.075   4.740  13.130  0.00  0.00    +0.000 A 
ATOM      5  C   UNL     1      45.886   5.395  11.900  0.00  0.00    +0.000 A 
ATOM      6  C   UNL     1      46.663   6.526  11.630  0.00  0.00    +0.000 A 
ATOM      7  C   UNL     1      47.622   6.967  12.547  0.00  0.00    +0.000 A 
BRANCH   5   8
ATOM      8  C   UNL     1      44.858   4.866  10.899  0.00  0.00    +0.000 C 
BRANCH   8   9
ATOM      9  C   UNL     1      43.409   5.162  11.331  0.00  0.00    +0.000 C 
BRANCH   9  10
ATOM     10  O   UNL     1      42.617   3.983  11.445  0.00  0.00    +0.000 OA
ATOM     11  H   UNL     1      42.970   3.344  10.802  0.00  0.00    +0.000 HD
ENDBRANCH   9  10
ENDBRANCH   8   9
BRANCH   8  12
ATOM     12  C   UNL     1      45.081   3.369  10.552  0.00  0.00    +0.000 C 
BRANCH  12  13
ATOM     13  N   UNL     1      44.524   2.957   9.242  0.00  0.00    +0.000 NA
ATOM     14  C   UNL     1      45.042   1.642   8.827  0.00  0.00    +0.000 C 
ATOM     15  C   UNL     1      46.308   1.959   8.057  0.00  0.00    +0.000 C 
ATOM     16  C   UNL     1      45.921   3.204   7.285  0.00  0.00    +0.000 C 
ATOM     17  C   UNL     1      44.862   3.880   8.147  0.00  0.00    +0.000 C 
ENDBRANCH  12  13
ENDBRANCH   8  12
ENDBRANCH   5   8
ENDBRANCH   1   2
BRANCH   1  18
ATOM     18  N   UNL     1      48.180   7.280  16.043  0.00  0.00    +0.000 NA
ATOM     19  H   UNL     1      47.197   6.994  16.067  0.00  0.00    +0.000 HD
BRANCH  18  21
ATOM     20  C   UNL     1      48.439   7.418  18.496  0.00  0.00    +0.000 C 
ATOM     21  C   UNL     1      48.883   6.721  17.206  0.00  0.00    +0.000 C 
BRANCH  21  22
ATOM     22  C   UNL     1      48.720   5.215  17.320  0.00  0.00    +0.000 A 
ATOM     23  C   UNL     1      47.480   4.598  17.395  0.00  0.00    +0.000 A 
ATOM     24  S   UNL     1      47.570   2.894  17.399  0.00  0.00    +0.000 S 
ATOM     25  C   UNL     1      49.270   2.924  17.385  0.00  0.00    +0.000 A 
ATOM     26  N   UNL     1      49.994   1.771  17.410  0.00  0.00    +0.000 NA
ATOM     27  C   UNL     1      51.273   1.949  17.441  0.00  0.00    +0.000 A 
ATOM     28  N   UNL     1      51.896   3.172  17.438  0.00  0.00    +0.000 N 
ATOM     29  C   UNL     1      51.208   4.364  17.396  0.00  0.00    +0.000 A 
ATOM     30  O   UNL     1      51.795   5.437  17.417  0.00  0.00    +0.000 OA
ATOM     31  C   UNL     1      49.764   4.216  17.361  0.00  0.00    +0.000 A 
ATOM     32  H   UNL     1      52.899   3.243  17.486  0.00  0.00    +0.000 HD
ENDBRANCH  21  22
ENDBRANCH  18  21
ENDBRANCH   1  18
TORSDOF 9
ENDMDL
MODEL 4
REMARK VINA RESULT:    -6.983      1.731      2.102
REMARK INTER + INTRA:         -12.152
REMARK INTER:                 -10.761
REMARK INTRA:                  -1.392
REMARK UNBOUND:                -1.700
REMARK  Name = 
REMARK  10 active torsions:
REMARK  status: ('A' for Active; 'I' for Inactive)
REMARK    1  A    between atoms: C_1  and  C_2
REMARK    2  A    between atoms: C_2  and  N_3
REMARK    3  A    between atoms: C_2  and  C_20
REMARK    4  A    between atoms: N_3  and  C_4
REMARK    5  A    between atoms: C_4  and  C_5
REMARK    6  A    between atoms: C_8  and  C_9
REMARK    7  A    between atoms: C_9  and  C_10
REMARK    8  A    between atoms: C_9  and  C_12
REMARK    9  A    between atoms: C_10  and  O_11
REMARK   10  A    between atoms: C_12  and  N_13
REMARK                            x       y       z     vdW  Elec       q    Type
REMARK                         _______ _______ _______ _____ _____    ______ ____
ROOT
ATOM      1  C   UNL     1      48.347   7.194  14.207  0.00  0.00    +0.000 C 
ENDROOT
BRANCH   1   2
ATOM      2  C   UNL     1      47.432   6.372  13.328  0.00  0.00    +0.000 A 
ATOM      3  C   UNL     1      46.844   5.182  13.768  0.00  0.00    +0.000 A 
ATOM      4  C   UNL     1      45.915   4.504  12.971  0.00  0.00    +0.000 A 
ATOM      5  C   UNL     1      45.551   4.993  11.703  0.00  0.00    +0.000 A 
ATOM      6  C   UNL     1      46.120   6.196  11.273  0.00  0.00    +0.000 A 
ATOM      7  C   UNL     1      47.049   6.871  12.072  0.00  0.00    +0.000 A 
BRANCH   5   8
ATOM      8  C   UNL     1      44.565   4.213  10.833  0.00  0.00    +0.000 C 
BRANCH   8   9
ATOM      9  C   UNL     1      43.183   4.065  11.499  0.00  0.00    +0.000 C 
BRANCH   9  10
ATOM     10  O   UNL     1      42.743   2.711  11.559  0.00  0.00    +0.000 OA
ATOM     11  H   UNL     1      42.826   2.349  10.660  0.00  0.00    +0.000 HD
ENDBRANCH   9  10
ENDBRANCH   8   9
BRANCH   8  12
ATOM     12  C   UNL     1      45.141   2.854  10.352  0.00  0.00    +0.000 C 
BRANCH  12  13
ATOM     13  N   UNL     1      44.713   2.458   8.989  0.00  0.00    +0.000 NA
ATOM     14  C   UNL     1      45.590   1.417   8.430  0.00  0.00    +0.000 C 
ATOM     15  C   UNL     1      46.696   2.185   7.733  0.00  0.00    +0.000 C 
ATOM     16  C   UNL     1      45.948   3.344   7.108  0.00  0.00    +0.000 C 
ATOM     17  C   UNL     1      44.748   3.567   8.021  0.00  0.00    +0.000 C 
ENDBRANCH  12  13
ENDBRANCH   8  12
ENDBRANCH   5   8
ENDBRANCH   1   2
BRANCH   1  18
ATOM     18  N   UNL     1      49.483   6.458  14.762  0.00  0.00    +0.000 NA
ATOM     19  H   UNL     1      50.132   6.192  14.015  0.00  0.00    +0.000 HD
BRANCH  18  21
ATOM     20  C   UNL     1      50.415   8.674  15.329  0.00  0.00    +0.000 C 
ATOM     21  C   UNL     1      50.202   7.227  15.787  0.00  0.00    +0.000 C 
BRANCH  21  22
ATOM     22  C   UNL     1      49.515   7.183  17.141  0.00  0.00    +0.000 A 
ATOM     23  C   UNL     1      48.953   8.305  17.734  0.00  0.00    +0.000 A 
ATOM     24  S   UNL     1      48.142   7.964  19.196  0.00  0.00    +0.000 S 
ATOM     25  C   UNL     1      48.587   6.323  19.130  0.00  0.00    +0.000 A 
ATOM     26  N   UNL     1      48.230   5.458  20.118  0.00  0.00    +0.000 NA
ATOM     27  C   UNL     1      48.675   4.256  19.955  0.00  0.00    +0.000 A 
ATOM     28  N   UNL     1      49.434   3.837  18.892  0.00  0.00    +0.000 N 
ATOM     29  C   UNL     1      49.806   4.670  17.861  0.00  0.00    +0.000 A 
ATOM     30  O   UNL     1      50.503   4.269  16.940  0.00  0.00    +0.000 OA
ATOM     31  C   UNL     1      49.330   6.035  17.999  0.00  0.00    +0.000 A 
ATOM     32  H   UNL     1      49.770   2.889  18.836  0.00  0.00    +0.000 HD
ENDBRANCH  21  22
ENDBRANCH  18  21
ENDBRANCH   1  18
TORSDOF 9
ENDMDL
MODEL 5
REMARK VINA RESULT:    -6.299      2.027      2.540
REMARK INTER + INTRA:         -11.129
REMARK INTER:                 -10.138
REMARK INTRA:                  -0.991
REMARK UNBOUND:                -1.700
REMARK  Name = 
REMARK  10 active torsions:
REMARK  status: ('A' for Active; 'I' for Inactive)
REMARK    1  A    between atoms: C_1  and  C_2
REMARK    2  A    between atoms: C_2  and  N_3
REMARK    3  A    between atoms: C_2  and  C_20
REMARK    4  A    between atoms: N_3  and  C_4
REMARK    5  A    between atoms: C_4  and  C_5
REMARK    6  A    between atoms: C_8  and  C_9
REMARK    7  A    between atoms: C_9  and  C_10
REMARK    8  A    between atoms: C_9  and  C_12
REMARK    9  A    between atoms: C_10  and  O_11
REMARK   10  A    between atoms: C_12  and  N_13
REMARK                            x       y       z     vdW  Elec       q    Type
REMARK                         _______ _______ _______ _____ _____    ______ ____
ROOT
ATOM      1  C   UNL     1      47.989   7.799  13.846  0.00  0.00    +0.000 C 
ENDROOT
BRANCH   1   2
ATOM      2  C   UNL     1      46.989   6.864  13.201  0.00  0.00    +0.000 A 
ATOM      3  C   UNL     1      46.165   7.267  12.146  0.00  0.00    +0.000 A 
ATOM      4  C   UNL     1      45.332   6.348  11.497  0.00  0.00    +0.000 A 
ATOM      5  C   UNL     1      45.293   4.998  11.891  0.00  0.00    +0.000 A 
ATOM      6  C   UNL     1      46.136   4.591  12.930  0.00  0.00    +0.000 A 
ATOM      7  C   UNL     1      46.967   5.512  13.576  0.00  0.00    +0.000 A 
BRANCH   5   8
ATOM      8  C   UNL     1      44.345   4.022  11.194  0.00  0.00    +0.000 C 
BRANCH   8   9
ATOM      9  C   UNL     1      43.252   3.487  12.139  0.00  0.00    +0.000 C 
BRANCH   9  10
ATOM     10  O   UNL     1      43.475   2.135  12.529  0.00  0.00    +0.000 OA
ATOM     11  H   UNL     1      44.039   1.735  11.845  0.00  0.00    +0.000 HD
ENDBRANCH   9  10
ENDBRANCH   8   9
BRANCH   8  12
ATOM     12  C   UNL     1      45.100   2.884  10.454  0.00  0.00    +0.000 C 
BRANCH  12  13
ATOM     13  N   UNL     1      44.657   2.667   9.057  0.00  0.00    +0.000 NA
ATOM     14  C   UNL     1      45.230   1.432   8.496  0.00  0.00    +0.000 C 
ATOM     15  C   UNL     1      46.548   1.867   7.888  0.00  0.00    +0.000 C 
ATOM     16  C   UNL     1      46.202   3.209   7.277  0.00  0.00    +0.000 C 
ATOM     17  C   UNL     1      45.065   3.744   8.140  0.00  0.00    +0.000 C 
ENDBRANCH  12  13
ENDBRANCH   8  12
ENDBRANCH   5   8
ENDBRANCH   1   2
BRANCH   1  18
ATOM     18  N   UNL     1      48.040   7.722  15.307  0.00  0.00    +0.000 NA
ATOM     19  H   UNL     1      47.159   7.350  15.673  0.00  0.00    +0.000 HD
BRANCH  18  21
ATOM     20  C   UNL     1      50.422   7.748  15.958  0.00  0.00    +0.000 C 
ATOM     21  C   UNL     1      49.159   6.899  15.785  0.00  0.00    +0.000 C 
BRANCH  21  22
ATOM     22  C   UNL     1      48.830   6.150  17.065  0.00  0.00    +0.000 A 
ATOM     23  C   UNL     1      48.993   4.779  17.195  0.00  0.00    +0.000 A 
ATOM     24  S   UNL     1      48.664   4.203  18.767  0.00  0.00    +0.000 S 
ATOM     25  C   UNL     1      48.213   5.752  19.305  0.00  0.00    +0.000 A 
ATOM     26  N   UNL     1      47.786   5.956  20.581  0.00  0.00    +0.000 NA
ATOM     27  C   UNL     1      47.435   7.173  20.834  0.00  0.00    +0.000 A 
ATOM     28  N   UNL     1      47.482   8.207  19.933  0.00  0.00    +0.000 N 
ATOM     29  C   UNL     1      47.922   8.054  18.637  0.00  0.00    +0.000 A 
ATOM     30  O   UNL     1      47.928   8.993  17.853  0.00  0.00    +0.000 OA
ATOM     31  C   UNL     1      48.327   6.700  18.304  0.00  0.00    +0.000 A 
ATOM     32  H   UNL     1      47.172   9.131  20.187  0.00  0.00    +0.000 HD
ENDBRANCH  21  22
ENDBRANCH  18  21
ENDBRANCH   1  18
TORSDOF 9
ENDMDL
MODEL 6
REMARK VINA RESULT:    -5.969      2.339      2.975
REMARK INTER + INTRA:         -10.634
REMARK INTER:                  -9.575
REMARK INTRA:                  -1.060
REMARK UNBOUND:                -1.700
REMARK  Name = 
REMARK  10 active torsions:
REMARK  status: ('A' for Active; 'I' for Inactive)
REMARK    1  A    between atoms: C_1  and  C_2
REMARK    2  A    between atoms: C_2  and  N_3
REMARK    3  A    between atoms: C_2  and  C_20
REMARK    4  A    between atoms: N_3  and  C_4
REMARK    5  A    between atoms: C_4  and  C_5
REMARK    6  A    between atoms: C_8  and  C_9
REMARK    7  A    between atoms: C_9  and  C_10
REMARK    8  A    between atoms: C_9  and  C_12
REMARK    9  A    between atoms: C_10  and  O_11
REMARK   10  A    between atoms: C_12  and  N_13
REMARK                            x       y       z     vdW  Elec       q    Type
REMARK                         _______ _______ _______ _____ _____    ______ ____
ROOT
ATOM      1  C   UNL     1      48.715   6.321  15.158  0.00  0.00    +0.000 C 
ENDROOT
BRANCH   1   2
ATOM      2  C   UNL     1      47.654   6.039  14.117  0.00  0.00    +0.000 A 
ATOM      3  C   UNL     1      47.500   6.831  12.976  0.00  0.00    +0.000 A 
ATOM      4  C   UNL     1      46.584   6.478  11.977  0.00  0.00    +0.000 A 
ATOM      5  C   UNL     1      45.788   5.324  12.097  0.00  0.00    +0.000 A 
ATOM      6  C   UNL     1      45.960   4.519  13.227  0.00  0.00    +0.000 A 
ATOM      7  C   UNL     1      46.876   4.875  14.223  0.00  0.00    +0.000 A 
BRANCH   5   8
ATOM      8  C   UNL     1      44.765   4.982  11.013  0.00  0.00    +0.000 C 
BRANCH   8   9
ATOM      9  C   UNL     1      43.376   5.581  11.304  0.00  0.00    +0.000 C 
BRANCH   9  10
ATOM     10  O   UNL     1      42.373   4.584  11.483  0.00  0.00    +0.000 OA
ATOM     11  H   UNL     1      42.644   4.048  12.248  0.00  0.00    +0.000 HD
ENDBRANCH   9  10
ENDBRANCH   8   9
BRANCH   8  12
ATOM     12  C   UNL     1      44.705   3.460  10.711  0.00  0.00    +0.000 C 
BRANCH  12  13
ATOM     13  N   UNL     1      44.264   3.128   9.335  0.00  0.00    +0.000 NA
ATOM     14  C   UNL     1      44.589   1.735   8.987  0.00  0.00    +0.000 C 
ATOM     15  C   UNL     1      45.983   1.806   8.397  0.00  0.00    +0.000 C 
ATOM     16  C   UNL     1      45.932   3.084   7.586  0.00  0.00    +0.000 C 
ATOM     17  C   UNL     1      44.905   3.955   8.300  0.00  0.00    +0.000 C 
ENDBRANCH  12  13
ENDBRANCH   8  12
ENDBRANCH   5   8
ENDBRANCH   1   2
BRANCH   1  18
ATOM     18  N   UNL     1      48.197   6.778  16.448  0.00  0.00    +0.000 NA
ATOM     19  H   UNL     1      47.961   5.976  17.039  0.00  0.00    +0.000 HD
BRANCH  18  21
ATOM     20  C   UNL     1      48.667   7.927  18.583  0.00  0.00    +0.000 C 
ATOM     21  C   UNL     1      49.146   7.648  17.155  0.00  0.00    +0.000 C 
BRANCH  21  22
ATOM     22  C   UNL     1      50.561   7.092  17.158  0.00  0.00    +0.000 A 
ATOM     23  C   UNL     1      51.655   7.825  16.723  0.00  0.00    +0.000 A 
ATOM     24  S   UNL     1      53.142   7.015  16.939  0.00  0.00    +0.000 S 
ATOM     25  C   UNL     1      52.366   5.627  17.544  0.00  0.00    +0.000 A 
ATOM     26  N   UNL     1      53.078   4.523  17.900  0.00  0.00    +0.000 NA
ATOM     27  C   UNL     1      52.354   3.531  18.299  0.00  0.00    +0.000 A 
ATOM     28  N   UNL     1      50.984   3.544  18.385  0.00  0.00    +0.000 N 
ATOM     29  C   UNL     1      50.222   4.641  18.052  0.00  0.00    +0.000 A 
ATOM     30  O   UNL     1      49.001   4.611  18.118  0.00  0.00    +0.000 OA
ATOM     31  C   UNL     1      50.993   5.784  17.596  0.00  0.00    +0.000 A 
ATOM     32  H   UNL     1      50.475   2.728  18.683  0.00  0.00    +0.000 HD
ENDBRANCH  21  22
ENDBRANCH  18  21
ENDBRANCH   1  18
TORSDOF 9
ENDMDL
MODEL 7
REMARK VINA RESULT:    -5.891      1.579      2.355
REMARK INTER + INTRA:         -10.519
REMARK INTER:                  -8.874
REMARK INTRA:                  -1.644
REMARK UNBOUND:                -1.700
REMARK  Name = 
REMARK  10 active torsions:
REMARK  status: ('A' for Active; 'I' for Inactive)
REMARK    1  A    between atoms: C_1  and  C_2
REMARK    2  A    between atoms: C_2  and  N_3
REMARK    3  A    between atoms: C_2  and  C_20
REMARK    4  A    between atoms: N_3  and  C_4
REMARK    5  A    between atoms: C_4  and  C_5
REMARK    6  A    between atoms: C_8  and  C_9
REMARK    7  A    between atoms: C_9  and  C_10
REMARK    8  A    between atoms: C_9  and  C_12
REMARK    9  A    between atoms: C_10  and  O_11
REMARK   10  A    between atoms: C_12  and  N_13
REMARK                            x       y       z     vdW  Elec       q    Type
REMARK                         _______ _______ _______ _____ _____    ______ ____
ROOT
ATOM      1  C   UNL     1      49.323   9.669  13.254  0.00  0.00    +0.000 C 
ENDROOT
BRANCH   1   2
ATOM      2  C   UNL     1      48.214   8.688  12.943  0.00  0.00    +0.000 A 
ATOM      3  C   UNL     1      46.941   8.797  13.509  0.00  0.00    +0.000 A 
ATOM      4  C   UNL     1      45.906   7.940  13.115  0.00  0.00    +0.000 A 
ATOM      5  C   UNL     1      46.118   6.941  12.147  0.00  0.00    +0.000 A 
ATOM      6  C   UNL     1      47.385   6.849  11.563  0.00  0.00    +0.000 A 
ATOM      7  C   UNL     1      48.417   7.706  11.960  0.00  0.00    +0.000 A 
BRANCH   5   8
ATOM      8  C   UNL     1      44.983   5.991  11.764  0.00  0.00    +0.000 C 
BRANCH   8   9
ATOM      9  C   UNL     1      44.257   5.414  12.994  0.00  0.00    +0.000 C 
BRANCH   9  10
ATOM     10  O   UNL     1      45.004   4.388  13.642  0.00  0.00    +0.000 OA
ATOM     11  H   UNL     1      44.917   3.589  13.095  0.00  0.00    +0.000 HD
ENDBRANCH   9  10
ENDBRANCH   8   9
BRANCH   8  12
ATOM     12  C   UNL     1      45.441   4.888  10.772  0.00  0.00    +0.000 C 
BRANCH  12  13
ATOM     13  N   UNL     1      44.346   4.306   9.959  0.00  0.00    +0.000 NA
ATOM     14  C   UNL     1      44.131   2.886  10.284  0.00  0.00    +0.000 C 
ATOM     15  C   UNL     1      45.063   2.137   9.352  0.00  0.00    +0.000 C 
ATOM     16  C   UNL     1      44.946   2.927   8.065  0.00  0.00    +0.000 C 
ATOM     17  C   UNL     1      44.609   4.345   8.511  0.00  0.00    +0.000 C 
ENDBRANCH  12  13
ENDBRANCH   8  12
ENDBRANCH   5   8
ENDBRANCH   1   2
BRANCH   1  18
ATOM     18  N   UNL     1      49.895   9.539  14.594  0.00  0.00    +0.000 NA
ATOM     19  H   UNL     1      49.252   9.924  15.292  0.00  0.00    +0.000 HD
BRANCH  18  21
ATOM     20  C   UNL     1      51.709   7.870  14.748  0.00  0.00    +0.000 C 
ATOM     21  C   UNL     1      50.213   8.145  14.933  0.00  0.00    +0.000 C 
BRANCH  21  22
ATOM     22  C   UNL     1      49.762   7.766  16.334  0.00  0.00    +0.000 A 
ATOM     23  C   UNL     1      50.192   8.439  17.468  0.00  0.00    +0.000 A 
ATOM     24  S   UNL     1      49.448   7.892  18.904  0.00  0.00    +0.000 S 
ATOM     25  C   UNL     1      48.591   6.683  18.069  0.00  0.00    +0.000 A 
ATOM     26  N   UNL     1      47.771   5.820  18.729  0.00  0.00    +0.000 NA
ATOM     27  C   UNL     1      47.221   4.929  17.974  0.00  0.00    +0.000 A 
ATOM     28  N   UNL     1      47.408   4.826  16.618  0.00  0.00    +0.000 N 
ATOM     29  C   UNL     1      48.213   5.684  15.904  0.00  0.00    +0.000 A 
ATOM     30  O   UNL     1      48.375   5.549  14.699  0.00  0.00    +0.000 OA
ATOM     31  C   UNL     1      48.855   6.706  16.712  0.00  0.00    +0.000 A 
ATOM     32  H   UNL     1      46.967   4.091  16.088  0.00  0.00    +0.000 HD
ENDBRANCH  21  22
ENDBRANCH  18  21
ENDBRANCH   1  18
TORSDOF 9
ENDMDL
MODEL 8
REMARK VINA RESULT:    -5.477      3.052      8.040
REMARK INTER + INTRA:          -9.898
REMARK INTER:                  -9.047
REMARK INTRA:                  -0.852
REMARK UNBOUND:                -1.700
REMARK  Name = 
REMARK  10 active torsions:
REMARK  status: ('A' for Active; 'I' for Inactive)
REMARK    1  A    between atoms: C_1  and  C_2
REMARK    2  A    between atoms: C_2  and  N_3
REMARK    3  A    between atoms: C_2  and  C_20
REMARK    4  A    between atoms: N_3  and  C_4
REMARK    5  A    between atoms: C_4  and  C_5
REMARK    6  A    between atoms: C_8  and  C_9
REMARK    7  A    between atoms: C_9  and  C_10
REMARK    8  A    between atoms: C_9  and  C_12
REMARK    9  A    between atoms: C_10  and  O_11
REMARK   10  A    between atoms: C_12  and  N_13
REMARK                            x       y       z     vdW  Elec       q    Type
REMARK                         _______ _______ _______ _____ _____    ______ ____
ROOT
ATOM      1  C   UNL     1      47.147   5.466  12.617  0.00  0.00    +0.000 C 
ENDROOT
BRANCH   1   2
ATOM      2  C   UNL     1      47.587   5.412  14.063  0.00  0.00    +0.000 A 
ATOM      3  C   UNL     1      48.361   6.421  14.645  0.00  0.00    +0.000 A 
ATOM      4  C   UNL     1      48.656   6.397  16.013  0.00  0.00    +0.000 A 
ATOM      5  C   UNL     1      48.193   5.357  16.839  0.00  0.00    +0.000 A 
ATOM      6  C   UNL     1      47.399   4.362  16.261  0.00  0.00    +0.000 A 
ATOM      7  C   UNL     1      47.106   4.388  14.893  0.00  0.00    +0.000 A 
BRANCH   5   8
ATOM      8  C   UNL     1      48.563   5.331  18.322  0.00  0.00    +0.000 C 
BRANCH   8   9
ATOM      9  C   UNL     1      48.744   6.745  18.908  0.00  0.00    +0.000 C 
BRANCH   9  10
ATOM     10  O   UNL     1      47.600   7.192  19.629  0.00  0.00    +0.000 OA
ATOM     11  H   UNL     1      47.867   7.992  20.113  0.00  0.00    +0.000 HD
ENDBRANCH   9  10
ENDBRANCH   8   9
BRANCH   8  12
ATOM     12  C   UNL     1      49.775   4.406  18.617  0.00  0.00    +0.000 C 
BRANCH  12  13
ATOM     13  N   UNL     1      50.637   4.136  17.442  0.00  0.00    +0.000 NA
ATOM     14  C   UNL     1      51.054   2.725  17.392  0.00  0.00    +0.000 C 
ATOM     15  C   UNL     1      52.338   2.680  18.197  0.00  0.00    +0.000 C 
ATOM     16  C   UNL     1      53.023   3.970  17.796  0.00  0.00    +0.000 C 
ATOM     17  C   UNL     1      51.884   4.919  17.440  0.00  0.00    +0.000 C 
ENDBRANCH  12  13
ENDBRANCH   8  12
ENDBRANCH   5   8
ENDBRANCH   1   2
BRANCH   1  18
ATOM     18  N   UNL     1      46.444   6.691  12.238  0.00  0.00    +0.000 NA
ATOM     19  H   UNL     1      46.748   7.002  11.311  0.00  0.00    +0.000 HD
BRANCH  18  21
ATOM     20  C   UNL     1      44.311   7.586  11.372  0.00  0.00    +0.000 C 
ATOM     21  C   UNL     1      44.984   6.524  12.247  0.00  0.00    +0.000 C 
BRANCH  21  22
ATOM     22  C   UNL     1      44.552   5.128  11.833  0.00  0.00    +0.000 A 
ATOM     23  C   UNL     1      43.856   4.277  12.679  0.00  0.00    +0.000 A 
ATOM     24  S   UNL     1      43.388   2.814  11.934  0.00  0.00    +0.000 S 
ATOM     25  C   UNL     1      44.171   3.233  10.483  0.00  0.00    +0.000 A 
ATOM     26  N   UNL     1      44.180   2.385   9.418  0.00  0.00    +0.000 NA
ATOM     27  C   UNL     1      44.849   2.817   8.402  0.00  0.00    +0.000 A 
ATOM     28  N   UNL     1      45.502   4.023   8.348  0.00  0.00    +0.000 N 
ATOM     29  C   UNL     1      45.508   4.921   9.391  0.00  0.00    +0.000 A 
ATOM     30  O   UNL     1      46.120   5.978   9.317  0.00  0.00    +0.000 OA
ATOM     31  C   UNL     1      44.767   4.479  10.559  0.00  0.00    +0.000 A 
ATOM     32  H   UNL     1      46.028   4.292   7.531  0.00  0.00    +0.000 HD
ENDBRANCH  21  22
ENDBRANCH  18  21
ENDBRANCH   1  18
TORSDOF 9
ENDMDL
MODEL 9
REMARK VINA RESULT:    -5.386      2.557      3.750
REMARK INTER + INTRA:          -9.762
REMARK INTER:                  -8.120
REMARK INTRA:                  -1.642
REMARK UNBOUND:                -1.700
REMARK  Name = 
REMARK  10 active torsions:
REMARK  status: ('A' for Active; 'I' for Inactive)
REMARK    1  A    between atoms: C_1  and  C_2
REMARK    2  A    between atoms: C_2  and  N_3
REMARK    3  A    between atoms: C_2  and  C_20
REMARK    4  A    between atoms: N_3  and  C_4
REMARK    5  A    between atoms: C_4  and  C_5
REMARK    6  A    between atoms: C_8  and  C_9
REMARK    7  A    between atoms: C_9  and  C_10
REMARK    8  A    between atoms: C_9  and  C_12
REMARK    9  A    between atoms: C_10  and  O_11
REMARK   10  A    between atoms: C_12  and  N_13
REMARK                            x       y       z     vdW  Elec       q    Type
REMARK                         _______ _______ _______ _____ _____    ______ ____
ROOT
ATOM      1  C   UNL     1      50.029   7.804  15.106  0.00  0.00    +0.000 C 
ENDROOT
BRANCH   1   2
ATOM      2  C   UNL     1      48.763   7.669  14.290  0.00  0.00    +0.000 A 
ATOM      3  C   UNL     1      48.219   8.740  13.574  0.00  0.00    +0.000 A 
ATOM      4  C   UNL     1      47.110   8.555  12.739  0.00  0.00    +0.000 A 
ATOM      5  C   UNL     1      46.507   7.291  12.603  0.00  0.00    +0.000 A 
ATOM      6  C   UNL     1      47.067   6.215  13.300  0.00  0.00    +0.000 A 
ATOM      7  C   UNL     1      48.174   6.405  14.133  0.00  0.00    +0.000 A 
BRANCH   5   8
ATOM      8  C   UNL     1      45.272   7.122  11.718  0.00  0.00    +0.000 C 
BRANCH   8   9
ATOM      9  C   UNL     1      44.614   8.469  11.363  0.00  0.00    +0.000 C 
BRANCH   9  10
ATOM     10  O   UNL     1      43.251   8.329  10.971  0.00  0.00    +0.000 OA
ATOM     11  H   UNL     1      43.105   7.383  10.794  0.00  0.00    +0.000 HD
ENDBRANCH   9  10
ENDBRANCH   8   9
BRANCH   8  12
ATOM     12  C   UNL     1      44.258   6.100  12.299  0.00  0.00    +0.000 C 
BRANCH  12  13
ATOM     13  N   UNL     1      43.600   5.247  11.281  0.00  0.00    +0.000 NA
ATOM     14  C   UNL     1      43.027   4.033  11.885  0.00  0.00    +0.000 C 
ATOM     15  C   UNL     1      44.152   3.018  11.839  0.00  0.00    +0.000 C 
ATOM     16  C   UNL     1      44.790   3.294  10.493  0.00  0.00    +0.000 C 
ATOM     17  C   UNL     1      44.520   4.772  10.234  0.00  0.00    +0.000 C 
ENDBRANCH  12  13
ENDBRANCH   8  12
ENDBRANCH   5   8
ENDBRANCH   1   2
BRANCH   1  18
ATOM     18  N   UNL     1      49.905   8.656  16.289  0.00  0.00    +0.000 NA
ATOM     19  H   UNL     1      48.939   8.980  16.392  0.00  0.00    +0.000 HD
BRANCH  18  21
ATOM     20  C   UNL     1      50.403   8.959  18.689  0.00  0.00    +0.000 C 
ATOM     21  C   UNL     1      50.330   7.974  17.518  0.00  0.00    +0.000 C 
BRANCH  21  22
ATOM     22  C   UNL     1      49.448   6.786  17.863  0.00  0.00    +0.000 A 
ATOM     23  C   UNL     1      48.158   6.927  18.353  0.00  0.00    +0.000 A 
ATOM     24  S   UNL     1      47.341   5.442  18.550  0.00  0.00    +0.000 S 
ATOM     25  C   UNL     1      48.710   4.556  18.067  0.00  0.00    +0.000 A 
ATOM     26  N   UNL     1      48.694   3.196  18.040  0.00  0.00    +0.000 NA
ATOM     27  C   UNL     1      49.817   2.659  17.696  0.00  0.00    +0.000 A 
ATOM     28  N   UNL     1      50.952   3.356  17.367  0.00  0.00    +0.000 N 
ATOM     29  C   UNL     1      51.013   4.732  17.363  0.00  0.00    +0.000 A 
ATOM     30  O   UNL     1      52.049   5.321  17.086  0.00  0.00    +0.000 OA
ATOM     31  C   UNL     1      49.772   5.382  17.744  0.00  0.00    +0.000 A 
ATOM     32  H   UNL     1      51.806   2.876  17.129  0.00  0.00    +0.000 HD
ENDBRANCH  21  22
ENDBRANCH  18  21
ENDBRANCH   1  18
TORSDOF 9
ENDMDL
