MODEL 1
REMARK VINA RESULT:    -7.722      0.000      0.000
REMARK INTER + INTRA:         -11.732
REMARK INTER:                 -10.657
REMARK INTRA:                  -1.075
REMARK UNBOUND:                -1.075
REMARK  Name = 
REMARK  10 active torsions:
REMARK  status: ('A' for Active; 'I' for Inactive)
REMARK    1  A    between atoms: C_1  and  N_2
REMARK    2  A    between atoms: N_2  and  C_10
REMARK    3  A    between atoms: C_3  and  C_5
REMARK    4  A    between atoms: C_5  and  C_6
REMARK    5  A    between atoms: C_6  and  C_7
REMARK    6  A    between atoms: C_6  and  C_8
REMARK    7  A    between atoms: C_6  and  N_9
REMARK    8  A    between atoms: C_14  and  N_15
REMARK    9  A    between atoms: N_15  and  C_16
REMARK   10  A    between atoms: C_16  and  C_17
REMARK                            x       y       z     vdW  Elec       q    Type
REMARK                         _______ _______ _______ _____ _____    ______ ____
ROOT
ATOM      1  C   UNL     1      45.288   5.501  12.259  0.00  0.00    +0.000 A 
ATOM      2  C   UNL     1      44.291   5.227  13.193  0.00  0.00    +0.000 A 
ATOM      3  C   UNL     1      43.229   4.400  12.835  0.00  0.00    +0.000 A 
ATOM      4  C   UNL     1      43.169   3.846  11.552  0.00  0.00    +0.000 A 
ATOM      5  C   UNL     1      44.146   4.127  10.587  0.00  0.00    +0.000 A 
ATOM      6  C   UNL     1      45.219   4.947  10.971  0.00  0.00    +0.000 A 
ENDROOT
BRANCH   1   8
ATOM      7  C   UNL     1      46.129   7.777  12.218  0.00  0.00    +0.000 C 
ATOM      8  N   UNL     1      46.350   6.385  12.595  0.00  0.00    +0.000 N 
ATOM      9  C   UNL     1      47.508   5.859  13.169  0.00  0.00    +0.000 C 
ATOM     10  O   UNL     1      47.604   4.671  13.485  0.00  0.00    +0.000 OA
BRANCH   9  11
ATOM     11  C   UNL     1      48.674   6.837  13.367  0.00  0.00    +0.000 C 
BRANCH  11  12
ATOM     12  C   UNL     1      48.934   7.322  14.815  0.00  0.00    +0.000 C 
ATOM     13  C   UNL     1      50.427   7.297  15.170  0.00  0.00    +0.000 C 
ATOM     14  C   UNL     1      48.326   8.704  15.086  0.00  0.00    +0.000 C 
BRANCH  12  15
ATOM     15  N   UNL     1      48.272   6.389  15.757  0.00  0.00    +0.000 NA
ATOM     16  H   UNL     1      47.265   6.540  15.766  0.00  0.00    +0.000 HD
ATOM     17  H   UNL     1      48.609   6.538  16.707  0.00  0.00    +0.000 HD
ENDBRANCH  12  15
ENDBRANCH  11  12
ENDBRANCH   9  11
ENDBRANCH   1   8
BRANCH   5  18
ATOM     18  N   UNL     1      44.162   3.553   9.311  0.00  0.00    +0.000 N 
ATOM     19  H   UNL     1      44.099   2.536   9.359  0.00  0.00    +0.000 HD
BRANCH  18  20
ATOM     20  C   UNL     1      45.061   4.069   8.286  0.00  0.00    +0.000 C 
BRANCH  20  21
ATOM     21  C   UNL     1      45.794   2.961   7.510  0.00  0.00    +0.000 C 
ATOM     22  C   UNL     1      46.071   1.713   8.358  0.00  0.00    +0.000 C 
ATOM     23  C   UNL     1      46.848   0.677   7.554  0.00  0.00    +0.000 C 
ATOM     24  O   UNL     1      48.052   1.240   7.034  0.00  0.00    +0.000 OA
ATOM     25  C   UNL     1      47.796   2.315   6.131  0.00  0.00    +0.000 C 
ATOM     26  C   UNL     1      47.085   3.458   6.845  0.00  0.00    +0.000 C 
ENDBRANCH  20  21
ENDBRANCH  18  20
ENDBRANCH   5  18
TORSDOF 7
ENDMDL
MODEL 2
REMARK VINA RESULT:    -7.162      1.583      1.817
REMARK INTER + INTRA:         -10.959
REMARK INTER:                  -9.881
REMARK INTRA:                  -1.078
REMARK UNBOUND:                -1.075
REMARK  Name = 
REMARK  10 active torsions:
REMARK  status: ('A' for Active; 'I' for Inactive)
REMARK    1  A    between atoms: C_1  and  N_2
REMARK    2  A    between atoms: N_2  and  C_10
REMARK    3  A    between atoms: C_3  and  C_5
REMARK    4  A    between atoms: C_5  and  C_6
REMARK    5  A    between atoms: C_6  and  C_7
REMARK    6  A    between atoms: C_6  and  C_8
REMARK    7  A    between atoms: C_6  and  N_9
REMARK    8  A    between atoms: C_14  and  N_15
REMARK    9  A    between atoms: N_15  and  C_16
REMARK   10  A    between atoms: C_16  and  C_17
REMARK                            x       y       z     vdW  Elec       q    Type
REMARK                         _______ _______ _______ _____ _____    ______ ____
ROOT
ATOM      1  C   UNL     1      46.089   6.101  12.344  0.00  0.00    +0.000 A 
ATOM      2  C   UNL     1      45.371   5.224  13.155  0.00  0.00    +0.000 A 
ATOM      3  C   UNL     1      44.619   4.211  12.565  0.00  0.00    +0.000 A 
ATOM      4  C   UNL     1      44.591   4.073  11.174  0.00  0.00    +0.000 A 
ATOM      5  C   UNL     1      45.283   4.958  10.337  0.00  0.00    +0.000 A 
ATOM      6  C   UNL     1      46.051   5.962  10.949  0.00  0.00    +0.000 A 
ENDROOT
BRANCH   1   8
ATOM      7  C   UNL     1      46.128   8.456  12.929  0.00  0.00    +0.000 C 
ATOM      8  N   UNL     1      46.818   7.171  12.932  0.00  0.00    +0.000 N 
ATOM      9  C   UNL     1      48.119   6.935  13.378  0.00  0.00    +0.000 C 
ATOM     10  O   UNL     1      48.621   5.809  13.372  0.00  0.00    +0.000 OA
BRANCH   9  11
ATOM     11  C   UNL     1      48.907   8.160  13.859  0.00  0.00    +0.000 C 
BRANCH  11  12
ATOM     12  C   UNL     1      50.048   8.659  12.937  0.00  0.00    +0.000 C 
ATOM     13  C   UNL     1      49.571   9.754  11.974  0.00  0.00    +0.000 C 
ATOM     14  C   UNL     1      51.280   9.117  13.729  0.00  0.00    +0.000 C 
BRANCH  12  15
ATOM     15  N   UNL     1      50.501   7.532  12.086  0.00  0.00    +0.000 NA
ATOM     16  H   UNL     1      49.723   6.915  11.862  0.00  0.00    +0.000 HD
ATOM     17  H   UNL     1      51.200   6.974  12.573  0.00  0.00    +0.000 HD
ENDBRANCH  12  15
ENDBRANCH  11  12
ENDBRANCH   9  11
ENDBRANCH   1   8
BRANCH   5  18
ATOM     18  N   UNL     1      45.334   4.828   8.944  0.00  0.00    +0.000 N 
ATOM     19  H   UNL     1      45.255   5.734   8.482  0.00  0.00    +0.000 HD
BRANCH  18  20
ATOM     20  C   UNL     1      44.634   3.734   8.284  0.00  0.00    +0.000 C 
BRANCH  20  21
ATOM     21  C   UNL     1      45.573   2.797   7.505  0.00  0.00    +0.000 C 
ATOM     22  C   UNL     1      46.009   1.570   8.317  0.00  0.00    +0.000 C 
ATOM     23  C   UNL     1      46.982   0.712   7.516  0.00  0.00    +0.000 C 
ATOM     24  O   UNL     1      48.101   1.486   7.083  0.00  0.00    +0.000 OA
ATOM     25  C   UNL     1      47.715   2.547   6.211  0.00  0.00    +0.000 C 
ATOM     26  C   UNL     1      46.795   3.525   6.930  0.00  0.00    +0.000 C 
ENDBRANCH  20  21
ENDBRANCH  18  20
ENDBRANCH   5  18
TORSDOF 7
ENDMDL
MODEL 3
REMARK VINA RESULT:    -6.736      1.684      2.137
REMARK INTER + INTRA:         -10.370
REMARK INTER:                  -9.277
REMARK INTRA:                  -1.093
REMARK UNBOUND:                -1.075
REMARK  Name = 
REMARK  10 active torsions:
REMARK  status: ('A' for Active; 'I' for Inactive)
REMARK    1  A    between atoms: C_1  and  N_2
REMARK    2  A    between atoms: N_2  and  C_10
REMARK    3  A    between atoms: C_3  and  C_5
REMARK    4  A    between atoms: C_5  and  C_6
REMARK    5  A    between atoms: C_6  and  C_7
REMARK    6  A    between atoms: C_6  and  C_8
REMARK    7  A    between atoms: C_6  and  N_9
REMARK    8  A    between atoms: C_14  and  N_15
REMARK    9  A    between atoms: N_15  and  C_16
REMARK   10  A    between atoms: C_16  and  C_17
REMARK                            x       y       z     vdW  Elec       q    Type
REMARK                         _______ _______ _______ _____ _____    ______ ____
ROOT
ATOM      1  C   UNL     1      46.969   6.348  12.479  0.00  0.00    +0.000 A 
ATOM      2  C   UNL     1      46.570   5.439  13.456  0.00  0.00    +0.000 A 
ATOM      3  C   UNL     1      45.637   4.457  13.134  0.00  0.00    +0.000 A 
ATOM      4  C   UNL     1      45.111   4.381  11.839  0.00  0.00    +0.000 A 
ATOM      5  C   UNL     1      45.478   5.300  10.846  0.00  0.00    +0.000 A 
ATOM      6  C   UNL     1      46.434   6.271  11.184  0.00  0.00    +0.000 A 
ENDROOT
BRANCH   1   8
ATOM      7  C   UNL     1      49.284   7.072  12.560  0.00  0.00    +0.000 C 
ATOM      8  N   UNL     1      47.881   7.387  12.809  0.00  0.00    +0.000 N 
ATOM      9  C   UNL     1      47.390   8.554  13.396  0.00  0.00    +0.000 C 
ATOM     10  O   UNL     1      46.183   8.756  13.545  0.00  0.00    +0.000 OA
BRANCH   9  11
ATOM     11  C   UNL     1      48.436   9.572  13.869  0.00  0.00    +0.000 C 
BRANCH  11  12
ATOM     12  C   UNL     1      48.750   9.590  15.386  0.00  0.00    +0.000 C 
ATOM     13  C   UNL     1      49.867   8.605  15.754  0.00  0.00    +0.000 C 
ATOM     14  C   UNL     1      49.069  11.002  15.898  0.00  0.00    +0.000 C 
BRANCH  12  15
ATOM     15  N   UNL     1      47.547   9.145  16.128  0.00  0.00    +0.000 NA
ATOM     16  H   UNL     1      47.553   8.135  16.251  0.00  0.00    +0.000 HD
ATOM     17  H   UNL     1      46.700   9.384  15.614  0.00  0.00    +0.000 HD
ENDBRANCH  12  15
ENDBRANCH  11  12
ENDBRANCH   9  11
ENDBRANCH   1   8
BRANCH   5  18
ATOM     18  N   UNL     1      45.027   5.231   9.523  0.00  0.00    +0.000 N 
ATOM     19  H   UNL     1      44.633   6.121   9.218  0.00  0.00    +0.000 HD
BRANCH  18  20
ATOM     20  C   UNL     1      44.323   4.047   9.048  0.00  0.00    +0.000 C 
BRANCH  20  21
ATOM     21  C   UNL     1      45.171   3.176   8.106  0.00  0.00    +0.000 C 
ATOM     22  C   UNL     1      45.636   1.864   8.752  0.00  0.00    +0.000 C 
ATOM     23  C   UNL     1      46.518   1.073   7.791  0.00  0.00    +0.000 C 
ATOM     24  O   UNL     1      47.621   1.865   7.350  0.00  0.00    +0.000 OA
ATOM     25  C   UNL     1      47.197   3.018   6.624  0.00  0.00    +0.000 C 
ATOM     26  C   UNL     1      46.365   3.935   7.510  0.00  0.00    +0.000 C 
ENDBRANCH  20  21
ENDBRANCH  18  20
ENDBRANCH   5  18
TORSDOF 7
ENDMDL
MODEL 4
REMARK VINA RESULT:    -6.617      2.063      6.887
REMARK INTER + INTRA:         -10.207
REMARK INTER:                  -9.051
REMARK INTRA:                  -1.155
REMARK UNBOUND:                -1.075
REMARK  Name = 
REMARK  10 active torsions:
REMARK  status: ('A' for Active; 'I' for Inactive)
REMARK    1  A    between atoms: C_1  and  N_2
REMARK    2  A    between atoms: N_2  and  C_10
REMARK    3  A    between atoms: C_3  and  C_5
REMARK    4  A    between atoms: C_5  and  C_6
REMARK    5  A    between atoms: C_6  and  C_7
REMARK    6  A    between atoms: C_6  and  C_8
REMARK    7  A    between atoms: C_6  and  N_9
REMARK    8  A    between atoms: C_14  and  N_15
REMARK    9  A    between atoms: N_15  and  C_16
REMARK   10  A    between atoms: C_16  and  C_17
REMARK                            x       y       z     vdW  Elec       q    Type
REMARK                         _______ _______ _______ _____ _____    ______ ____
ROOT
ATOM      1  C   UNL     1      44.426   3.761  10.662  0.00  0.00    +0.000 A 
ATOM      2  C   UNL     1      43.260   4.455  10.976  0.00  0.00    +0.000 A 
ATOM      3  C   UNL     1      43.130   5.036  12.235  0.00  0.00    +0.000 A 
ATOM      4  C   UNL     1      44.163   4.928  13.172  0.00  0.00    +0.000 A 
ATOM      5  C   UNL     1      45.334   4.213  12.889  0.00  0.00    +0.000 A 
ATOM      6  C   UNL     1      45.457   3.650  11.608  0.00  0.00    +0.000 A 
ENDROOT
BRANCH   1   8
ATOM      7  C   UNL     1      44.125   1.724   9.378  0.00  0.00    +0.000 C 
ATOM      8  N   UNL     1      44.550   3.119   9.399  0.00  0.00    +0.000 N 
ATOM      9  C   UNL     1      45.119   3.824   8.338  0.00  0.00    +0.000 C 
ATOM     10  O   UNL     1      45.425   5.015   8.430  0.00  0.00    +0.000 OA
BRANCH   9  11
ATOM     11  C   UNL     1      45.365   3.032   7.048  0.00  0.00    +0.000 C 
BRANCH  11  12
ATOM     12  C   UNL     1      46.844   2.770   6.665  0.00  0.00    +0.000 C 
ATOM     13  C   UNL     1      47.391   1.497   7.324  0.00  0.00    +0.000 C 
ATOM     14  C   UNL     1      47.056   2.740   5.146  0.00  0.00    +0.000 C 
BRANCH  12  15
ATOM     15  N   UNL     1      47.673   3.887   7.175  0.00  0.00    +0.000 NA
ATOM     16  H   UNL     1      48.578   3.547   7.496  0.00  0.00    +0.000 HD
ATOM     17  H   UNL     1      47.220   4.338   7.969  0.00  0.00    +0.000 HD
ENDBRANCH  12  15
ENDBRANCH  11  12
ENDBRANCH   9  11
ENDBRANCH   1   8
BRANCH   5  18
ATOM     18  N   UNL     1      46.420   4.124  13.768  0.00  0.00    +0.000 N 
ATOM     19  H   UNL     1      46.247   3.443  14.507  0.00  0.00    +0.000 HD
BRANCH  18  20
ATOM     20  C   UNL     1      47.120   5.330  14.191  0.00  0.00    +0.000 C 
BRANCH  20  21
ATOM     21  C   UNL     1      47.343   6.333  13.047  0.00  0.00    +0.000 C 
ATOM     22  C   UNL     1      48.827   6.612  12.769  0.00  0.00    +0.000 C 
ATOM     23  C   UNL     1      48.982   7.654  11.667  0.00  0.00    +0.000 C 
ATOM     24  O   UNL     1      48.272   8.848  11.996  0.00  0.00    +0.000 OA
ATOM     25  C   UNL     1      46.868   8.622  12.117  0.00  0.00    +0.000 C 
ATOM     26  C   UNL     1      46.577   7.647  13.251  0.00  0.00    +0.000 C 
ENDBRANCH  20  21
ENDBRANCH  18  20
ENDBRANCH   5  18
TORSDOF 7
ENDMDL
MODEL 5
REMARK VINA RESULT:    -5.819      2.696      5.129
REMARK INTER + INTRA:          -9.105
REMARK INTER:                  -8.089
REMARK INTRA:                  -1.016
REMARK UNBOUND:                -1.075
REMARK  Name = 
REMARK  10 active torsions:
REMARK  status: ('A' for Active; 'I' for Inactive)
REMARK    1  A    between atoms: C_1  and  N_2
REMARK    2  A    between atoms: N_2  and  C_10
REMARK    3  A    between atoms: C_3  and  C_5
REMARK    4  A    between atoms: C_5  and  C_6
REMARK    5  A    between atoms: C_6  and  C_7
REMARK    6  A    between atoms: C_6  and  C_8
REMARK    7  A    between atoms: C_6  and  N_9
REMARK    8  A    between atoms: C_14  and  N_15
REMARK    9  A    between atoms: N_15  and  C_16
REMARK   10  A    between atoms: C_16  and  C_17
REMARK                            x       y       z     vdW  Elec       q    Type
REMARK                         _______ _______ _______ _____ _____    ______ ____
ROOT
ATOM      1  C   UNL     1      48.565   7.423  14.372  0.00  0.00    +0.000 A 
ATOM      2  C   UNL     1      49.728   7.538  13.614  0.00  0.00    +0.000 A 
ATOM      3  C   UNL     1      49.641   7.525  12.224  0.00  0.00    +0.000 A 
ATOM      4  C   UNL     1      48.397   7.403  11.597  0.00  0.00    +0.000 A 
ATOM      5  C   UNL     1      47.216   7.260  12.337  0.00  0.00    +0.000 A 
ATOM      6  C   UNL     1      47.320   7.295  13.737  0.00  0.00    +0.000 A 
ENDROOT
BRANCH   1   8
ATOM      7  C   UNL     1      48.724   8.689  16.436  0.00  0.00    +0.000 C 
ATOM      8  N   UNL     1      48.646   7.383  15.791  0.00  0.00    +0.000 N 
ATOM      9  C   UNL     1      48.721   6.143  16.427  0.00  0.00    +0.000 C 
ATOM     10  O   UNL     1      48.618   5.081  15.809  0.00  0.00    +0.000 OA
BRANCH   9  11
ATOM     11  C   UNL     1      48.961   6.168  17.942  0.00  0.00    +0.000 C 
BRANCH  11  12
ATOM     12  C   UNL     1      48.037   5.272  18.806  0.00  0.00    +0.000 C 
ATOM     13  C   UNL     1      48.664   3.899  19.083  0.00  0.00    +0.000 C 
ATOM     14  C   UNL     1      47.613   5.960  20.110  0.00  0.00    +0.000 C 
BRANCH  12  15
ATOM     15  N   UNL     1      46.787   5.010  18.053  0.00  0.00    +0.000 NA
ATOM     16  H   UNL     1      46.702   4.021  17.831  0.00  0.00    +0.000 HD
ATOM     17  H   UNL     1      46.785   5.521  17.172  0.00  0.00    +0.000 HD
ENDBRANCH  12  15
ENDBRANCH  11  12
ENDBRANCH   9  11
ENDBRANCH   1   8
BRANCH   5  18
ATOM     18  N   UNL     1      45.942   7.194  11.760  0.00  0.00    +0.000 N 
ATOM     19  H   UNL     1      45.676   8.085  11.342  0.00  0.00    +0.000 HD
BRANCH  18  20
ATOM     20  C   UNL     1      44.866   6.483  12.439  0.00  0.00    +0.000 C 
BRANCH  20  21
ATOM     21  C   UNL     1      44.790   4.995  12.058  0.00  0.00    +0.000 C 
ATOM     22  C   UNL     1      44.877   4.755  10.545  0.00  0.00    +0.000 C 
ATOM     23  C   UNL     1      44.737   3.270  10.227  0.00  0.00    +0.000 C 
ATOM     24  O   UNL     1      43.528   2.746  10.777  0.00  0.00    +0.000 OA
ATOM     25  C   UNL     1      43.502   2.839  12.200  0.00  0.00    +0.000 C 
ATOM     26  C   UNL     1      43.557   4.295  12.645  0.00  0.00    +0.000 C 
ENDBRANCH  20  21
ENDBRANCH  18  20
ENDBRANCH   5  18
TORSDOF 7
ENDMDL
MODEL 6
REMARK VINA RESULT:    -5.508      3.024      7.670
REMARK INTER + INTRA:          -8.676
REMARK INTER:                  -7.879
REMARK INTRA:                  -0.797
REMARK UNBOUND:                -1.075
REMARK  Name = 
REMARK  10 active torsions:
REMARK  status: ('A' for Active; 'I' for Inactive)
REMARK    1  A    between atoms: C_1  and  N_2
REMARK    2  A    between atoms: N_2  and  C_10
REMARK    3  A    between atoms: C_3  and  C_5
REMARK    4  A    between atoms: C_5  and  C_6
REMARK    5  A    between atoms: C_6  and  C_7
REMARK    6  A    between atoms: C_6  and  C_8
REMARK    7  A    between atoms: C_6  and  N_9
REMARK    8  A    between atoms: C_14  and  N_15
REMARK    9  A    between atoms: N_15  and  C_16
REMARK   10  A    between atoms: C_16  and  C_17
REMARK                            x       y       z     vdW  Elec       q    Type
REMARK                         _______ _______ _______ _____ _____    ______ ____
ROOT
ATOM      1  C   UNL     1      47.476   7.093  12.883  0.00  0.00    +0.000 A 
ATOM      2  C   UNL     1      48.234   7.464  11.775  0.00  0.00    +0.000 A 
ATOM      3  C   UNL     1      49.580   7.781  11.943  0.00  0.00    +0.000 A 
ATOM      4  C   UNL     1      50.164   7.722  13.213  0.00  0.00    +0.000 A 
ATOM      5  C   UNL     1      49.416   7.378  14.347  0.00  0.00    +0.000 A 
ATOM      6  C   UNL     1      48.066   7.043  14.156  0.00  0.00    +0.000 A 
ENDROOT
BRANCH   1   8
ATOM      7  C   UNL     1      45.266   7.979  12.413  0.00  0.00    +0.000 C 
ATOM      8  N   UNL     1      46.089   6.818  12.733  0.00  0.00    +0.000 N 
ATOM      9  C   UNL     1      45.630   5.522  12.970  0.00  0.00    +0.000 C 
ATOM     10  O   UNL     1      46.398   4.586  13.207  0.00  0.00    +0.000 OA
BRANCH   9  11
ATOM     11  C   UNL     1      44.109   5.322  12.941  0.00  0.00    +0.000 C 
BRANCH  11  12
ATOM     12  C   UNL     1      43.530   4.572  11.715  0.00  0.00    +0.000 C 
ATOM     13  C   UNL     1      44.340   4.843  10.440  0.00  0.00    +0.000 C 
ATOM     14  C   UNL     1      43.387   3.065  11.968  0.00  0.00    +0.000 C 
BRANCH  12  15
ATOM     15  N   UNL     1      42.163   5.077  11.449  0.00  0.00    +0.000 NA
ATOM     16  H   UNL     1      41.862   5.708  12.189  0.00  0.00    +0.000 HD
ATOM     17  H   UNL     1      41.496   4.308  11.416  0.00  0.00    +0.000 HD
ENDBRANCH  12  15
ENDBRANCH  11  12
ENDBRANCH   9  11
ENDBRANCH   1   8
BRANCH   5  18
ATOM     18  N   UNL     1      49.966   7.248  15.628  0.00  0.00    +0.000 N 
ATOM     19  H   UNL     1      50.852   6.744  15.603  0.00  0.00    +0.000 HD
BRANCH  18  20
ATOM     20  C   UNL     1      49.109   6.937  16.765  0.00  0.00    +0.000 C 
BRANCH  20  21
ATOM     21  C   UNL     1      49.305   5.507  17.298  0.00  0.00    +0.000 C 
ATOM     22  C   UNL     1      50.757   5.021  17.199  0.00  0.00    +0.000 C 
ATOM     23  C   UNL     1      50.876   3.581  17.687  0.00  0.00    +0.000 C 
ATOM     24  O   UNL     1      49.983   2.728  16.970  0.00  0.00    +0.000 OA
ATOM     25  C   UNL     1      48.618   3.091  17.172  0.00  0.00    +0.000 C 
ATOM     26  C   UNL     1      48.352   4.496  16.646  0.00  0.00    +0.000 C 
ENDBRANCH  20  21
ENDBRANCH  18  20
ENDBRANCH   5  18
TORSDOF 7
ENDMDL
MODEL 7
REMARK VINA RESULT:    -4.861      2.812      4.572
REMARK INTER + INTRA:          -7.783
REMARK INTER:                  -7.080
REMARK INTRA:                  -0.703
REMARK UNBOUND:                -1.075
REMARK  Name = 
REMARK  10 active torsions:
REMARK  status: ('A' for Active; 'I' for Inactive)
REMARK    1  A    between atoms: C_1  and  N_2
REMARK    2  A    between atoms: N_2  and  C_10
REMARK    3  A    between atoms: C_3  and  C_5
REMARK    4  A    between atoms: C_5  and  C_6
REMARK    5  A    between atoms: C_6  and  C_7
REMARK    6  A    between atoms: C_6  and  C_8
REMARK    7  A    between atoms: C_6  and  N_9
REMARK    8  A    between atoms: C_14  and  N_15
REMARK    9  A    between atoms: N_15  and  C_16
REMARK   10  A    between atoms: C_16  and  C_17
REMARK                            x       y       z     vdW  Elec       q    Type
REMARK                         _______ _______ _______ _____ _____    ______ ____
ROOT
ATOM      1  C   UNL     1      48.292   6.442  14.889  0.00  0.00    +0.000 A 
ATOM      2  C   UNL     1      48.569   6.091  16.208  0.00  0.00    +0.000 A 
ATOM      3  C   UNL     1      48.019   4.926  16.735  0.00  0.00    +0.000 A 
ATOM      4  C   UNL     1      47.200   4.113  15.943  0.00  0.00    +0.000 A 
ATOM      5  C   UNL     1      46.886   4.458  14.622  0.00  0.00    +0.000 A 
ATOM      6  C   UNL     1      47.465   5.626  14.102  0.00  0.00    +0.000 A 
ENDROOT
BRANCH   1   8
ATOM      7  C   UNL     1      47.803   8.545  13.780  0.00  0.00    +0.000 C 
ATOM      8  N   UNL     1      48.806   7.656  14.356  0.00  0.00    +0.000 N 
ATOM      9  C   UNL     1      50.187   7.861  14.356  0.00  0.00    +0.000 C 
ATOM     10  O   UNL     1      50.968   7.071  14.891  0.00  0.00    +0.000 OA
BRANCH   9  11
ATOM     11  C   UNL     1      50.688   9.116  13.631  0.00  0.00    +0.000 C 
BRANCH  11  12
ATOM     12  C   UNL     1      51.450   8.893  12.300  0.00  0.00    +0.000 C 
ATOM     13  C   UNL     1      50.614   8.100  11.286  0.00  0.00    +0.000 C 
ATOM     14  C   UNL     1      51.957  10.207  11.691  0.00  0.00    +0.000 C 
BRANCH  12  15
ATOM     15  N   UNL     1      52.654   8.073  12.572  0.00  0.00    +0.000 NA
ATOM     16  H   UNL     1      53.394   8.643  12.976  0.00  0.00    +0.000 HD
ATOM     17  H   UNL     1      53.018   7.672  11.709  0.00  0.00    +0.000 HD
ENDBRANCH  12  15
ENDBRANCH  11  12
ENDBRANCH   9  11
ENDBRANCH   1   8
BRANCH   5  18
ATOM     18  N   UNL     1      46.121   3.650  13.772  0.00  0.00    +0.000 N 
ATOM     19  H   UNL     1      46.699   2.954  13.301  0.00  0.00    +0.000 HD
BRANCH  18  20
ATOM     20  C   UNL     1      45.070   4.239  12.952  0.00  0.00    +0.000 C 
BRANCH  20  21
ATOM     21  C   UNL     1      45.264   3.990  11.447  0.00  0.00    +0.000 C 
ATOM     22  C   UNL     1      45.395   5.284  10.633  0.00  0.00    +0.000 C 
ATOM     23  C   UNL     1      45.527   4.974   9.146  0.00  0.00    +0.000 C 
ATOM     24  O   UNL     1      44.432   4.175   8.697  0.00  0.00    +0.000 OA
ATOM     25  C   UNL     1      44.388   2.909   9.352  0.00  0.00    +0.000 C 
ATOM     26  C   UNL     1      44.178   3.085  10.850  0.00  0.00    +0.000 C 
ENDBRANCH  20  21
ENDBRANCH  18  20
ENDBRANCH   5  18
TORSDOF 7
ENDMDL
