MODEL 1
REMARK VINA RESULT:    -8.569      0.000      0.000
REMARK INTER + INTRA:         -13.311
REMARK INTER:                 -12.076
REMARK INTRA:                  -1.235
REMARK UNBOUND:                -1.235
REMARK  Name = 
REMARK  9 active torsions:
REMARK  status: ('A' for Active; 'I' for Inactive)
REMARK    1  A    between atoms: C_1  and  C_2
REMARK    2  A    between atoms: N_4  and  C_5
REMARK    3  A    between atoms: C_7  and  C_8
REMARK    4  A    between atoms: C_8  and  C_9
REMARK    5  A    between atoms: C_9  and  N_10
REMARK    6  A    between atoms: N_10  and  C_11
REMARK    7  A    between atoms: C_14  and  C_15
REMARK    8  A    between atoms: C_21  and  C_22
REMARK    9  A    between atoms: C_28  and  C_29
REMARK                            x       y       z     vdW  Elec       q    Type
REMARK                         _______ _______ _______ _____ _____    ______ ____
ROOT
ATOM      1  C   UNL     1      47.644   5.364  15.124  0.00  0.00    +0.000 A 
ATOM      2  C   UNL     1      46.773   4.464  14.490  0.00  0.00    +0.000 A 
ATOM      3  C   UNL     1      46.319   4.645  13.172  0.00  0.00    +0.000 A 
ATOM      4  C   UNL     1      46.775   5.749  12.452  0.00  0.00    +0.000 A 
ATOM      5  C   UNL     1      47.659   6.663  13.038  0.00  0.00    +0.000 A 
ATOM      6  C   UNL     1      48.099   6.444  14.358  0.00  0.00    +0.000 A 
ENDROOT
BRANCH   1  10
ATOM      7  C   UNL     1      49.005   2.160  16.526  0.00  0.00    +0.000 C 
ATOM      8  C   UNL     1      48.607   3.090  17.670  0.00  0.00    +0.000 C 
ATOM      9  C   UNL     1      47.492   4.085  17.282  0.00  0.00    +0.000 C 
ATOM     10  N   UNL     1      48.008   5.174  16.441  0.00  0.00    +0.000 N 
ATOM     11  C   UNL     1      49.213   5.830  16.985  0.00  0.00    +0.000 C 
ATOM     12  C   UNL     1      50.283   4.778  17.354  0.00  0.00    +0.000 C 
ATOM     13  C   UNL     1      51.454   5.444  18.071  0.00  0.00    +0.000 C 
ATOM     14  O   UNL     1      49.754   3.761  18.226  0.00  0.00    +0.000 OA
ENDBRANCH   1  10
BRANCH   5  15
ATOM     15  C   UNL     1      48.099   7.902  12.301  0.00  0.00    +0.000 C 
ATOM     16  F   UNL     1      47.069   8.598  11.744  0.00  0.00    +0.000 F 
ATOM     17  F   UNL     1      48.744   8.784  13.115  0.00  0.00    +0.000 F 
ATOM     18  F   UNL     1      48.963   7.634  11.283  0.00  0.00    +0.000 F 
ENDBRANCH   5  15
BRANCH   3  19
ATOM     19  C   UNL     1      45.312   3.692  12.564  0.00  0.00    +0.000 C 
BRANCH  19  20
ATOM     20  C   UNL     1      44.322   4.444  11.667  0.00  0.00    +0.000 C 
BRANCH  20  21
ATOM     21  N   UNL     1      43.776   3.582  10.610  0.00  0.00    +0.000 N 
ATOM     22  H   UNL     1      42.857   3.884  10.292  0.00  0.00    +0.000 HD
BRANCH  21  23
ATOM     23  C   UNL     1      44.642   3.307   9.533  0.00  0.00    +0.000 A 
ATOM     24  C   UNL     1      45.245   4.314   8.770  0.00  0.00    +0.000 A 
ATOM     25  C   UNL     1      46.148   4.005   7.760  0.00  0.00    +0.000 A 
ATOM     26  C   UNL     1      46.463   2.675   7.549  0.00  0.00    +0.000 A 
ATOM     27  N   UNL     1      45.942   1.649   8.272  0.00  0.00    +0.000 NA
ATOM     28  C   UNL     1      45.064   2.000   9.252  0.00  0.00    +0.000 A 
BRANCH  26  29
ATOM     29  C   UNL     1      47.451   2.333   6.480  0.00  0.00    +0.000 C 
ATOM     30  N   UNL     1      47.358   3.060   5.328  0.00  0.00    +0.000 N 
ATOM     31  O   UNL     1      48.298   1.453   6.613  0.00  0.00    +0.000 OA
ATOM     32  H   UNL     1      46.621   3.754   5.233  0.00  0.00    +0.000 HD
ATOM     33  H   UNL     1      47.962   2.842   4.550  0.00  0.00    +0.000 HD
ENDBRANCH  26  29
ENDBRANCH  21  23
ENDBRANCH  20  21
ENDBRANCH  19  20
ENDBRANCH   3  19
TORSDOF 7
ENDMDL
MODEL 2
REMARK VINA RESULT:    -8.366      3.074      4.528
REMARK INTER + INTRA:         -13.024
REMARK INTER:                 -11.763
REMARK INTRA:                  -1.261
REMARK UNBOUND:                -1.235
REMARK  Name = 
REMARK  9 active torsions:
REMARK  status: ('A' for Active; 'I' for Inactive)
REMARK    1  A    between atoms: C_1  and  C_2
REMARK    2  A    between atoms: N_4  and  C_5
REMARK    3  A    between atoms: C_7  and  C_8
REMARK    4  A    between atoms: C_8  and  C_9
REMARK    5  A    between atoms: C_9  and  N_10
REMARK    6  A    between atoms: N_10  and  C_11
REMARK    7  A    between atoms: C_14  and  C_15
REMARK    8  A    between atoms: C_21  and  C_22
REMARK    9  A    between atoms: C_28  and  C_29
REMARK                            x       y       z     vdW  Elec       q    Type
REMARK                         _______ _______ _______ _____ _____    ______ ____
ROOT
ATOM      1  C   UNL     1      46.765   6.989  12.694  0.00  0.00    +0.000 A 
ATOM      2  C   UNL     1      45.443   6.719  12.304  0.00  0.00    +0.000 A 
ATOM      3  C   UNL     1      44.692   5.660  12.843  0.00  0.00    +0.000 A 
ATOM      4  C   UNL     1      45.273   4.861  13.829  0.00  0.00    +0.000 A 
ATOM      5  C   UNL     1      46.582   5.106  14.262  0.00  0.00    +0.000 A 
ATOM      6  C   UNL     1      47.300   6.182  13.704  0.00  0.00    +0.000 A 
ENDROOT
BRANCH   1  10
ATOM      7  C   UNL     1      48.717   9.624  14.518  0.00  0.00    +0.000 C 
ATOM      8  C   UNL     1      48.559  10.028  13.054  0.00  0.00    +0.000 C 
ATOM      9  C   UNL     1      47.300   9.426  12.392  0.00  0.00    +0.000 C 
ATOM     10  N   UNL     1      47.480   8.001  12.085  0.00  0.00    +0.000 N 
ATOM     11  C   UNL     1      48.725   7.699  11.354  0.00  0.00    +0.000 C 
ATOM     12  C   UNL     1      49.940   8.333  12.067  0.00  0.00    +0.000 C 
ATOM     13  C   UNL     1      51.198   8.164  11.220  0.00  0.00    +0.000 C 
ATOM     14  O   UNL     1      49.751   9.741  12.297  0.00  0.00    +0.000 OA
ENDBRANCH   1  10
BRANCH   5  15
ATOM     15  C   UNL     1      47.249   4.204  15.268  0.00  0.00    +0.000 C 
ATOM     16  F   UNL     1      48.422   4.703  15.751  0.00  0.00    +0.000 F 
ATOM     17  F   UNL     1      46.465   3.981  16.360  0.00  0.00    +0.000 F 
ATOM     18  F   UNL     1      47.544   2.975  14.764  0.00  0.00    +0.000 F 
ENDBRANCH   5  15
BRANCH   3  19
ATOM     19  C   UNL     1      43.302   5.357  12.327  0.00  0.00    +0.000 C 
BRANCH  19  20
ATOM     20  C   UNL     1      43.338   4.234  11.286  0.00  0.00    +0.000 C 
BRANCH  20  21
ATOM     21  N   UNL     1      43.698   4.734   9.953  0.00  0.00    +0.000 N 
ATOM     22  H   UNL     1      43.914   5.730   9.951  0.00  0.00    +0.000 HD
BRANCH  21  23
ATOM     23  C   UNL     1      44.667   3.985   9.256  0.00  0.00    +0.000 A 
ATOM     24  C   UNL     1      44.744   2.590   9.331  0.00  0.00    +0.000 A 
ATOM     25  C   UNL     1      45.670   1.881   8.575  0.00  0.00    +0.000 A 
ATOM     26  C   UNL     1      46.493   2.589   7.717  0.00  0.00    +0.000 A 
ATOM     27  N   UNL     1      46.451   3.939   7.568  0.00  0.00    +0.000 NA
ATOM     28  C   UNL     1      45.527   4.590   8.328  0.00  0.00    +0.000 A 
BRANCH  26  29
ATOM     29  C   UNL     1      47.477   1.833   6.881  0.00  0.00    +0.000 C 
ATOM     30  N   UNL     1      48.539   2.553   6.415  0.00  0.00    +0.000 N 
ATOM     31  O   UNL     1      47.349   0.640   6.618  0.00  0.00    +0.000 OA
ATOM     32  H   UNL     1      48.596   3.548   6.617  0.00  0.00    +0.000 HD
ATOM     33  H   UNL     1      49.209   2.114   5.803  0.00  0.00    +0.000 HD
ENDBRANCH  26  29
ENDBRANCH  21  23
ENDBRANCH  20  21
ENDBRANCH  19  20
ENDBRANCH   3  19
TORSDOF 7
ENDMDL
MODEL 3
REMARK VINA RESULT:    -7.953      1.896      2.976
REMARK INTER + INTRA:         -12.442
REMARK INTER:                 -11.295
REMARK INTRA:                  -1.147
REMARK UNBOUND:                -1.235
REMARK  Name = 
REMARK  9 active torsions:
REMARK  status: ('A' for Active; 'I' for Inactive)
REMARK    1  A    between atoms: C_1  and  C_2
REMARK    2  A    between atoms: N_4  and  C_5
REMARK    3  A    between atoms: C_7  and  C_8
REMARK    4  A    between atoms: C_8  and  C_9
REMARK    5  A    between atoms: C_9  and  N_10
REMARK    6  A    between atoms: N_10  and  C_11
REMARK    7  A    between atoms: C_14  and  C_15
REMARK    8  A    between atoms: C_21  and  C_22
REMARK    9  A    between atoms: C_28  and  C_29
REMARK                            x       y       z     vdW  Elec       q    Type
REMARK                         _______ _______ _______ _____ _____    ______ ____
ROOT
ATOM      1  C   UNL     1      46.896   6.528  13.382  0.00  0.00    +0.000 A 
ATOM      2  C   UNL     1      45.914   5.525  13.348  0.00  0.00    +0.000 A 
ATOM      3  C   UNL     1      44.642   5.724  12.785  0.00  0.00    +0.000 A 
ATOM      4  C   UNL     1      44.352   6.960  12.205  0.00  0.00    +0.000 A 
ATOM      5  C   UNL     1      45.307   7.983  12.199  0.00  0.00    +0.000 A 
ATOM      6  C   UNL     1      46.575   7.743  12.767  0.00  0.00    +0.000 A 
ENDROOT
BRANCH   1  10
ATOM      7  C   UNL     1      48.756   9.065  15.427  0.00  0.00    +0.000 C 
ATOM      8  C   UNL     1      49.676   7.886  15.117  0.00  0.00    +0.000 C 
ATOM      9  C   UNL     1      49.293   7.145  13.817  0.00  0.00    +0.000 C 
ATOM     10  N   UNL     1      48.106   6.301  14.006  0.00  0.00    +0.000 N 
ATOM     11  C   UNL     1      48.184   5.414  15.183  0.00  0.00    +0.000 C 
ATOM     12  C   UNL     1      48.574   6.218  16.443  0.00  0.00    +0.000 C 
ATOM     13  C   UNL     1      48.819   5.275  17.617  0.00  0.00    +0.000 C 
ATOM     14  O   UNL     1      49.774   6.986  16.237  0.00  0.00    +0.000 OA
ENDBRANCH   1  10
BRANCH   5  15
ATOM     15  C   UNL     1      44.982   9.347  11.649  0.00  0.00    +0.000 C 
ATOM     16  F   UNL     1      44.230  10.109  12.492  0.00  0.00    +0.000 F 
ATOM     17  F   UNL     1      46.102  10.079  11.391  0.00  0.00    +0.000 F 
ATOM     18  F   UNL     1      44.293   9.295  10.476  0.00  0.00    +0.000 F 
ENDBRANCH   5  15
BRANCH   3  19
ATOM     19  C   UNL     1      43.588   4.639  12.851  0.00  0.00    +0.000 C 
BRANCH  19  20
ATOM     20  C   UNL     1      43.916   3.499  11.882  0.00  0.00    +0.000 C 
BRANCH  20  21
ATOM     21  N   UNL     1      43.671   3.880  10.485  0.00  0.00    +0.000 N 
ATOM     22  H   UNL     1      43.422   4.862  10.383  0.00  0.00    +0.000 HD
BRANCH  21  23
ATOM     23  C   UNL     1      44.658   3.489   9.558  0.00  0.00    +0.000 A 
ATOM     24  C   UNL     1      44.994   2.150   9.329  0.00  0.00    +0.000 A 
ATOM     25  C   UNL     1      45.924   1.801   8.357  0.00  0.00    +0.000 A 
ATOM     26  C   UNL     1      46.485   2.810   7.596  0.00  0.00    +0.000 A 
ATOM     27  N   UNL     1      46.182   4.127   7.741  0.00  0.00    +0.000 NA
ATOM     28  C   UNL     1      45.265   4.421   8.704  0.00  0.00    +0.000 A 
BRANCH  26  29
ATOM     29  C   UNL     1      47.470   2.443   6.531  0.00  0.00    +0.000 C 
ATOM     30  N   UNL     1      47.357   3.127   5.355  0.00  0.00    +0.000 N 
ATOM     31  O   UNL     1      48.328   1.579   6.688  0.00  0.00    +0.000 OA
ATOM     32  H   UNL     1      46.611   3.808   5.242  0.00  0.00    +0.000 HD
ATOM     33  H   UNL     1      47.957   2.889   4.580  0.00  0.00    +0.000 HD
ENDBRANCH  26  29
ENDBRANCH  21  23
ENDBRANCH  20  21
ENDBRANCH  19  20
ENDBRANCH   3  19
TORSDOF 7
ENDMDL
MODEL 4
REMARK VINA RESULT:    -7.948      3.030      4.544
REMARK INTER + INTRA:         -12.435
REMARK INTER:                 -11.313
REMARK INTRA:                  -1.122
REMARK UNBOUND:                -1.235
REMARK  Name = 
REMARK  9 active torsions:
REMARK  status: ('A' for Active; 'I' for Inactive)
REMARK    1  A    between atoms: C_1  and  C_2
REMARK    2  A    between atoms: N_4  and  C_5
REMARK    3  A    between atoms: C_7  and  C_8
REMARK    4  A    between atoms: C_8  and  C_9
REMARK    5  A    between atoms: C_9  and  N_10
REMARK    6  A    between atoms: N_10  and  C_11
REMARK    7  A    between atoms: C_14  and  C_15
REMARK    8  A    between atoms: C_21  and  C_22
REMARK    9  A    between atoms: C_28  and  C_29
REMARK                            x       y       z     vdW  Elec       q    Type
REMARK                         _______ _______ _______ _____ _____    ______ ____
ROOT
ATOM      1  C   UNL     1      47.935   6.483  13.575  0.00  0.00    +0.000 A 
ATOM      2  C   UNL     1      46.880   5.989  12.792  0.00  0.00    +0.000 A 
ATOM      3  C   UNL     1      46.093   4.891  13.181  0.00  0.00    +0.000 A 
ATOM      4  C   UNL     1      46.350   4.285  14.411  0.00  0.00    +0.000 A 
ATOM      5  C   UNL     1      47.380   4.757  15.234  0.00  0.00    +0.000 A 
ATOM      6  C   UNL     1      48.143   5.865  14.814  0.00  0.00    +0.000 A 
ENDROOT
BRANCH   1  10
ATOM      7  C   UNL     1      46.612   9.696  12.158  0.00  0.00    +0.000 C 
ATOM      8  C   UNL     1      48.102   9.576  11.847  0.00  0.00    +0.000 C 
ATOM      9  C   UNL     1      48.590   8.113  11.777  0.00  0.00    +0.000 C 
ATOM     10  N   UNL     1      48.719   7.522  13.117  0.00  0.00    +0.000 N 
ATOM     11  C   UNL     1      49.489   8.351  14.064  0.00  0.00    +0.000 C 
ATOM     12  C   UNL     1      48.951   9.799  14.080  0.00  0.00    +0.000 C 
ATOM     13  C   UNL     1      49.853  10.690  14.928  0.00  0.00    +0.000 C 
ATOM     14  O   UNL     1      48.895  10.363  12.756  0.00  0.00    +0.000 OA
ENDBRANCH   1  10
BRANCH   5  15
ATOM     15  C   UNL     1      47.721   4.064  16.528  0.00  0.00    +0.000 C 
ATOM     16  F   UNL     1      48.899   4.477  17.073  0.00  0.00    +0.000 F 
ATOM     17  F   UNL     1      46.777   4.274  17.488  0.00  0.00    +0.000 F 
ATOM     18  F   UNL     1      47.823   2.713  16.395  0.00  0.00    +0.000 F 
ENDBRANCH   5  15
BRANCH   3  19
ATOM     19  C   UNL     1      45.024   4.342  12.261  0.00  0.00    +0.000 C 
BRANCH  19  20
ATOM     20  C   UNL     1      44.553   5.412  11.270  0.00  0.00    +0.000 C 
BRANCH  20  21
ATOM     21  N   UNL     1      44.016   4.819  10.038  0.00  0.00    +0.000 N 
ATOM     22  H   UNL     1      43.447   5.473   9.503  0.00  0.00    +0.000 HD
BRANCH  21  23
ATOM     23  C   UNL     1      44.947   4.145   9.223  0.00  0.00    +0.000 A 
ATOM     24  C   UNL     1      44.986   2.750   9.113  0.00  0.00    +0.000 A 
ATOM     25  C   UNL     1      45.873   2.124   8.245  0.00  0.00    +0.000 A 
ATOM     26  C   UNL     1      46.696   2.918   7.467  0.00  0.00    +0.000 A 
ATOM     27  N   UNL     1      46.689   4.276   7.498  0.00  0.00    +0.000 NA
ATOM     28  C   UNL     1      45.803   4.845   8.361  0.00  0.00    +0.000 A 
BRANCH  26  29
ATOM     29  C   UNL     1      47.639   2.254   6.513  0.00  0.00    +0.000 C 
ATOM     30  N   UNL     1      47.941   2.963   5.386  0.00  0.00    +0.000 N 
ATOM     31  O   UNL     1      48.115   1.141   6.714  0.00  0.00    +0.000 OA
ATOM     32  H   UNL     1      47.499   3.865   5.228  0.00  0.00    +0.000 HD
ATOM     33  H   UNL     1      48.529   2.549   4.679  0.00  0.00    +0.000 HD
ENDBRANCH  26  29
ENDBRANCH  21  23
ENDBRANCH  20  21
ENDBRANCH  19  20
ENDBRANCH   3  19
TORSDOF 7
ENDMDL
MODEL 5
REMARK VINA RESULT:    -6.923      2.983      8.355
REMARK INTER + INTRA:         -10.991
REMARK INTER:                 -10.087
REMARK INTRA:                  -0.904
REMARK UNBOUND:                -1.235
REMARK  Name = 
REMARK  9 active torsions:
REMARK  status: ('A' for Active; 'I' for Inactive)
REMARK    1  A    between atoms: C_1  and  C_2
REMARK    2  A    between atoms: N_4  and  C_5
REMARK    3  A    between atoms: C_7  and  C_8
REMARK    4  A    between atoms: C_8  and  C_9
REMARK    5  A    between atoms: C_9  and  N_10
REMARK    6  A    between atoms: N_10  and  C_11
REMARK    7  A    between atoms: C_14  and  C_15
REMARK    8  A    between atoms: C_21  and  C_22
REMARK    9  A    between atoms: C_28  and  C_29
REMARK                            x       y       z     vdW  Elec       q    Type
REMARK                         _______ _______ _______ _____ _____    ______ ____
ROOT
ATOM      1  C   UNL     1      46.001   4.854  13.295  0.00  0.00    +0.000 A 
ATOM      2  C   UNL     1      46.437   4.613  14.607  0.00  0.00    +0.000 A 
ATOM      3  C   UNL     1      47.529   5.285  15.181  0.00  0.00    +0.000 A 
ATOM      4  C   UNL     1      48.191   6.256  14.427  0.00  0.00    +0.000 A 
ATOM      5  C   UNL     1      47.778   6.542  13.120  0.00  0.00    +0.000 A 
ATOM      6  C   UNL     1      46.674   5.853  12.581  0.00  0.00    +0.000 A 
ENDROOT
BRANCH   1  10
ATOM      7  C   UNL     1      43.156   6.298  11.319  0.00  0.00    +0.000 C 
ATOM      8  C   UNL     1      42.824   4.862  11.716  0.00  0.00    +0.000 C 
ATOM      9  C   UNL     1      43.544   4.408  13.004  0.00  0.00    +0.000 C 
ATOM     10  N   UNL     1      44.964   4.119  12.757  0.00  0.00    +0.000 N 
ATOM     11  C   UNL     1      45.200   3.223  11.608  0.00  0.00    +0.000 C 
ATOM     12  C   UNL     1      44.449   3.734  10.359  0.00  0.00    +0.000 C 
ATOM     13  C   UNL     1      44.557   2.719   9.225  0.00  0.00    +0.000 C 
ATOM     14  O   UNL     1      43.051   3.948  10.625  0.00  0.00    +0.000 OA
ENDBRANCH   1  10
BRANCH   5  15
ATOM     15  C   UNL     1      48.531   7.529  12.266  0.00  0.00    +0.000 C 
ATOM     16  F   UNL     1      49.880   7.495  12.455  0.00  0.00    +0.000 F 
ATOM     17  F   UNL     1      48.339   7.310  10.935  0.00  0.00    +0.000 F 
ATOM     18  F   UNL     1      48.154   8.818  12.490  0.00  0.00    +0.000 F 
ENDBRANCH   5  15
BRANCH   3  19
ATOM     19  C   UNL     1      48.015   4.927  16.570  0.00  0.00    +0.000 C 
BRANCH  19  20
ATOM     20  C   UNL     1      49.516   5.199  16.710  0.00  0.00    +0.000 C 
BRANCH  20  21
ATOM     21  N   UNL     1      50.047   4.697  17.984  0.00  0.00    +0.000 N 
ATOM     22  H   UNL     1      49.318   4.528  18.675  0.00  0.00    +0.000 HD
BRANCH  21  23
ATOM     23  C   UNL     1      50.945   3.615  17.893  0.00  0.00    +0.000 A 
ATOM     24  C   UNL     1      52.243   3.662  18.415  0.00  0.00    +0.000 A 
ATOM     25  C   UNL     1      53.075   2.550  18.367  0.00  0.00    +0.000 A 
ATOM     26  C   UNL     1      52.576   1.382  17.820  0.00  0.00    +0.000 A 
ATOM     27  N   UNL     1      51.316   1.255  17.326  0.00  0.00    +0.000 NA
ATOM     28  C   UNL     1      50.537   2.370  17.396  0.00  0.00    +0.000 A 
BRANCH  26  29
ATOM     29  C   UNL     1      53.456   0.173  17.785  0.00  0.00    +0.000 C 
ATOM     30  N   UNL     1      53.791  -0.283  16.543  0.00  0.00    +0.000 N 
ATOM     31  O   UNL     1      53.856  -0.388  18.801  0.00  0.00    +0.000 OA
ATOM     32  H   UNL     1      53.412   0.179  15.721  0.00  0.00    +0.000 HD
ATOM     33  H   UNL     1      54.339  -1.125  16.452  0.00  0.00    +0.000 HD
ENDBRANCH  26  29
ENDBRANCH  21  23
ENDBRANCH  20  21
ENDBRANCH  19  20
ENDBRANCH   3  19
TORSDOF 7
ENDMDL
MODEL 6
REMARK VINA RESULT:    -6.764      3.287      4.786
REMARK INTER + INTRA:         -10.767
REMARK INTER:                  -9.618
REMARK INTRA:                  -1.149
REMARK UNBOUND:                -1.235
REMARK  Name = 
REMARK  9 active torsions:
REMARK  status: ('A' for Active; 'I' for Inactive)
REMARK    1  A    between atoms: C_1  and  C_2
REMARK    2  A    between atoms: N_4  and  C_5
REMARK    3  A    between atoms: C_7  and  C_8
REMARK    4  A    between atoms: C_8  and  C_9
REMARK    5  A    between atoms: C_9  and  N_10
REMARK    6  A    between atoms: N_10  and  C_11
REMARK    7  A    between atoms: C_14  and  C_15
REMARK    8  A    between atoms: C_21  and  C_22
REMARK    9  A    between atoms: C_28  and  C_29
REMARK                            x       y       z     vdW  Elec       q    Type
REMARK                         _______ _______ _______ _____ _____    ______ ____
ROOT
ATOM      1  C   UNL     1      48.988   6.431  17.698  0.00  0.00    +0.000 A 
ATOM      2  C   UNL     1      49.201   6.599  16.321  0.00  0.00    +0.000 A 
ATOM      3  C   UNL     1      48.948   7.810  15.654  0.00  0.00    +0.000 A 
ATOM      4  C   UNL     1      48.496   8.902  16.396  0.00  0.00    +0.000 A 
ATOM      5  C   UNL     1      48.287   8.785  17.776  0.00  0.00    +0.000 A 
ATOM      6  C   UNL     1      48.559   7.557  18.411  0.00  0.00    +0.000 A 
ENDROOT
BRANCH   1  10
ATOM      7  C   UNL     1      47.929   3.145  16.226  0.00  0.00    +0.000 C 
ATOM      8  C   UNL     1      48.302   2.950  17.694  0.00  0.00    +0.000 C 
ATOM      9  C   UNL     1      48.118   4.228  18.540  0.00  0.00    +0.000 C 
ATOM     10  N   UNL     1      49.190   5.201  18.292  0.00  0.00    +0.000 N 
ATOM     11  C   UNL     1      50.548   4.631  18.383  0.00  0.00    +0.000 C 
ATOM     12  C   UNL     1      50.660   3.356  17.517  0.00  0.00    +0.000 C 
ATOM     13  C   UNL     1      52.007   2.677  17.747  0.00  0.00    +0.000 C 
ATOM     14  O   UNL     1      49.628   2.403  17.832  0.00  0.00    +0.000 OA
ENDBRANCH   1  10
BRANCH   5  15
ATOM     15  C   UNL     1      47.724   9.930  18.577  0.00  0.00    +0.000 C 
ATOM     16  F   UNL     1      48.619  10.478  19.446  0.00  0.00    +0.000 F 
ATOM     17  F   UNL     1      47.304  10.956  17.784  0.00  0.00    +0.000 F 
ATOM     18  F   UNL     1      46.645   9.573  19.326  0.00  0.00    +0.000 F 
ENDBRANCH   5  15
BRANCH   3  19
ATOM     19  C   UNL     1      49.111   7.915  14.153  0.00  0.00    +0.000 C 
BRANCH  19  20
ATOM     20  C   UNL     1      48.353   6.790  13.441  0.00  0.00    +0.000 C 
BRANCH  20  21
ATOM     21  N   UNL     1      46.899   6.917  13.609  0.00  0.00    +0.000 N 
ATOM     22  H   UNL     1      46.563   7.860  13.425  0.00  0.00    +0.000 HD
BRANCH  21  23
ATOM     23  C   UNL     1      46.117   5.943  12.957  0.00  0.00    +0.000 A 
ATOM     24  C   UNL     1      45.876   5.964  11.579  0.00  0.00    +0.000 A 
ATOM     25  C   UNL     1      45.158   4.947  10.961  0.00  0.00    +0.000 A 
ATOM     26  C   UNL     1      44.715   3.893  11.739  0.00  0.00    +0.000 A 
ATOM     27  N   UNL     1      44.941   3.790  13.075  0.00  0.00    +0.000 NA
ATOM     28  C   UNL     1      45.650   4.808  13.636  0.00  0.00    +0.000 A 
BRANCH  26  29
ATOM     29  C   UNL     1      43.962   2.781  11.080  0.00  0.00    +0.000 C 
ATOM     30  N   UNL     1      44.499   2.306   9.918  0.00  0.00    +0.000 N 
ATOM     31  O   UNL     1      42.922   2.317  11.540  0.00  0.00    +0.000 OA
ATOM     32  H   UNL     1      45.339   2.737   9.542  0.00  0.00    +0.000 HD
ATOM     33  H   UNL     1      44.011   1.592   9.399  0.00  0.00    +0.000 HD
ENDBRANCH  26  29
ENDBRANCH  21  23
ENDBRANCH  20  21
ENDBRANCH  19  20
ENDBRANCH   3  19
TORSDOF 7
ENDMDL
MODEL 7
REMARK VINA RESULT:    -6.741      3.179      4.159
REMARK INTER + INTRA:         -10.734
REMARK INTER:                  -9.871
REMARK INTRA:                  -0.864
REMARK UNBOUND:                -1.235
REMARK  Name = 
REMARK  9 active torsions:
REMARK  status: ('A' for Active; 'I' for Inactive)
REMARK    1  A    between atoms: C_1  and  C_2
REMARK    2  A    between atoms: N_4  and  C_5
REMARK    3  A    between atoms: C_7  and  C_8
REMARK    4  A    between atoms: C_8  and  C_9
REMARK    5  A    between atoms: C_9  and  N_10
REMARK    6  A    between atoms: N_10  and  C_11
REMARK    7  A    between atoms: C_14  and  C_15
REMARK    8  A    between atoms: C_21  and  C_22
REMARK    9  A    between atoms: C_28  and  C_29
REMARK                            x       y       z     vdW  Elec       q    Type
REMARK                         _______ _______ _______ _____ _____    ______ ____
ROOT
ATOM      1  C   UNL     1      48.659   6.652  15.313  0.00  0.00    +0.000 A 
ATOM      2  C   UNL     1      47.916   6.533  14.127  0.00  0.00    +0.000 A 
ATOM      3  C   UNL     1      47.116   5.414  13.841  0.00  0.00    +0.000 A 
ATOM      4  C   UNL     1      47.030   4.391  14.786  0.00  0.00    +0.000 A 
ATOM      5  C   UNL     1      47.739   4.477  15.990  0.00  0.00    +0.000 A 
ATOM      6  C   UNL     1      48.525   5.618  16.246  0.00  0.00    +0.000 A 
ENDROOT
BRANCH   1  10
ATOM      7  C   UNL     1      52.191   6.464  16.568  0.00  0.00    +0.000 C 
ATOM      8  C   UNL     1      51.701   7.909  16.637  0.00  0.00    +0.000 C 
ATOM      9  C   UNL     1      50.168   8.022  16.784  0.00  0.00    +0.000 C 
ATOM     10  N   UNL     1      49.481   7.742  15.516  0.00  0.00    +0.000 N 
ATOM     11  C   UNL     1      50.015   8.499  14.367  0.00  0.00    +0.000 C 
ATOM     12  C   UNL     1      51.550   8.345  14.282  0.00  0.00    +0.000 C 
ATOM     13  C   UNL     1      52.115   9.261  13.201  0.00  0.00    +0.000 C 
ATOM     14  O   UNL     1      52.191   8.684  15.526  0.00  0.00    +0.000 OA
ENDBRANCH   1  10
BRANCH   5  15
ATOM     15  C   UNL     1      47.719   3.346  16.986  0.00  0.00    +0.000 C 
ATOM     16  F   UNL     1      46.463   2.953  17.338  0.00  0.00    +0.000 F 
ATOM     17  F   UNL     1      48.335   2.228  16.508  0.00  0.00    +0.000 F 
ATOM     18  F   UNL     1      48.356   3.653  18.150  0.00  0.00    +0.000 F 
ENDBRANCH   5  15
BRANCH   3  19
ATOM     19  C   UNL     1      46.403   5.294  12.511  0.00  0.00    +0.000 C 
BRANCH  19  20
ATOM     20  C   UNL     1      44.964   4.804  12.705  0.00  0.00    +0.000 C 
BRANCH  20  21
ATOM     21  N   UNL     1      44.210   4.805  11.444  0.00  0.00    +0.000 N 
ATOM     22  H   UNL     1      43.842   5.725  11.207  0.00  0.00    +0.000 HD
BRANCH  21  23
ATOM     23  C   UNL     1      44.847   4.194  10.346  0.00  0.00    +0.000 A 
ATOM     24  C   UNL     1      44.856   2.808  10.151  0.00  0.00    +0.000 A 
ATOM     25  C   UNL     1      45.435   2.248   9.019  0.00  0.00    +0.000 A 
ATOM     26  C   UNL     1      45.974   3.099   8.070  0.00  0.00    +0.000 A 
ATOM     27  N   UNL     1      45.970   4.453   8.177  0.00  0.00    +0.000 NA
ATOM     28  C   UNL     1      45.390   4.957   9.302  0.00  0.00    +0.000 A 
BRANCH  26  29
ATOM     29  C   UNL     1      46.578   2.506   6.836  0.00  0.00    +0.000 C 
ATOM     30  N   UNL     1      47.250   1.330   7.009  0.00  0.00    +0.000 N 
ATOM     31  O   UNL     1      46.488   3.034   5.732  0.00  0.00    +0.000 OA
ATOM     32  H   UNL     1      47.342   0.938   7.942  0.00  0.00    +0.000 HD
ATOM     33  H   UNL     1      47.724   0.908   6.225  0.00  0.00    +0.000 HD
ENDBRANCH  26  29
ENDBRANCH  21  23
ENDBRANCH  20  21
ENDBRANCH  19  20
ENDBRANCH   3  19
TORSDOF 7
ENDMDL
MODEL 8
REMARK VINA RESULT:    -6.510      3.190      4.377
REMARK INTER + INTRA:         -10.409
REMARK INTER:                  -9.172
REMARK INTRA:                  -1.237
REMARK UNBOUND:                -1.235
REMARK  Name = 
REMARK  9 active torsions:
REMARK  status: ('A' for Active; 'I' for Inactive)
REMARK    1  A    between atoms: C_1  and  C_2
REMARK    2  A    between atoms: N_4  and  C_5
REMARK    3  A    between atoms: C_7  and  C_8
REMARK    4  A    between atoms: C_8  and  C_9
REMARK    5  A    between atoms: C_9  and  N_10
REMARK    6  A    between atoms: N_10  and  C_11
REMARK    7  A    between atoms: C_14  and  C_15
REMARK    8  A    between atoms: C_21  and  C_22
REMARK    9  A    between atoms: C_28  and  C_29
REMARK                            x       y       z     vdW  Elec       q    Type
REMARK                         _______ _______ _______ _____ _____    ______ ____
ROOT
ATOM      1  C   UNL     1      48.933   6.086  16.243  0.00  0.00    +0.000 A 
ATOM      2  C   UNL     1      48.335   6.638  15.099  0.00  0.00    +0.000 A 
ATOM      3  C   UNL     1      49.031   7.467  14.202  0.00  0.00    +0.000 A 
ATOM      4  C   UNL     1      50.381   7.728  14.441  0.00  0.00    +0.000 A 
ATOM      5  C   UNL     1      51.022   7.184  15.560  0.00  0.00    +0.000 A 
ATOM      6  C   UNL     1      50.294   6.350  16.432  0.00  0.00    +0.000 A 
ENDROOT
BRANCH   1  10
ATOM      7  C   UNL     1      49.607   2.491  17.085  0.00  0.00    +0.000 C 
ATOM      8  C   UNL     1      48.221   2.883  17.593  0.00  0.00    +0.000 C 
ATOM      9  C   UNL     1      47.584   4.035  16.786  0.00  0.00    +0.000 C 
ATOM     10  N   UNL     1      48.187   5.331  17.126  0.00  0.00    +0.000 N 
ATOM     11  C   UNL     1      48.250   5.599  18.576  0.00  0.00    +0.000 C 
ATOM     12  C   UNL     1      48.894   4.408  19.319  0.00  0.00    +0.000 C 
ATOM     13  C   UNL     1      48.803   4.615  20.828  0.00  0.00    +0.000 C 
ATOM     14  O   UNL     1      48.238   3.165  19.005  0.00  0.00    +0.000 OA
ENDBRANCH   1  10
BRANCH   5  15
ATOM     15  C   UNL     1      52.457   7.520  15.874  0.00  0.00    +0.000 C 
ATOM     16  F   UNL     1      52.635   8.028  17.125  0.00  0.00    +0.000 F 
ATOM     17  F   UNL     1      53.270   6.429  15.799  0.00  0.00    +0.000 F 
ATOM     18  F   UNL     1      52.985   8.438  15.018  0.00  0.00    +0.000 F 
ENDBRANCH   5  15
BRANCH   3  19
ATOM     19  C   UNL     1      48.319   8.108  13.030  0.00  0.00    +0.000 C 
BRANCH  19  20
ATOM     20  C   UNL     1      46.809   8.180  13.281  0.00  0.00    +0.000 C 
BRANCH  20  21
ATOM     21  N   UNL     1      46.038   7.967  12.049  0.00  0.00    +0.000 N 
ATOM     22  H   UNL     1      46.510   8.329  11.223  0.00  0.00    +0.000 HD
BRANCH  21  23
ATOM     23  C   UNL     1      45.550   6.661  11.847  0.00  0.00    +0.000 A 
ATOM     24  C   UNL     1      44.857   5.949  12.833  0.00  0.00    +0.000 A 
ATOM     25  C   UNL     1      44.331   4.690  12.572  0.00  0.00    +0.000 A 
ATOM     26  C   UNL     1      44.481   4.169  11.299  0.00  0.00    +0.000 A 
ATOM     27  N   UNL     1      45.112   4.817  10.284  0.00  0.00    +0.000 NA
ATOM     28  C   UNL     1      45.609   6.048  10.587  0.00  0.00    +0.000 A 
BRANCH  26  29
ATOM     29  C   UNL     1      43.898   2.824  11.001  0.00  0.00    +0.000 C 
ATOM     30  N   UNL     1      44.471   2.143   9.966  0.00  0.00    +0.000 N 
ATOM     31  O   UNL     1      42.960   2.350  11.636  0.00  0.00    +0.000 OA
ATOM     32  H   UNL     1      45.220   2.579   9.434  0.00  0.00    +0.000 HD
ATOM     33  H   UNL     1      44.090   1.254   9.682  0.00  0.00    +0.000 HD
ENDBRANCH  26  29
ENDBRANCH  21  23
ENDBRANCH  20  21
ENDBRANCH  19  20
ENDBRANCH   3  19
TORSDOF 7
ENDMDL
MODEL 9
REMARK VINA RESULT:    -6.319      3.780      5.572
REMARK INTER + INTRA:         -10.140
REMARK INTER:                  -8.789
REMARK INTRA:                  -1.350
REMARK UNBOUND:                -1.235
REMARK  Name = 
REMARK  9 active torsions:
REMARK  status: ('A' for Active; 'I' for Inactive)
REMARK    1  A    between atoms: C_1  and  C_2
REMARK    2  A    between atoms: N_4  and  C_5
REMARK    3  A    between atoms: C_7  and  C_8
REMARK    4  A    between atoms: C_8  and  C_9
REMARK    5  A    between atoms: C_9  and  N_10
REMARK    6  A    between atoms: N_10  and  C_11
REMARK    7  A    between atoms: C_14  and  C_15
REMARK    8  A    between atoms: C_21  and  C_22
REMARK    9  A    between atoms: C_28  and  C_29
REMARK                            x       y       z     vdW  Elec       q    Type
REMARK                         _______ _______ _______ _____ _____    ______ ____
ROOT
ATOM      1  C   UNL     1      51.075   5.630  17.407  0.00  0.00    +0.000 A 
ATOM      2  C   UNL     1      50.957   6.508  16.319  0.00  0.00    +0.000 A 
ATOM      3  C   UNL     1      49.745   6.719  15.639  0.00  0.00    +0.000 A 
ATOM      4  C   UNL     1      48.603   6.052  16.084  0.00  0.00    +0.000 A 
ATOM      5  C   UNL     1      48.670   5.181  17.178  0.00  0.00    +0.000 A 
ATOM      6  C   UNL     1      49.901   5.001  17.839  0.00  0.00    +0.000 A 
ENDROOT
BRANCH   1  10
ATOM      7  C   UNL     1      51.601   4.938  21.058  0.00  0.00    +0.000 C 
ATOM      8  C   UNL     1      52.941   5.266  20.403  0.00  0.00    +0.000 C 
ATOM      9  C   UNL     1      52.801   6.165  19.155  0.00  0.00    +0.000 C 
ATOM     10  N   UNL     1      52.303   5.409  17.997  0.00  0.00    +0.000 N 
ATOM     11  C   UNL     1      53.043   4.159  17.737  0.00  0.00    +0.000 C 
ATOM     12  C   UNL     1      53.148   3.313  19.025  0.00  0.00    +0.000 C 
ATOM     13  C   UNL     1      54.056   2.108  18.794  0.00  0.00    +0.000 C 
ATOM     14  O   UNL     1      53.694   4.071  20.120  0.00  0.00    +0.000 OA
ENDBRANCH   1  10
BRANCH   5  15
ATOM     15  C   UNL     1      47.463   4.394  17.621  0.00  0.00    +0.000 C 
ATOM     16  F   UNL     1      46.604   5.109  18.400  0.00  0.00    +0.000 F 
ATOM     17  F   UNL     1      46.723   3.949  16.567  0.00  0.00    +0.000 F 
ATOM     18  F   UNL     1      47.789   3.286  18.342  0.00  0.00    +0.000 F 
ENDBRANCH   5  15
BRANCH   3  19
ATOM     19  C   UNL     1      49.688   7.609  14.416  0.00  0.00    +0.000 C 
BRANCH  19  20
ATOM     20  C   UNL     1      48.247   7.763  13.919  0.00  0.00    +0.000 C 
BRANCH  20  21
ATOM     21  N   UNL     1      48.085   7.261  12.548  0.00  0.00    +0.000 N 
ATOM     22  H   UNL     1      48.968   6.988  12.122  0.00  0.00    +0.000 HD
BRANCH  21  23
ATOM     23  C   UNL     1      47.088   6.282  12.365  0.00  0.00    +0.000 A 
ATOM     24  C   UNL     1      46.803   5.304  13.324  0.00  0.00    +0.000 A 
ATOM     25  C   UNL     1      45.765   4.398  13.138  0.00  0.00    +0.000 A 
ATOM     26  C   UNL     1      44.997   4.510  11.993  0.00  0.00    +0.000 A 
ATOM     27  N   UNL     1      45.195   5.455  11.037  0.00  0.00    +0.000 NA
ATOM     28  C   UNL     1      46.221   6.321  11.264  0.00  0.00    +0.000 A 
BRANCH  26  29
ATOM     29  C   UNL     1      43.863   3.555  11.795  0.00  0.00    +0.000 C 
ATOM     30  N   UNL     1      43.865   2.453  12.601  0.00  0.00    +0.000 N 
ATOM     31  O   UNL     1      42.980   3.735  10.961  0.00  0.00    +0.000 OA
ATOM     32  H   UNL     1      44.631   2.312  13.254  0.00  0.00    +0.000 HD
ATOM     33  H   UNL     1      43.156   1.746  12.480  0.00  0.00    +0.000 HD
ENDBRANCH  26  29
ENDBRANCH  21  23
ENDBRANCH  20  21
ENDBRANCH  19  20
ENDBRANCH   3  19
TORSDOF 7
ENDMDL
