MODEL 1
REMARK VINA RESULT:    -7.289      0.000      0.000
REMARK INTER + INTRA:          -8.825
REMARK INTER:                  -8.568
REMARK INTRA:                  -0.258
REMARK UNBOUND:                -0.258
REMARK  Name = 
REMARK  3 active torsions:
REMARK  status: ('A' for Active; 'I' for Inactive)
REMARK    1  A    between atoms: C_2  and  C_4
REMARK    2  A    between atoms: N_8  and  C_9
REMARK    3  A    between atoms: C_9  and  C_10
REMARK                            x       y       z     vdW  Elec       q    Type
REMARK                         _______ _______ _______ _____ _____    ______ ____
ROOT
ATOM      1  C   UNL     1      46.240   2.042   7.868  0.00  0.00    +0.000 A 
ATOM      2  C   UNL     1      46.058   3.277   7.249  0.00  0.00    +0.000 A 
ATOM      3  C   UNL     1      45.300   4.250   7.902  0.00  0.00    +0.000 A 
ATOM      4  C   UNL     1      44.762   3.991   9.162  0.00  0.00    +0.000 A 
ATOM      5  N   UNL     1      44.102   5.034   9.806  0.00  0.00    +0.000 N 
ATOM      6  N   UNL     1      44.924   2.795   9.761  0.00  0.00    +0.000 NA
ATOM      7  C   UNL     1      45.630   1.841   9.098  0.00  0.00    +0.000 A 
ATOM      8  H   UNL     1      43.310   5.377   9.264  0.00  0.00    +0.000 HD
ENDROOT
BRANCH   1  10
ATOM      9  N   UNL     1      46.742  -0.325   7.649  0.00  0.00    +0.000 N 
ATOM     10  C   UNL     1      47.044   0.956   7.272  0.00  0.00    +0.000 C 
ATOM     11  O   UNL     1      47.914   1.183   6.444  0.00  0.00    +0.000 OA
ATOM     12  H   UNL     1      47.216  -1.063   7.144  0.00  0.00    +0.000 HD
ATOM     13  H   UNL     1      45.877  -0.562   8.111  0.00  0.00    +0.000 HD
ENDBRANCH   1  10
BRANCH   5  14
ATOM     14  C   UNL     1      43.713   4.811  11.202  0.00  0.00    +0.000 C 
BRANCH  14  15
ATOM     15  C   UNL     1      44.866   5.101  12.163  0.00  0.00    +0.000 A 
ATOM     16  N   UNL     1      45.126   4.204  13.146  0.00  0.00    +0.000 NA
ATOM     17  C   UNL     1      46.157   4.490  13.964  0.00  0.00    +0.000 A 
ATOM     18  C   UNL     1      46.948   5.605  13.827  0.00  0.00    +0.000 A 
ATOM     19  C   UNL     1      46.621   6.441  12.788  0.00  0.00    +0.000 A 
ATOM     20  N   UNL     1      45.593   6.218  11.946  0.00  0.00    +0.000 NA
ENDBRANCH  14  15
ENDBRANCH   5  14
TORSDOF 3
ENDMDL
MODEL 2
REMARK VINA RESULT:    -7.202      2.880      6.420
REMARK INTER + INTRA:          -8.723
REMARK INTER:                  -8.397
REMARK INTRA:                  -0.326
REMARK UNBOUND:                -0.258
REMARK  Name = 
REMARK  3 active torsions:
REMARK  status: ('A' for Active; 'I' for Inactive)
REMARK    1  A    between atoms: C_2  and  C_4
REMARK    2  A    between atoms: N_8  and  C_9
REMARK    3  A    between atoms: C_9  and  C_10
REMARK                            x       y       z     vdW  Elec       q    Type
REMARK                         _______ _______ _______ _____ _____    ______ ____
ROOT
ATOM      1  C   UNL     1      45.576   6.699  12.529  0.00  0.00    +0.000 A 
ATOM      2  C   UNL     1      46.028   5.597  13.251  0.00  0.00    +0.000 A 
ATOM      3  C   UNL     1      45.770   4.318  12.757  0.00  0.00    +0.000 A 
ATOM      4  C   UNL     1      45.093   4.157  11.549  0.00  0.00    +0.000 A 
ATOM      5  N   UNL     1      44.953   2.862  11.058  0.00  0.00    +0.000 N 
ATOM      6  N   UNL     1      44.640   5.217  10.852  0.00  0.00    +0.000 NA
ATOM      7  C   UNL     1      44.864   6.458  11.363  0.00  0.00    +0.000 A 
ATOM      8  H   UNL     1      44.447   2.260  11.707  0.00  0.00    +0.000 HD
ENDROOT
BRANCH   1  10
ATOM      9  N   UNL     1      44.848   9.014  12.664  0.00  0.00    +0.000 N 
ATOM     10  C   UNL     1      45.819   8.093  12.953  0.00  0.00    +0.000 C 
ATOM     11  O   UNL     1      46.823   8.407  13.576  0.00  0.00    +0.000 OA
ATOM     12  H   UNL     1      44.971   9.935  13.066  0.00  0.00    +0.000 HD
ATOM     13  H   UNL     1      43.912   8.746  12.398  0.00  0.00    +0.000 HD
ENDBRANCH   1  10
BRANCH   5  14
ATOM     14  C   UNL     1      44.414   2.721   9.701  0.00  0.00    +0.000 C 
BRANCH  14  15
ATOM     15  C   UNL     1      45.521   2.467   8.679  0.00  0.00    +0.000 A 
ATOM     16  N   UNL     1      45.955   1.194   8.502  0.00  0.00    +0.000 NA
ATOM     17  C   UNL     1      46.923   1.010   7.584  0.00  0.00    +0.000 A 
ATOM     18  C   UNL     1      47.450   2.024   6.822  0.00  0.00    +0.000 A 
ATOM     19  C   UNL     1      46.930   3.274   7.056  0.00  0.00    +0.000 A 
ATOM     20  N   UNL     1      45.973   3.525   7.971  0.00  0.00    +0.000 NA
ENDBRANCH  14  15
ENDBRANCH   5  14
TORSDOF 3
ENDMDL
MODEL 3
REMARK VINA RESULT:    -7.186      2.899      6.506
REMARK INTER + INTRA:          -8.704
REMARK INTER:                  -8.377
REMARK INTRA:                  -0.327
REMARK UNBOUND:                -0.258
REMARK  Name = 
REMARK  3 active torsions:
REMARK  status: ('A' for Active; 'I' for Inactive)
REMARK    1  A    between atoms: C_2  and  C_4
REMARK    2  A    between atoms: N_8  and  C_9
REMARK    3  A    between atoms: C_9  and  C_10
REMARK                            x       y       z     vdW  Elec       q    Type
REMARK                         _______ _______ _______ _____ _____    ______ ____
ROOT
ATOM      1  C   UNL     1      45.540   6.733  12.515  0.00  0.00    +0.000 A 
ATOM      2  C   UNL     1      46.021   5.633  13.221  0.00  0.00    +0.000 A 
ATOM      3  C   UNL     1      45.768   4.353  12.727  0.00  0.00    +0.000 A 
ATOM      4  C   UNL     1      45.067   4.189  11.533  0.00  0.00    +0.000 A 
ATOM      5  N   UNL     1      44.933   2.894  11.039  0.00  0.00    +0.000 N 
ATOM      6  N   UNL     1      44.587   5.247  10.851  0.00  0.00    +0.000 NA
ATOM      7  C   UNL     1      44.806   6.488  11.363  0.00  0.00    +0.000 A 
ATOM      8  H   UNL     1      44.448   2.284  11.696  0.00  0.00    +0.000 HD
ENDROOT
BRANCH   1  10
ATOM      9  N   UNL     1      44.812   9.048  12.628  0.00  0.00    +0.000 N 
ATOM     10  C   UNL     1      45.775   8.127  12.940  0.00  0.00    +0.000 C 
ATOM     11  O   UNL     1      46.766   8.442  13.584  0.00  0.00    +0.000 OA
ATOM     12  H   UNL     1      44.928   9.970  13.030  0.00  0.00    +0.000 HD
ATOM     13  H   UNL     1      43.882   8.781  12.343  0.00  0.00    +0.000 HD
ENDBRANCH   1  10
BRANCH   5  14
ATOM     14  C   UNL     1      44.367   2.754   9.693  0.00  0.00    +0.000 C 
BRANCH  14  15
ATOM     15  C   UNL     1      45.456   2.534   8.643  0.00  0.00    +0.000 A 
ATOM     16  N   UNL     1      45.920   3.612   7.962  0.00  0.00    +0.000 NA
ATOM     17  C   UNL     1      46.887   3.378   7.054  0.00  0.00    +0.000 A 
ATOM     18  C   UNL     1      47.427   2.137   6.821  0.00  0.00    +0.000 A 
ATOM     19  C   UNL     1      46.910   1.114   7.577  0.00  0.00    +0.000 A 
ATOM     20  N   UNL     1      45.931   1.280   8.488  0.00  0.00    +0.000 NA
ENDBRANCH  14  15
ENDBRANCH   5  14
TORSDOF 3
ENDMDL
MODEL 4
REMARK VINA RESULT:    -7.112      1.547      2.197
REMARK INTER + INTRA:          -8.617
REMARK INTER:                  -8.467
REMARK INTRA:                  -0.150
REMARK UNBOUND:                -0.258
REMARK  Name = 
REMARK  3 active torsions:
REMARK  status: ('A' for Active; 'I' for Inactive)
REMARK    1  A    between atoms: C_2  and  C_4
REMARK    2  A    between atoms: N_8  and  C_9
REMARK    3  A    between atoms: C_9  and  C_10
REMARK                            x       y       z     vdW  Elec       q    Type
REMARK                         _______ _______ _______ _____ _____    ______ ____
ROOT
ATOM      1  C   UNL     1      46.590   2.553   7.345  0.00  0.00    +0.000 A 
ATOM      2  C   UNL     1      46.042   1.528   8.113  0.00  0.00    +0.000 A 
ATOM      3  C   UNL     1      45.195   1.860   9.171  0.00  0.00    +0.000 A 
ATOM      4  C   UNL     1      44.888   3.195   9.430  0.00  0.00    +0.000 A 
ATOM      5  N   UNL     1      43.959   3.459  10.434  0.00  0.00    +0.000 N 
ATOM      6  N   UNL     1      45.424   4.193   8.700  0.00  0.00    +0.000 NA
ATOM      7  C   UNL     1      46.279   3.859   7.696  0.00  0.00    +0.000 A 
ATOM      8  H   UNL     1      44.260   3.095  11.337  0.00  0.00    +0.000 HD
ENDROOT
BRANCH   1  10
ATOM      9  N   UNL     1      47.351   3.141   5.113  0.00  0.00    +0.000 N 
ATOM     10  C   UNL     1      47.476   2.305   6.191  0.00  0.00    +0.000 C 
ATOM     11  O   UNL     1      48.320   1.420   6.208  0.00  0.00    +0.000 OA
ATOM     12  H   UNL     1      48.044   3.037   4.383  0.00  0.00    +0.000 HD
ATOM     13  H   UNL     1      46.867   4.025   5.169  0.00  0.00    +0.000 HD
ENDBRANCH   1  10
BRANCH   5  14
ATOM     14  C   UNL     1      43.501   4.846  10.565  0.00  0.00    +0.000 C 
BRANCH  14  15
ATOM     15  C   UNL     1      44.441   5.669  11.446  0.00  0.00    +0.000 A 
ATOM     16  N   UNL     1      44.484   7.013  11.261  0.00  0.00    +0.000 NA
ATOM     17  C   UNL     1      45.316   7.703  12.064  0.00  0.00    +0.000 A 
ATOM     18  C   UNL     1      46.075   7.124  13.051  0.00  0.00    +0.000 A 
ATOM     19  C   UNL     1      45.945   5.762  13.177  0.00  0.00    +0.000 A 
ATOM     20  N   UNL     1      45.143   5.013  12.394  0.00  0.00    +0.000 NA
ENDBRANCH  14  15
ENDBRANCH   5  14
TORSDOF 3
ENDMDL
MODEL 5
REMARK VINA RESULT:    -7.059      2.807      6.208
REMARK INTER + INTRA:          -8.554
REMARK INTER:                  -8.321
REMARK INTRA:                  -0.233
REMARK UNBOUND:                -0.258
REMARK  Name = 
REMARK  3 active torsions:
REMARK  status: ('A' for Active; 'I' for Inactive)
REMARK    1  A    between atoms: C_2  and  C_4
REMARK    2  A    between atoms: N_8  and  C_9
REMARK    3  A    between atoms: C_9  and  C_10
REMARK                            x       y       z     vdW  Elec       q    Type
REMARK                         _______ _______ _______ _____ _____    ______ ____
ROOT
ATOM      1  C   UNL     1      46.559   4.900  13.830  0.00  0.00    +0.000 A 
ATOM      2  C   UNL     1      46.449   6.163  13.252  0.00  0.00    +0.000 A 
ATOM      3  C   UNL     1      45.916   6.271  11.967  0.00  0.00    +0.000 A 
ATOM      4  C   UNL     1      45.481   5.131  11.292  0.00  0.00    +0.000 A 
ATOM      5  N   UNL     1      44.867   5.311  10.055  0.00  0.00    +0.000 N 
ATOM      6  N   UNL     1      45.597   3.905  11.838  0.00  0.00    +0.000 NA
ATOM      7  C   UNL     1      46.153   3.809  13.075  0.00  0.00    +0.000 A 
ATOM      8  H   UNL     1      45.483   5.775   9.388  0.00  0.00    +0.000 HD
ENDROOT
BRANCH   1  10
ATOM      9  N   UNL     1      47.865   5.674  15.727  0.00  0.00    +0.000 N 
ATOM     10  C   UNL     1      47.086   4.683  15.192  0.00  0.00    +0.000 C 
ATOM     11  O   UNL     1      46.805   3.682  15.836  0.00  0.00    +0.000 OA
ATOM     12  H   UNL     1      48.117   5.567  16.702  0.00  0.00    +0.000 HD
ATOM     13  H   UNL     1      47.895   6.606  15.341  0.00  0.00    +0.000 HD
ENDBRANCH   1  10
BRANCH   5  14
ATOM     14  C   UNL     1      44.243   4.132   9.447  0.00  0.00    +0.000 C 
BRANCH  14  15
ATOM     15  C   UNL     1      45.226   3.368   8.561  0.00  0.00    +0.000 A 
ATOM     16  N   UNL     1      45.879   4.050   7.586  0.00  0.00    +0.000 NA
ATOM     17  C   UNL     1      46.745   3.343   6.835  0.00  0.00    +0.000 A 
ATOM     18  C   UNL     1      47.007   2.009   7.030  0.00  0.00    +0.000 A 
ATOM     19  C   UNL     1      46.315   1.412   8.055  0.00  0.00    +0.000 A 
ATOM     20  N   UNL     1      45.424   2.060   8.831  0.00  0.00    +0.000 NA
ENDBRANCH  14  15
ENDBRANCH   5  14
TORSDOF 3
ENDMDL
MODEL 6
REMARK VINA RESULT:    -6.195      3.706      5.650
REMARK INTER + INTRA:          -7.540
REMARK INTER:                  -7.291
REMARK INTRA:                  -0.248
REMARK UNBOUND:                -0.258
REMARK  Name = 
REMARK  3 active torsions:
REMARK  status: ('A' for Active; 'I' for Inactive)
REMARK    1  A    between atoms: C_2  and  C_4
REMARK    2  A    between atoms: N_8  and  C_9
REMARK    3  A    between atoms: C_9  and  C_10
REMARK                            x       y       z     vdW  Elec       q    Type
REMARK                         _______ _______ _______ _____ _____    ______ ____
ROOT
ATOM      1  C   UNL     1      45.432   4.613  11.482  0.00  0.00    +0.000 A 
ATOM      2  C   UNL     1      46.159   5.772  11.742  0.00  0.00    +0.000 A 
ATOM      3  C   UNL     1      46.709   5.950  13.012  0.00  0.00    +0.000 A 
ATOM      4  C   UNL     1      46.550   4.967  13.988  0.00  0.00    +0.000 A 
ATOM      5  N   UNL     1      47.206   5.153  15.202  0.00  0.00    +0.000 N 
ATOM      6  N   UNL     1      45.837   3.849  13.748  0.00  0.00    +0.000 NA
ATOM      7  C   UNL     1      45.273   3.705  12.519  0.00  0.00    +0.000 A 
ATOM      8  H   UNL     1      46.912   6.012  15.666  0.00  0.00    +0.000 HD
ENDROOT
BRANCH   1  10
ATOM      9  N   UNL     1      45.256   5.072   9.102  0.00  0.00    +0.000 N 
ATOM     10  C   UNL     1      44.831   4.320  10.165  0.00  0.00    +0.000 C 
ATOM     11  O   UNL     1      44.021   3.417  10.016  0.00  0.00    +0.000 OA
ATOM     12  H   UNL     1      44.928   4.781   8.190  0.00  0.00    +0.000 HD
ATOM     13  H   UNL     1      46.096   5.629   9.136  0.00  0.00    +0.000 HD
ENDBRANCH   1  10
BRANCH   5  14
ATOM     14  C   UNL     1      47.191   4.029  16.144  0.00  0.00    +0.000 C 
BRANCH  14  15
ATOM     15  C   UNL     1      48.598   3.682  16.630  0.00  0.00    +0.000 A 
ATOM     16  N   UNL     1      49.379   4.683  17.108  0.00  0.00    +0.000 NA
ATOM     17  C   UNL     1      50.607   4.334  17.537  0.00  0.00    +0.000 A 
ATOM     18  C   UNL     1      51.073   3.042  17.538  0.00  0.00    +0.000 A 
ATOM     19  C   UNL     1      50.201   2.096  17.057  0.00  0.00    +0.000 A 
ATOM     20  N   UNL     1      48.967   2.384  16.599  0.00  0.00    +0.000 NA
ENDBRANCH  14  15
ENDBRANCH   5  14
TORSDOF 3
ENDMDL
MODEL 7
REMARK VINA RESULT:    -5.342      6.474      8.916
REMARK INTER + INTRA:          -6.536
REMARK INTER:                  -6.251
REMARK INTRA:                  -0.285
REMARK UNBOUND:                -0.258
REMARK  Name = 
REMARK  3 active torsions:
REMARK  status: ('A' for Active; 'I' for Inactive)
REMARK    1  A    between atoms: C_2  and  C_4
REMARK    2  A    between atoms: N_8  and  C_9
REMARK    3  A    between atoms: C_9  and  C_10
REMARK                            x       y       z     vdW  Elec       q    Type
REMARK                         _______ _______ _______ _____ _____    ______ ____
ROOT
ATOM      1  C   UNL     1      52.244   1.757  17.746  0.00  0.00    +0.000 A 
ATOM      2  C   UNL     1      52.417   3.068  18.185  0.00  0.00    +0.000 A 
ATOM      3  C   UNL     1      51.388   3.987  17.980  0.00  0.00    +0.000 A 
ATOM      4  C   UNL     1      50.201   3.585  17.370  0.00  0.00    +0.000 A 
ATOM      5  N   UNL     1      49.173   4.520  17.283  0.00  0.00    +0.000 N 
ATOM      6  N   UNL     1      50.030   2.322  16.930  0.00  0.00    +0.000 NA
ATOM      7  C   UNL     1      51.056   1.446  17.100  0.00  0.00    +0.000 A 
ATOM      8  H   UNL     1      49.453   5.348  16.759  0.00  0.00    +0.000 HD
ENDROOT
BRANCH   1  10
ATOM      9  N   UNL     1      53.507  -0.129  16.878  0.00  0.00    +0.000 N 
ATOM     10  C   UNL     1      53.262   0.705  17.936  0.00  0.00    +0.000 C 
ATOM     11  O   UNL     1      53.895   0.606  18.978  0.00  0.00    +0.000 OA
ATOM     12  H   UNL     1      54.289  -0.764  16.980  0.00  0.00    +0.000 HD
ATOM     13  H   UNL     1      53.206   0.088  15.940  0.00  0.00    +0.000 HD
ENDBRANCH   1  10
BRANCH   5  14
ATOM     14  C   UNL     1      47.870   4.033  16.818  0.00  0.00    +0.000 C 
BRANCH  14  15
ATOM     15  C   UNL     1      47.493   4.636  15.465  0.00  0.00    +0.000 A 
ATOM     16  N   UNL     1      46.456   4.088  14.783  0.00  0.00    +0.000 NA
ATOM     17  C   UNL     1      46.147   4.655  13.601  0.00  0.00    +0.000 A 
ATOM     18  C   UNL     1      46.800   5.751  13.090  0.00  0.00    +0.000 A 
ATOM     19  C   UNL     1      47.820   6.248  13.865  0.00  0.00    +0.000 A 
ATOM     20  N   UNL     1      48.187   5.716  15.047  0.00  0.00    +0.000 NA
ENDBRANCH  14  15
ENDBRANCH   5  14
TORSDOF 3
ENDMDL
MODEL 8
REMARK VINA RESULT:    -5.241      3.999      5.742
REMARK INTER + INTRA:          -6.418
REMARK INTER:                  -6.147
REMARK INTRA:                  -0.271
REMARK UNBOUND:                -0.258
REMARK  Name = 
REMARK  3 active torsions:
REMARK  status: ('A' for Active; 'I' for Inactive)
REMARK    1  A    between atoms: C_2  and  C_4
REMARK    2  A    between atoms: N_8  and  C_9
REMARK    3  A    between atoms: C_9  and  C_10
REMARK                            x       y       z     vdW  Elec       q    Type
REMARK                         _______ _______ _______ _____ _____    ______ ____
ROOT
ATOM      1  C   UNL     1      44.580   4.680  12.465  0.00  0.00    +0.000 A 
ATOM      2  C   UNL     1      44.313   6.042  12.348  0.00  0.00    +0.000 A 
ATOM      3  C   UNL     1      45.259   6.955  12.814  0.00  0.00    +0.000 A 
ATOM      4  C   UNL     1      46.458   6.504  13.361  0.00  0.00    +0.000 A 
ATOM      5  N   UNL     1      47.405   7.461  13.716  0.00  0.00    +0.000 N 
ATOM      6  N   UNL     1      46.719   5.188  13.491  0.00  0.00    +0.000 NA
ATOM      7  C   UNL     1      45.773   4.307  13.069  0.00  0.00    +0.000 A 
ATOM      8  H   UNL     1      47.045   8.113  14.412  0.00  0.00    +0.000 HD
ENDROOT
BRANCH   1  10
ATOM      9  N   UNL     1      43.820   2.372  12.484  0.00  0.00    +0.000 N 
ATOM     10  C   UNL     1      43.656   3.635  11.981  0.00  0.00    +0.000 C 
ATOM     11  O   UNL     1      42.753   3.891  11.198  0.00  0.00    +0.000 OA
ATOM     12  H   UNL     1      43.107   1.697  12.238  0.00  0.00    +0.000 HD
ATOM     13  H   UNL     1      44.366   2.187  13.312  0.00  0.00    +0.000 HD
ENDBRANCH   1  10
BRANCH   5  14
ATOM     14  C   UNL     1      48.730   6.971  14.108  0.00  0.00    +0.000 C 
BRANCH  14  15
ATOM     15  C   UNL     1      48.847   6.808  15.623  0.00  0.00    +0.000 A 
ATOM     16  N   UNL     1      48.667   7.903  16.404  0.00  0.00    +0.000 NA
ATOM     17  C   UNL     1      48.766   7.716  17.734  0.00  0.00    +0.000 A 
ATOM     18  C   UNL     1      49.004   6.494  18.314  0.00  0.00    +0.000 A 
ATOM     19  C   UNL     1      49.148   5.442  17.442  0.00  0.00    +0.000 A 
ATOM     20  N   UNL     1      49.077   5.567  16.102  0.00  0.00    +0.000 NA
ENDBRANCH  14  15
ENDBRANCH   5  14
TORSDOF 3
ENDMDL
MODEL 9
REMARK VINA RESULT:    -5.182      3.563      5.161
REMARK INTER + INTRA:          -6.348
REMARK INTER:                  -6.103
REMARK INTRA:                  -0.245
REMARK UNBOUND:                -0.258
REMARK  Name = 
REMARK  3 active torsions:
REMARK  status: ('A' for Active; 'I' for Inactive)
REMARK    1  A    between atoms: C_2  and  C_4
REMARK    2  A    between atoms: N_8  and  C_9
REMARK    3  A    between atoms: C_9  and  C_10
REMARK                            x       y       z     vdW  Elec       q    Type
REMARK                         _______ _______ _______ _____ _____    ______ ____
ROOT
ATOM      1  C   UNL     1      44.804   3.999  11.617  0.00  0.00    +0.000 A 
ATOM      2  C   UNL     1      44.785   5.326  11.193  0.00  0.00    +0.000 A 
ATOM      3  C   UNL     1      45.535   6.268  11.897  0.00  0.00    +0.000 A 
ATOM      4  C   UNL     1      46.308   5.874  12.989  0.00  0.00    +0.000 A 
ATOM      5  N   UNL     1      47.113   6.839  13.589  0.00  0.00    +0.000 N 
ATOM      6  N   UNL     1      46.321   4.595  13.414  0.00  0.00    +0.000 NA
ATOM      7  C   UNL     1      45.555   3.694  12.744  0.00  0.00    +0.000 A 
ATOM      8  H   UNL     1      46.568   7.624  13.942  0.00  0.00    +0.000 HD
ENDROOT
BRANCH   1  10
ATOM      9  N   UNL     1      44.674   2.337   9.850  0.00  0.00    +0.000 N 
ATOM     10  C   UNL     1      44.065   2.924  10.926  0.00  0.00    +0.000 C 
ATOM     11  O   UNL     1      42.973   2.540  11.322  0.00  0.00    +0.000 OA
ATOM     12  H   UNL     1      44.211   1.524   9.463  0.00  0.00    +0.000 HD
ATOM     13  H   UNL     1      45.660   2.440   9.665  0.00  0.00    +0.000 HD
ENDBRANCH   1  10
BRANCH   5  14
ATOM     14  C   UNL     1      48.061   6.372  14.606  0.00  0.00    +0.000 C 
BRANCH  14  15
ATOM     15  C   UNL     1      49.405   7.092  14.497  0.00  0.00    +0.000 A 
ATOM     16  N   UNL     1      50.317   6.906  15.484  0.00  0.00    +0.000 NA
ATOM     17  C   UNL     1      51.492   7.548  15.345  0.00  0.00    +0.000 A 
ATOM     18  C   UNL     1      51.806   8.334  14.263  0.00  0.00    +0.000 A 
ATOM     19  C   UNL     1      50.827   8.442  13.305  0.00  0.00    +0.000 A 
ATOM     20  N   UNL     1      49.626   7.838  13.394  0.00  0.00    +0.000 NA
ENDBRANCH  14  15
ENDBRANCH   5  14
TORSDOF 3
ENDMDL
