MODEL 1
REMARK VINA RESULT:    -8.788      0.000      0.000
REMARK INTER + INTRA:         -11.952
REMARK INTER:                 -11.356
REMARK INTRA:                  -0.596
REMARK UNBOUND:                -0.596
REMARK  Name = 
REMARK  5 active torsions:
REMARK  status: ('A' for Active; 'I' for Inactive)
REMARK    1  A    between atoms: C_2  and  C_4
REMARK    2  A    between atoms: C_7  and  C_8
REMARK    3  A    between atoms: C_8  and  N_9
REMARK    4  A    between atoms: N_9  and  C_10
REMARK    5  A    between atoms: C_14  and  C_15
REMARK                            x       y       z     vdW  Elec       q    Type
REMARK                         _______ _______ _______ _____ _____    ______ ____
ROOT
ATOM      1  N   UNL     1      44.062   4.544  11.626  0.00  0.00    +0.000 N 
ATOM      2  H   UNL     1      43.906   3.571  11.888  0.00  0.00    +0.000 HD
ENDROOT
BRANCH   1   3
ATOM      3  C   UNL     1      45.257   5.027  12.178  0.00  0.00    +0.000 A 
ATOM      4  C   UNL     1      45.886   6.200  11.752  0.00  0.00    +0.000 A 
ATOM      5  C   UNL     1      47.026   6.681  12.398  0.00  0.00    +0.000 A 
ATOM      6  C   UNL     1      47.528   6.021  13.518  0.00  0.00    +0.000 A 
ATOM      7  C   UNL     1      46.890   4.879  14.028  0.00  0.00    +0.000 A 
ATOM      8  C   UNL     1      45.764   4.397  13.328  0.00  0.00    +0.000 A 
BRANCH   7   9
ATOM      9  C   UNL     1      47.339   4.227  15.274  0.00  0.00    +0.000 A 
ATOM     10  C   UNL     1      47.189   4.814  16.533  0.00  0.00    +0.000 A 
ATOM     11  N   UNL     1      47.559   4.215  17.694  0.00  0.00    +0.000 NA
ATOM     12  C   UNL     1      48.088   2.983  17.555  0.00  0.00    +0.000 A 
ATOM     13  C   UNL     1      48.244   2.382  16.319  0.00  0.00    +0.000 A 
ATOM     14  N   UNL     1      47.874   2.983  15.162  0.00  0.00    +0.000 NA
ENDBRANCH   7   9
ENDBRANCH   1   3
BRANCH   1  15
ATOM     15  C   UNL     1      43.797   4.753  10.201  0.00  0.00    +0.000 C 
BRANCH  15  19
ATOM     16  C   UNL     1      46.421   2.449   7.735  0.00  0.00    +0.000 A 
ATOM     17  C   UNL     1      45.646   1.792   8.690  0.00  0.00    +0.000 A 
ATOM     18  C   UNL     1      44.799   2.540   9.508  0.00  0.00    +0.000 A 
ATOM     19  C   UNL     1      44.746   3.926   9.351  0.00  0.00    +0.000 A 
ATOM     20  N   UNL     1      45.512   4.581   8.442  0.00  0.00    +0.000 NA
ATOM     21  C   UNL     1      46.337   3.832   7.665  0.00  0.00    +0.000 A 
BRANCH  16  23
ATOM     22  N   UNL     1      48.407   2.446   6.333  0.00  0.00    +0.000 N 
ATOM     23  C   UNL     1      47.335   1.745   6.812  0.00  0.00    +0.000 C 
ATOM     24  O   UNL     1      47.168   0.568   6.521  0.00  0.00    +0.000 OA
ATOM     25  H   UNL     1      49.082   1.918   5.794  0.00  0.00    +0.000 HD
ATOM     26  H   UNL     1      48.716   3.316   6.741  0.00  0.00    +0.000 HD
ENDBRANCH  16  23
ENDBRANCH  15  19
ENDBRANCH   1  15
TORSDOF 5
ENDMDL
MODEL 2
REMARK VINA RESULT:    -8.426      2.210      3.338
REMARK INTER + INTRA:         -11.485
REMARK INTER:                 -10.777
REMARK INTRA:                  -0.708
REMARK UNBOUND:                -0.596
REMARK  Name = 
REMARK  5 active torsions:
REMARK  status: ('A' for Active; 'I' for Inactive)
REMARK    1  A    between atoms: C_2  and  C_4
REMARK    2  A    between atoms: C_7  and  C_8
REMARK    3  A    between atoms: C_8  and  N_9
REMARK    4  A    between atoms: N_9  and  C_10
REMARK    5  A    between atoms: C_14  and  C_15
REMARK                            x       y       z     vdW  Elec       q    Type
REMARK                         _______ _______ _______ _____ _____    ______ ____
ROOT
ATOM      1  N   UNL     1      44.449   5.915  10.693  0.00  0.00    +0.000 N 
ATOM      2  H   UNL     1      43.792   6.673  10.881  0.00  0.00    +0.000 HD
ENDROOT
BRANCH   1   3
ATOM      3  C   UNL     1      45.294   5.699  11.790  0.00  0.00    +0.000 A 
ATOM      4  C   UNL     1      45.120   4.660  12.708  0.00  0.00    +0.000 A 
ATOM      5  C   UNL     1      46.044   4.439  13.730  0.00  0.00    +0.000 A 
ATOM      6  C   UNL     1      47.191   5.226  13.820  0.00  0.00    +0.000 A 
ATOM      7  C   UNL     1      47.449   6.236  12.880  0.00  0.00    +0.000 A 
ATOM      8  C   UNL     1      46.474   6.458  11.883  0.00  0.00    +0.000 A 
BRANCH   7   9
ATOM      9  C   UNL     1      48.707   7.007  12.891  0.00  0.00    +0.000 A 
ATOM     10  C   UNL     1      49.156   7.742  11.790  0.00  0.00    +0.000 A 
ATOM     11  N   UNL     1      50.289   8.490  11.793  0.00  0.00    +0.000 NA
ATOM     12  C   UNL     1      50.969   8.486  12.956  0.00  0.00    +0.000 A 
ATOM     13  C   UNL     1      50.542   7.768  14.059  0.00  0.00    +0.000 A 
ATOM     14  N   UNL     1      49.412   7.023  14.053  0.00  0.00    +0.000 NA
ENDBRANCH   7   9
ENDBRANCH   1   3
BRANCH   1  15
ATOM     15  C   UNL     1      43.770   4.772  10.079  0.00  0.00    +0.000 C 
BRANCH  15  19
ATOM     16  C   UNL     1      46.461   2.467   7.688  0.00  0.00    +0.000 A 
ATOM     17  C   UNL     1      45.698   1.818   8.657  0.00  0.00    +0.000 A 
ATOM     18  C   UNL     1      44.828   2.566   9.450  0.00  0.00    +0.000 A 
ATOM     19  C   UNL     1      44.742   3.947   9.256  0.00  0.00    +0.000 A 
ATOM     20  N   UNL     1      45.497   4.595   8.332  0.00  0.00    +0.000 NA
ATOM     21  C   UNL     1      46.344   3.845   7.580  0.00  0.00    +0.000 A 
BRANCH  16  23
ATOM     22  N   UNL     1      48.523   2.433   6.400  0.00  0.00    +0.000 N 
ATOM     23  C   UNL     1      47.396   1.761   6.788  0.00  0.00    +0.000 C 
ATOM     24  O   UNL     1      47.197   0.607   6.437  0.00  0.00    +0.000 OA
ATOM     25  H   UNL     1      49.206   1.897   5.879  0.00  0.00    +0.000 HD
ATOM     26  H   UNL     1      48.845   3.271   6.863  0.00  0.00    +0.000 HD
ENDBRANCH  16  23
ENDBRANCH  15  19
ENDBRANCH   1  15
TORSDOF 5
ENDMDL
MODEL 3
REMARK VINA RESULT:    -7.912      2.487      4.698
REMARK INTER + INTRA:         -10.820
REMARK INTER:                 -10.091
REMARK INTRA:                  -0.729
REMARK UNBOUND:                -0.596
REMARK  Name = 
REMARK  5 active torsions:
REMARK  status: ('A' for Active; 'I' for Inactive)
REMARK    1  A    between atoms: C_2  and  C_4
REMARK    2  A    between atoms: C_7  and  C_8
REMARK    3  A    between atoms: C_8  and  N_9
REMARK    4  A    between atoms: N_9  and  C_10
REMARK    5  A    between atoms: C_14  and  C_15
REMARK                            x       y       z     vdW  Elec       q    Type
REMARK                         _______ _______ _______ _____ _____    ______ ____
ROOT
ATOM      1  N   UNL     1      44.446   3.645  11.953  0.00  0.00    +0.000 N 
ATOM      2  H   UNL     1      44.955   2.763  12.024  0.00  0.00    +0.000 HD
ENDROOT
BRANCH   1   3
ATOM      3  C   UNL     1      45.221   4.712  12.428  0.00  0.00    +0.000 A 
ATOM      4  C   UNL     1      46.421   4.546  13.124  0.00  0.00    +0.000 A 
ATOM      5  C   UNL     1      47.197   5.645  13.494  0.00  0.00    +0.000 A 
ATOM      6  C   UNL     1      46.809   6.933  13.128  0.00  0.00    +0.000 A 
ATOM      7  C   UNL     1      45.649   7.147  12.366  0.00  0.00    +0.000 A 
ATOM      8  C   UNL     1      44.867   6.017  12.043  0.00  0.00    +0.000 A 
BRANCH   7   9
ATOM      9  C   UNL     1      45.276   8.488  11.875  0.00  0.00    +0.000 A 
ATOM     10  C   UNL     1      44.118   8.729  11.132  0.00  0.00    +0.000 A 
ATOM     11  N   UNL     1      43.737   9.960  10.705  0.00  0.00    +0.000 NA
ATOM     12  C   UNL     1      44.564  10.964  11.057  0.00  0.00    +0.000 A 
ATOM     13  C   UNL     1      45.715  10.749  11.793  0.00  0.00    +0.000 A 
ATOM     14  N   UNL     1      46.093   9.520  12.218  0.00  0.00    +0.000 NA
ENDBRANCH   7   9
ENDBRANCH   1   3
BRANCH   1  15
ATOM     15  C   UNL     1      43.785   3.766  10.652  0.00  0.00    +0.000 C 
BRANCH  15  19
ATOM     16  C   UNL     1      46.540   2.739   7.547  0.00  0.00    +0.000 A 
ATOM     17  C   UNL     1      46.185   4.077   7.716  0.00  0.00    +0.000 A 
ATOM     18  C   UNL     1      45.275   4.416   8.718  0.00  0.00    +0.000 A 
ATOM     19  C   UNL     1      44.742   3.411   9.528  0.00  0.00    +0.000 A 
ATOM     20  N   UNL     1      45.062   2.102   9.359  0.00  0.00    +0.000 NA
ATOM     21  C   UNL     1      45.941   1.796   8.370  0.00  0.00    +0.000 A 
BRANCH  16  23
ATOM     22  N   UNL     1      47.495   2.923   5.320  0.00  0.00    +0.000 N 
ATOM     23  C   UNL     1      47.506   2.281   6.528  0.00  0.00    +0.000 C 
ATOM     24  O   UNL     1      48.314   1.395   6.765  0.00  0.00    +0.000 OA
ATOM     25  H   UNL     1      48.236   2.675   4.675  0.00  0.00    +0.000 HD
ATOM     26  H   UNL     1      47.031   3.808   5.177  0.00  0.00    +0.000 HD
ENDBRANCH  16  23
ENDBRANCH  15  19
ENDBRANCH   1  15
TORSDOF 5
ENDMDL
MODEL 4
REMARK VINA RESULT:    -7.734      2.020      2.717
REMARK INTER + INTRA:         -10.590
REMARK INTER:                 -10.051
REMARK INTRA:                  -0.539
REMARK UNBOUND:                -0.596
REMARK  Name = 
REMARK  5 active torsions:
REMARK  status: ('A' for Active; 'I' for Inactive)
REMARK    1  A    between atoms: C_2  and  C_4
REMARK    2  A    between atoms: C_7  and  C_8
REMARK    3  A    between atoms: C_8  and  N_9
REMARK    4  A    between atoms: N_9  and  C_10
REMARK    5  A    between atoms: C_14  and  C_15
REMARK                            x       y       z     vdW  Elec       q    Type
REMARK                         _______ _______ _______ _____ _____    ______ ____
ROOT
ATOM      1  N   UNL     1      44.422   5.050  11.537  0.00  0.00    +0.000 N 
ATOM      2  H   UNL     1      45.016   4.271  11.822  0.00  0.00    +0.000 HD
ENDROOT
BRANCH   1   3
ATOM      3  C   UNL     1      45.046   6.279  11.796  0.00  0.00    +0.000 A 
ATOM      4  C   UNL     1      44.499   7.514  11.440  0.00  0.00    +0.000 A 
ATOM      5  C   UNL     1      45.122   8.709  11.803  0.00  0.00    +0.000 A 
ATOM      6  C   UNL     1      46.282   8.689  12.576  0.00  0.00    +0.000 A 
ATOM      7  C   UNL     1      46.831   7.475  13.019  0.00  0.00    +0.000 A 
ATOM      8  C   UNL     1      46.198   6.285  12.601  0.00  0.00    +0.000 A 
BRANCH   7   9
ATOM      9  C   UNL     1      47.994   7.433  13.927  0.00  0.00    +0.000 A 
ATOM     10  C   UNL     1      48.309   6.316  14.705  0.00  0.00    +0.000 A 
ATOM     11  N   UNL     1      49.395   6.242  15.516  0.00  0.00    +0.000 NA
ATOM     12  C   UNL     1      50.177   7.340  15.520  0.00  0.00    +0.000 A 
ATOM     13  C   UNL     1      49.886   8.456  14.756  0.00  0.00    +0.000 A 
ATOM     14  N   UNL     1      48.801   8.527  13.949  0.00  0.00    +0.000 NA
ENDBRANCH   7   9
ENDBRANCH   1   3
BRANCH   1  15
ATOM     15  C   UNL     1      43.840   4.809  10.216  0.00  0.00    +0.000 C 
BRANCH  15  19
ATOM     16  C   UNL     1      46.442   2.508   7.724  0.00  0.00    +0.000 A 
ATOM     17  C   UNL     1      45.659   1.848   8.670  0.00  0.00    +0.000 A 
ATOM     18  C   UNL     1      44.819   2.594   9.496  0.00  0.00    +0.000 A 
ATOM     19  C   UNL     1      44.780   3.983   9.356  0.00  0.00    +0.000 A 
ATOM     20  N   UNL     1      45.554   4.641   8.455  0.00  0.00    +0.000 NA
ATOM     21  C   UNL     1      46.373   3.892   7.670  0.00  0.00    +0.000 A 
BRANCH  16  23
ATOM     22  N   UNL     1      48.398   2.517   6.281  0.00  0.00    +0.000 N 
ATOM     23  C   UNL     1      47.349   1.805   6.793  0.00  0.00    +0.000 C 
ATOM     24  O   UNL     1      47.197   0.622   6.523  0.00  0.00    +0.000 OA
ATOM     25  H   UNL     1      49.072   1.993   5.737  0.00  0.00    +0.000 HD
ATOM     26  H   UNL     1      48.701   3.399   6.669  0.00  0.00    +0.000 HD
ENDBRANCH  16  23
ENDBRANCH  15  19
ENDBRANCH   1  15
TORSDOF 5
ENDMDL
MODEL 5
REMARK VINA RESULT:    -7.293      3.280      8.092
REMARK INTER + INTRA:         -10.021
REMARK INTER:                  -9.506
REMARK INTRA:                  -0.515
REMARK UNBOUND:                -0.596
REMARK  Name = 
REMARK  5 active torsions:
REMARK  status: ('A' for Active; 'I' for Inactive)
REMARK    1  A    between atoms: C_2  and  C_4
REMARK    2  A    between atoms: C_7  and  C_8
REMARK    3  A    between atoms: C_8  and  N_9
REMARK    4  A    between atoms: N_9  and  C_10
REMARK    5  A    between atoms: C_14  and  C_15
REMARK                            x       y       z     vdW  Elec       q    Type
REMARK                         _______ _______ _______ _____ _____    ______ ____
ROOT
ATOM      1  N   UNL     1      45.882   6.068  13.659  0.00  0.00    +0.000 N 
ATOM      2  H   UNL     1      45.809   7.083  13.592  0.00  0.00    +0.000 HD
ENDROOT
BRANCH   1   3
ATOM      3  C   UNL     1      44.985   5.441  12.783  0.00  0.00    +0.000 A 
ATOM      4  C   UNL     1      43.596   5.548  12.892  0.00  0.00    +0.000 A 
ATOM      5  C   UNL     1      42.752   4.976  11.939  0.00  0.00    +0.000 A 
ATOM      6  C   UNL     1      43.288   4.328  10.827  0.00  0.00    +0.000 A 
ATOM      7  C   UNL     1      44.677   4.257  10.634  0.00  0.00    +0.000 A 
ATOM      8  C   UNL     1      45.501   4.811  11.638  0.00  0.00    +0.000 A 
BRANCH   7   9
ATOM      9  C   UNL     1      45.265   3.673   9.413  0.00  0.00    +0.000 A 
ATOM     10  C   UNL     1      45.738   4.450   8.353  0.00  0.00    +0.000 A 
ATOM     11  N   UNL     1      46.317   3.935   7.238  0.00  0.00    +0.000 NA
ATOM     12  C   UNL     1      46.418   2.591   7.219  0.00  0.00    +0.000 A 
ATOM     13  C   UNL     1      45.958   1.802   8.259  0.00  0.00    +0.000 A 
ATOM     14  N   UNL     1      45.380   2.319   9.369  0.00  0.00    +0.000 NA
ENDBRANCH   7   9
ENDBRANCH   1   3
BRANCH   1  15
ATOM     15  C   UNL     1      47.283   5.643  13.671  0.00  0.00    +0.000 C 
BRANCH  15  19
ATOM     16  C   UNL     1      48.569   4.488  17.582  0.00  0.00    +0.000 A 
ATOM     17  C   UNL     1      47.562   3.750  16.959  0.00  0.00    +0.000 A 
ATOM     18  C   UNL     1      47.128   4.131  15.690  0.00  0.00    +0.000 A 
ATOM     19  C   UNL     1      47.711   5.239  15.071  0.00  0.00    +0.000 A 
ATOM     20  N   UNL     1      48.676   5.980  15.675  0.00  0.00    +0.000 NA
ATOM     21  C   UNL     1      49.073   5.596  16.916  0.00  0.00    +0.000 A 
BRANCH  16  23
ATOM     22  N   UNL     1      48.370   3.308  19.698  0.00  0.00    +0.000 N 
ATOM     23  C   UNL     1      49.108   4.155  18.916  0.00  0.00    +0.000 C 
ATOM     24  O   UNL     1      50.190   4.581  19.294  0.00  0.00    +0.000 OA
ATOM     25  H   UNL     1      48.805   3.001  20.559  0.00  0.00    +0.000 HD
ATOM     26  H   UNL     1      47.617   2.745  19.331  0.00  0.00    +0.000 HD
ENDBRANCH  16  23
ENDBRANCH  15  19
ENDBRANCH   1  15
TORSDOF 5
ENDMDL
MODEL 6
REMARK VINA RESULT:    -6.709      4.061      7.052
REMARK INTER + INTRA:          -9.266
REMARK INTER:                  -8.559
REMARK INTRA:                  -0.707
REMARK UNBOUND:                -0.596
REMARK  Name = 
REMARK  5 active torsions:
REMARK  status: ('A' for Active; 'I' for Inactive)
REMARK    1  A    between atoms: C_2  and  C_4
REMARK    2  A    between atoms: C_7  and  C_8
REMARK    3  A    between atoms: C_8  and  N_9
REMARK    4  A    between atoms: N_9  and  C_10
REMARK    5  A    between atoms: C_14  and  C_15
REMARK                            x       y       z     vdW  Elec       q    Type
REMARK                         _______ _______ _______ _____ _____    ______ ____
ROOT
ATOM      1  N   UNL     1      44.738   7.571  11.648  0.00  0.00    +0.000 N 
ATOM      2  H   UNL     1      45.132   7.981  10.802  0.00  0.00    +0.000 HD
ENDROOT
BRANCH   1   3
ATOM      3  C   UNL     1      44.403   6.224  11.445  0.00  0.00    +0.000 A 
ATOM      4  C   UNL     1      43.300   5.604  12.038  0.00  0.00    +0.000 A 
ATOM      5  C   UNL     1      42.963   4.286  11.729  0.00  0.00    +0.000 A 
ATOM      6  C   UNL     1      43.697   3.579  10.778  0.00  0.00    +0.000 A 
ATOM      7  C   UNL     1      44.770   4.181  10.101  0.00  0.00    +0.000 A 
ATOM      8  C   UNL     1      45.108   5.502  10.466  0.00  0.00    +0.000 A 
BRANCH   7   9
ATOM      9  C   UNL     1      45.491   3.491   9.014  0.00  0.00    +0.000 A 
ATOM     10  C   UNL     1      45.626   2.101   8.956  0.00  0.00    +0.000 A 
ATOM     11  N   UNL     1      46.251   1.444   7.946  0.00  0.00    +0.000 NA
ATOM     12  C   UNL     1      46.741   2.236   6.971  0.00  0.00    +0.000 A 
ATOM     13  C   UNL     1      46.617   3.613   7.007  0.00  0.00    +0.000 A 
ATOM     14  N   UNL     1      45.993   4.266   8.016  0.00  0.00    +0.000 NA
ENDBRANCH   7   9
ENDBRANCH   1   3
BRANCH   1  15
ATOM     15  C   UNL     1      45.526   7.940  12.826  0.00  0.00    +0.000 C 
BRANCH  15  19
ATOM     16  C   UNL     1      49.627   8.427  11.719  0.00  0.00    +0.000 A 
ATOM     17  C   UNL     1      49.186   7.170  12.130  0.00  0.00    +0.000 A 
ATOM     18  C   UNL     1      47.852   7.008  12.507  0.00  0.00    +0.000 A 
ATOM     19  C   UNL     1      46.991   8.106  12.462  0.00  0.00    +0.000 A 
ATOM     20  N   UNL     1      47.412   9.341  12.086  0.00  0.00    +0.000 NA
ATOM     21  C   UNL     1      48.718   9.475  11.735  0.00  0.00    +0.000 A 
BRANCH  16  23
ATOM     22  N   UNL     1      51.959   7.754  11.587  0.00  0.00    +0.000 N 
ATOM     23  C   UNL     1      51.013   8.695  11.285  0.00  0.00    +0.000 C 
ATOM     24  O   UNL     1      51.301   9.696  10.644  0.00  0.00    +0.000 OA
ATOM     25  H   UNL     1      52.877   7.898  11.186  0.00  0.00    +0.000 HD
ATOM     26  H   UNL     1      51.722   6.818  11.881  0.00  0.00    +0.000 HD
ENDBRANCH  16  23
ENDBRANCH  15  19
ENDBRANCH   1  15
TORSDOF 5
ENDMDL
MODEL 7
REMARK VINA RESULT:    -6.638      3.855      7.844
REMARK INTER + INTRA:          -9.175
REMARK INTER:                  -8.584
REMARK INTRA:                  -0.590
REMARK UNBOUND:                -0.596
REMARK  Name = 
REMARK  5 active torsions:
REMARK  status: ('A' for Active; 'I' for Inactive)
REMARK    1  A    between atoms: C_2  and  C_4
REMARK    2  A    between atoms: C_7  and  C_8
REMARK    3  A    between atoms: C_8  and  N_9
REMARK    4  A    between atoms: N_9  and  C_10
REMARK    5  A    between atoms: C_14  and  C_15
REMARK                            x       y       z     vdW  Elec       q    Type
REMARK                         _______ _______ _______ _____ _____    ______ ____
ROOT
ATOM      1  N   UNL     1      48.404   6.372  15.864  0.00  0.00    +0.000 N 
ATOM      2  H   UNL     1      49.408   6.504  15.987  0.00  0.00    +0.000 HD
ENDROOT
BRANCH   1   3
ATOM      3  C   UNL     1      48.038   6.527  14.520  0.00  0.00    +0.000 A 
ATOM      4  C   UNL     1      48.800   7.237  13.588  0.00  0.00    +0.000 A 
ATOM      5  C   UNL     1      48.433   7.283  12.243  0.00  0.00    +0.000 A 
ATOM      6  C   UNL     1      47.320   6.574  11.795  0.00  0.00    +0.000 A 
ATOM      7  C   UNL     1      46.562   5.788  12.678  0.00  0.00    +0.000 A 
ATOM      8  C   UNL     1      46.938   5.795  14.038  0.00  0.00    +0.000 A 
BRANCH   7   9
ATOM      9  C   UNL     1      45.447   4.944  12.208  0.00  0.00    +0.000 A 
ATOM     10  C   UNL     1      45.061   3.767  12.855  0.00  0.00    +0.000 A 
ATOM     11  N   UNL     1      44.013   2.998  12.463  0.00  0.00    +0.000 NA
ATOM     12  C   UNL     1      43.345   3.454  11.384  0.00  0.00    +0.000 A 
ATOM     13  C   UNL     1      43.709   4.618  10.730  0.00  0.00    +0.000 A 
ATOM     14  N   UNL     1      44.755   5.383  11.123  0.00  0.00    +0.000 NA
ENDBRANCH   7   9
ENDBRANCH   1   3
BRANCH   1  15
ATOM     15  C   UNL     1      47.936   5.195  16.600  0.00  0.00    +0.000 C 
BRANCH  15  19
ATOM     16  C   UNL     1      51.129   2.488  17.470  0.00  0.00    +0.000 A 
ATOM     17  C   UNL     1      51.340   3.856  17.642  0.00  0.00    +0.000 A 
ATOM     18  C   UNL     1      50.307   4.745  17.346  0.00  0.00    +0.000 A 
ATOM     19  C   UNL     1      49.087   4.247  16.885  0.00  0.00    +0.000 A 
ATOM     20  N   UNL     1      48.875   2.920  16.691  0.00  0.00    +0.000 NA
ATOM     21  C   UNL     1      49.900   2.075  16.976  0.00  0.00    +0.000 A 
BRANCH  16  23
ATOM     22  N   UNL     1      51.714   0.213  18.094  0.00  0.00    +0.000 N 
ATOM     23  C   UNL     1      52.153   1.467  17.771  0.00  0.00    +0.000 C 
ATOM     24  O   UNL     1      53.348   1.718  17.694  0.00  0.00    +0.000 OA
ATOM     25  H   UNL     1      52.426  -0.501  18.187  0.00  0.00    +0.000 HD
ATOM     26  H   UNL     1      50.767  -0.095  17.921  0.00  0.00    +0.000 HD
ENDBRANCH  16  23
ENDBRANCH  15  19
ENDBRANCH   1  15
TORSDOF 5
ENDMDL
MODEL 8
REMARK VINA RESULT:    -6.631      3.349      8.011
REMARK INTER + INTRA:          -9.165
REMARK INTER:                  -8.676
REMARK INTRA:                  -0.488
REMARK UNBOUND:                -0.596
REMARK  Name = 
REMARK  5 active torsions:
REMARK  status: ('A' for Active; 'I' for Inactive)
REMARK    1  A    between atoms: C_2  and  C_4
REMARK    2  A    between atoms: C_7  and  C_8
REMARK    3  A    between atoms: C_8  and  N_9
REMARK    4  A    between atoms: N_9  and  C_10
REMARK    5  A    between atoms: C_14  and  C_15
REMARK                            x       y       z     vdW  Elec       q    Type
REMARK                         _______ _______ _______ _____ _____    ______ ____
ROOT
ATOM      1  N   UNL     1      46.793   4.224  15.157  0.00  0.00    +0.000 N 
ATOM      2  H   UNL     1      45.944   3.742  15.455  0.00  0.00    +0.000 HD
ENDROOT
BRANCH   1   3
ATOM      3  C   UNL     1      46.554   5.004  14.017  0.00  0.00    +0.000 A 
ATOM      4  C   UNL     1      46.962   6.335  13.890  0.00  0.00    +0.000 A 
ATOM      5  C   UNL     1      46.776   7.034  12.698  0.00  0.00    +0.000 A 
ATOM      6  C   UNL     1      46.223   6.396  11.589  0.00  0.00    +0.000 A 
ATOM      7  C   UNL     1      45.863   5.040  11.643  0.00  0.00    +0.000 A 
ATOM      8  C   UNL     1      46.028   4.373  12.876  0.00  0.00    +0.000 A 
BRANCH   7   9
ATOM      9  C   UNL     1      45.379   4.315  10.452  0.00  0.00    +0.000 A 
ATOM     10  C   UNL     1      45.464   4.837   9.159  0.00  0.00    +0.000 A 
ATOM     11  N   UNL     1      45.061   4.171   8.047  0.00  0.00    +0.000 NA
ATOM     12  C   UNL     1      44.565   2.938   8.271  0.00  0.00    +0.000 A 
ATOM     13  C   UNL     1      44.473   2.400   9.543  0.00  0.00    +0.000 A 
ATOM     14  N   UNL     1      44.876   3.067  10.650  0.00  0.00    +0.000 NA
ENDBRANCH   7   9
ENDBRANCH   1   3
BRANCH   1  15
ATOM     15  C   UNL     1      47.483   4.825  16.301  0.00  0.00    +0.000 C 
BRANCH  15  19
ATOM     16  C   UNL     1      50.879   2.475  17.406  0.00  0.00    +0.000 A 
ATOM     17  C   UNL     1      49.734   1.827  16.947  0.00  0.00    +0.000 A 
ATOM     18  C   UNL     1      48.617   2.587  16.599  0.00  0.00    +0.000 A 
ATOM     19  C   UNL     1      48.672   3.977  16.717  0.00  0.00    +0.000 A 
ATOM     20  N   UNL     1      49.773   4.620  17.184  0.00  0.00    +0.000 NA
ATOM     21  C   UNL     1      50.843   3.856  17.528  0.00  0.00    +0.000 A 
BRANCH  16  23
ATOM     22  N   UNL     1      52.016   0.420  18.033  0.00  0.00    +0.000 N 
ATOM     23  C   UNL     1      52.116   1.760  17.783  0.00  0.00    +0.000 C 
ATOM     24  O   UNL     1      53.197   2.332  17.827  0.00  0.00    +0.000 OA
ATOM     25  H   UNL     1      52.887  -0.075  18.178  0.00  0.00    +0.000 HD
ATOM     26  H   UNL     1      51.211  -0.127  17.763  0.00  0.00    +0.000 HD
ENDBRANCH  16  23
ENDBRANCH  15  19
ENDBRANCH   1  15
TORSDOF 5
ENDMDL
MODEL 9
REMARK VINA RESULT:    -6.123      4.369      7.926
REMARK INTER + INTRA:          -8.508
REMARK INTER:                  -7.938
REMARK INTRA:                  -0.570
REMARK UNBOUND:                -0.596
REMARK  Name = 
REMARK  5 active torsions:
REMARK  status: ('A' for Active; 'I' for Inactive)
REMARK    1  A    between atoms: C_2  and  C_4
REMARK    2  A    between atoms: C_7  and  C_8
REMARK    3  A    between atoms: C_8  and  N_9
REMARK    4  A    between atoms: N_9  and  C_10
REMARK    5  A    between atoms: C_14  and  C_15
REMARK                            x       y       z     vdW  Elec       q    Type
REMARK                         _______ _______ _______ _____ _____    ______ ____
ROOT
ATOM      1  N   UNL     1      46.756   4.112  15.194  0.00  0.00    +0.000 N 
ATOM      2  H   UNL     1      45.869   3.785  15.578  0.00  0.00    +0.000 HD
ENDROOT
BRANCH   1   3
ATOM      3  C   UNL     1      46.568   4.714  13.941  0.00  0.00    +0.000 A 
ATOM      4  C   UNL     1      45.519   4.390  13.077  0.00  0.00    +0.000 A 
ATOM      5  C   UNL     1      45.329   5.086  11.882  0.00  0.00    +0.000 A 
ATOM      6  C   UNL     1      46.159   6.157  11.555  0.00  0.00    +0.000 A 
ATOM      7  C   UNL     1      47.182   6.568  12.424  0.00  0.00    +0.000 A 
ATOM      8  C   UNL     1      47.371   5.818  13.605  0.00  0.00    +0.000 A 
BRANCH   7   9
ATOM      9  C   UNL     1      48.001   7.765  12.151  0.00  0.00    +0.000 A 
ATOM     10  C   UNL     1      49.335   7.694  11.743  0.00  0.00    +0.000 A 
ATOM     11  N   UNL     1      50.094   8.780  11.448  0.00  0.00    +0.000 NA
ATOM     12  C   UNL     1      49.463   9.965  11.571  0.00  0.00    +0.000 A 
ATOM     13  C   UNL     1      48.142  10.058  11.971  0.00  0.00    +0.000 A 
ATOM     14  N   UNL     1      47.388   8.973  12.265  0.00  0.00    +0.000 NA
ENDBRANCH   7   9
ENDBRANCH   1   3
BRANCH   1  15
ATOM     15  C   UNL     1      47.542   4.811  16.212  0.00  0.00    +0.000 C 
BRANCH  15  19
ATOM     16  C   UNL     1      50.914   2.462  17.391  0.00  0.00    +0.000 A 
ATOM     17  C   UNL     1      49.753   1.811  16.975  0.00  0.00    +0.000 A 
ATOM     18  C   UNL     1      48.644   2.572  16.603  0.00  0.00    +0.000 A 
ATOM     19  C   UNL     1      48.722   3.965  16.655  0.00  0.00    +0.000 A 
ATOM     20  N   UNL     1      49.839   4.612  17.079  0.00  0.00    +0.000 NA
ATOM     21  C   UNL     1      50.901   3.848  17.447  0.00  0.00    +0.000 A 
BRANCH  16  23
ATOM     22  N   UNL     1      52.023   0.423  18.112  0.00  0.00    +0.000 N 
ATOM     23  C   UNL     1      52.144   1.746  17.788  0.00  0.00    +0.000 C 
ATOM     24  O   UNL     1      53.235   2.300  17.785  0.00  0.00    +0.000 OA
ATOM     25  H   UNL     1      52.888  -0.079  18.271  0.00  0.00    +0.000 HD
ATOM     26  H   UNL     1      51.205  -0.122  17.884  0.00  0.00    +0.000 HD
ENDBRANCH  16  23
ENDBRANCH  15  19
ENDBRANCH   1  15
TORSDOF 5
ENDMDL
