MODEL 1
REMARK VINA RESULT:    -8.627      0.000      0.000
REMARK INTER + INTRA:         -11.305
REMARK INTER:                 -10.645
REMARK INTRA:                  -0.660
REMARK UNBOUND:                -0.660
REMARK  Name = 
REMARK  4 active torsions:
REMARK  status: ('A' for Active; 'I' for Inactive)
REMARK    1  A    between atoms: C_2  and  C_4
REMARK    2  A    between atoms: C_7  and  N_8
REMARK    3  A    between atoms: N_8  and  C_9
REMARK    4  A    between atoms: C_9  and  C_10
REMARK                            x       y       z     vdW  Elec       q    Type
REMARK                         _______ _______ _______ _____ _____    ______ ____
ROOT
ATOM      1  N   UNL     1      44.112   5.106   9.866  0.00  0.00    +0.000 N 
ATOM      2  H   UNL     1      44.553   5.976   9.561  0.00  0.00    +0.000 HD
ENDROOT
BRANCH   1   6
ATOM      3  C   UNL     1      46.253   2.095   7.857  0.00  0.00    +0.000 A 
ATOM      4  C   UNL     1      46.382   3.432   7.478  0.00  0.00    +0.000 A 
ATOM      5  C   UNL     1      45.595   4.401   8.105  0.00  0.00    +0.000 A 
ATOM      6  C   UNL     1      44.654   4.053   9.087  0.00  0.00    +0.000 A 
ATOM      7  C   UNL     1      44.488   2.694   9.377  0.00  0.00    +0.000 A 
ATOM      8  C   UNL     1      45.265   1.714   8.753  0.00  0.00    +0.000 A 
BRANCH   3  10
ATOM      9  N   UNL     1      46.874  -0.234   7.654  0.00  0.00    +0.000 N 
ATOM     10  C   UNL     1      47.222   1.064   7.394  0.00  0.00    +0.000 C 
ATOM     11  O   UNL     1      48.199   1.348   6.716  0.00  0.00    +0.000 OA
ATOM     12  H   UNL     1      47.396  -0.936   7.147  0.00  0.00    +0.000 HD
ATOM     13  H   UNL     1      45.938  -0.474   7.947  0.00  0.00    +0.000 HD
ENDBRANCH   3  10
ENDBRANCH   1   6
BRANCH   1  14
ATOM     14  C   UNL     1      43.878   5.091  11.323  0.00  0.00    +0.000 C 
ATOM     15  C   UNL     1      42.995   4.058  12.009  0.00  0.00    +0.000 C 
ATOM     16  C   UNL     1      42.531   5.479  11.919  0.00  0.00    +0.000 C 
BRANCH  14  17
ATOM     17  C   UNL     1      45.088   5.551  12.135  0.00  0.00    +0.000 A 
ATOM     18  C   UNL     1      45.715   4.667  13.029  0.00  0.00    +0.000 A 
ATOM     19  C   UNL     1      47.004   4.920  13.501  0.00  0.00    +0.000 A 
ATOM     20  C   UNL     1      47.672   6.081  13.124  0.00  0.00    +0.000 A 
ATOM     21  C   UNL     1      47.016   7.036  12.352  0.00  0.00    +0.000 A 
ATOM     22  C   UNL     1      45.729   6.776  11.888  0.00  0.00    +0.000 A 
ATOM     23  F   UNL     1      45.136   7.697  11.112  0.00  0.00    +0.000 F 
ENDBRANCH  14  17
ENDBRANCH   1  14
TORSDOF 4
ENDMDL
MODEL 2
REMARK VINA RESULT:    -8.475      1.494      2.146
REMARK INTER + INTRA:         -11.117
REMARK INTER:                 -10.452
REMARK INTRA:                  -0.664
REMARK UNBOUND:                -0.660
REMARK  Name = 
REMARK  4 active torsions:
REMARK  status: ('A' for Active; 'I' for Inactive)
REMARK    1  A    between atoms: C_2  and  C_4
REMARK    2  A    between atoms: C_7  and  N_8
REMARK    3  A    between atoms: N_8  and  C_9
REMARK    4  A    between atoms: C_9  and  C_10
REMARK                            x       y       z     vdW  Elec       q    Type
REMARK                         _______ _______ _______ _____ _____    ______ ____
ROOT
ATOM      1  N   UNL     1      43.729   4.685   9.880  0.00  0.00    +0.000 N 
ATOM      2  H   UNL     1      43.252   5.215   9.147  0.00  0.00    +0.000 HD
ENDROOT
BRANCH   1   6
ATOM      3  C   UNL     1      46.581   2.506   7.687  0.00  0.00    +0.000 A 
ATOM      4  C   UNL     1      45.730   1.860   8.585  0.00  0.00    +0.000 A 
ATOM      5  C   UNL     1      44.852   2.618   9.363  0.00  0.00    +0.000 A 
ATOM      6  C   UNL     1      44.829   4.019   9.282  0.00  0.00    +0.000 A 
ATOM      7  C   UNL     1      45.758   4.638   8.438  0.00  0.00    +0.000 A 
ATOM      8  C   UNL     1      46.646   3.891   7.659  0.00  0.00    +0.000 A 
BRANCH   3  10
ATOM      9  N   UNL     1      48.340   2.445   6.028  0.00  0.00    +0.000 N 
ATOM     10  C   UNL     1      47.361   1.741   6.676  0.00  0.00    +0.000 C 
ATOM     11  O   UNL     1      47.224   0.536   6.525  0.00  0.00    +0.000 OA
ATOM     12  H   UNL     1      49.016   1.889   5.523  0.00  0.00    +0.000 HD
ATOM     13  H   UNL     1      48.641   3.349   6.364  0.00  0.00    +0.000 HD
ENDBRANCH   3  10
ENDBRANCH   1   6
BRANCH   1  14
ATOM     14  C   UNL     1      43.731   5.405  11.167  0.00  0.00    +0.000 C 
ATOM     15  C   UNL     1      42.507   5.497  12.067  0.00  0.00    +0.000 C 
ATOM     16  C   UNL     1      42.984   6.720  11.348  0.00  0.00    +0.000 C 
BRANCH  14  17
ATOM     17  C   UNL     1      45.070   5.329  11.900  0.00  0.00    +0.000 A 
ATOM     18  C   UNL     1      45.937   6.435  11.903  0.00  0.00    +0.000 A 
ATOM     19  C   UNL     1      46.969   6.533  12.836  0.00  0.00    +0.000 A 
ATOM     20  C   UNL     1      47.184   5.509  13.752  0.00  0.00    +0.000 A 
ATOM     21  C   UNL     1      46.426   4.343  13.675  0.00  0.00    +0.000 A 
ATOM     22  C   UNL     1      45.400   4.253  12.739  0.00  0.00    +0.000 A 
ATOM     23  F   UNL     1      44.659   3.133  12.714  0.00  0.00    +0.000 F 
ENDBRANCH  14  17
ENDBRANCH   1  14
TORSDOF 4
ENDMDL
MODEL 3
REMARK VINA RESULT:    -6.632      3.353      6.031
REMARK INTER + INTRA:          -8.842
REMARK INTER:                  -8.318
REMARK INTRA:                  -0.524
REMARK UNBOUND:                -0.660
REMARK  Name = 
REMARK  4 active torsions:
REMARK  status: ('A' for Active; 'I' for Inactive)
REMARK    1  A    between atoms: C_2  and  C_4
REMARK    2  A    between atoms: C_7  and  N_8
REMARK    3  A    between atoms: N_8  and  C_9
REMARK    4  A    between atoms: C_9  and  C_10
REMARK                            x       y       z     vdW  Elec       q    Type
REMARK                         _______ _______ _______ _____ _____    ______ ____
ROOT
ATOM      1  N   UNL     1      45.206   4.899  12.433  0.00  0.00    +0.000 N 
ATOM      2  H   UNL     1      45.617   3.965  12.491  0.00  0.00    +0.000 HD
ENDROOT
BRANCH   1   6
ATOM      3  C   UNL     1      48.688   7.214  12.886  0.00  0.00    +0.000 A 
ATOM      4  C   UNL     1      48.237   6.398  13.925  0.00  0.00    +0.000 A 
ATOM      5  C   UNL     1      47.031   5.707  13.780  0.00  0.00    +0.000 A 
ATOM      6  C   UNL     1      46.250   5.840  12.621  0.00  0.00    +0.000 A 
ATOM      7  C   UNL     1      46.688   6.735  11.640  0.00  0.00    +0.000 A 
ATOM      8  C   UNL     1      47.889   7.438  11.776  0.00  0.00    +0.000 A 
BRANCH   3  10
ATOM      9  N   UNL     1      50.844   7.454  11.816  0.00  0.00    +0.000 N 
ATOM     10  C   UNL     1      50.065   7.781  12.892  0.00  0.00    +0.000 C 
ATOM     11  O   UNL     1      50.431   8.588  13.735  0.00  0.00    +0.000 OA
ATOM     12  H   UNL     1      51.677   8.013  11.695  0.00  0.00    +0.000 HD
ATOM     13  H   UNL     1      50.441   7.036  10.989  0.00  0.00    +0.000 HD
ENDBRANCH   3  10
ENDBRANCH   1   6
BRANCH   1  14
ATOM     14  C   UNL     1      44.134   4.966  11.422  0.00  0.00    +0.000 C 
ATOM     15  C   UNL     1      43.289   6.212  11.192  0.00  0.00    +0.000 C 
ATOM     16  C   UNL     1      42.664   5.003  11.817  0.00  0.00    +0.000 C 
BRANCH  14  17
ATOM     17  C   UNL     1      44.434   4.145  10.168  0.00  0.00    +0.000 A 
ATOM     18  C   UNL     1      45.126   4.728   9.093  0.00  0.00    +0.000 A 
ATOM     19  C   UNL     1      45.724   3.935   8.113  0.00  0.00    +0.000 A 
ATOM     20  C   UNL     1      45.604   2.550   8.163  0.00  0.00    +0.000 A 
ATOM     21  C   UNL     1      44.806   1.961   9.141  0.00  0.00    +0.000 A 
ATOM     22  C   UNL     1      44.211   2.760  10.113  0.00  0.00    +0.000 A 
ATOM     23  F   UNL     1      43.480   2.162  11.067  0.00  0.00    +0.000 F 
ENDBRANCH  14  17
ENDBRANCH   1  14
TORSDOF 4
ENDMDL
MODEL 4
REMARK VINA RESULT:    -6.546      3.551      6.217
REMARK INTER + INTRA:          -8.736
REMARK INTER:                  -8.184
REMARK INTRA:                  -0.552
REMARK UNBOUND:                -0.660
REMARK  Name = 
REMARK  4 active torsions:
REMARK  status: ('A' for Active; 'I' for Inactive)
REMARK    1  A    between atoms: C_2  and  C_4
REMARK    2  A    between atoms: C_7  and  N_8
REMARK    3  A    between atoms: N_8  and  C_9
REMARK    4  A    between atoms: C_9  and  C_10
REMARK                            x       y       z     vdW  Elec       q    Type
REMARK                         _______ _______ _______ _____ _____    ______ ____
ROOT
ATOM      1  N   UNL     1      44.876   4.453  12.710  0.00  0.00    +0.000 N 
ATOM      2  H   UNL     1      44.911   3.433  12.760  0.00  0.00    +0.000 HD
ENDROOT
BRANCH   1   6
ATOM      3  C   UNL     1      48.311   6.460  14.072  0.00  0.00    +0.000 A 
ATOM      4  C   UNL     1      47.851   6.644  12.767  0.00  0.00    +0.000 A 
ATOM      5  C   UNL     1      46.759   5.899  12.314  0.00  0.00    +0.000 A 
ATOM      6  C   UNL     1      46.134   4.948  13.136  0.00  0.00    +0.000 A 
ATOM      7  C   UNL     1      46.677   4.727  14.406  0.00  0.00    +0.000 A 
ATOM      8  C   UNL     1      47.774   5.461  14.869  0.00  0.00    +0.000 A 
BRANCH   3  10
ATOM      9  N   UNL     1      50.471   7.545  13.971  0.00  0.00    +0.000 N 
ATOM     10  C   UNL     1      49.309   7.385  14.677  0.00  0.00    +0.000 C 
ATOM     11  O   UNL     1      49.058   8.055  15.668  0.00  0.00    +0.000 OA
ATOM     12  H   UNL     1      51.042   8.332  14.243  0.00  0.00    +0.000 HD
ATOM     13  H   UNL     1      50.549   7.222  13.016  0.00  0.00    +0.000 HD
ENDBRANCH   3  10
ENDBRANCH   1   6
BRANCH   1  14
ATOM     14  C   UNL     1      44.095   4.918  11.548  0.00  0.00    +0.000 C 
ATOM     15  C   UNL     1      43.675   6.370  11.361  0.00  0.00    +0.000 C 
ATOM     16  C   UNL     1      42.637   5.339  11.681  0.00  0.00    +0.000 C 
BRANCH  14  17
ATOM     17  C   UNL     1      44.425   4.167  10.259  0.00  0.00    +0.000 A 
ATOM     18  C   UNL     1      45.152   4.803   9.238  0.00  0.00    +0.000 A 
ATOM     19  C   UNL     1      45.772   4.061   8.232  0.00  0.00    +0.000 A 
ATOM     20  C   UNL     1      45.640   2.677   8.201  0.00  0.00    +0.000 A 
ATOM     21  C   UNL     1      44.810   2.041   9.120  0.00  0.00    +0.000 A 
ATOM     22  C   UNL     1      44.193   2.789  10.119  0.00  0.00    +0.000 A 
ATOM     23  F   UNL     1      43.430   2.145  11.016  0.00  0.00    +0.000 F 
ENDBRANCH  14  17
ENDBRANCH   1  14
TORSDOF 4
ENDMDL
MODEL 5
REMARK VINA RESULT:    -6.239      3.201      6.255
REMARK INTER + INTRA:          -8.358
REMARK INTER:                  -7.782
REMARK INTRA:                  -0.576
REMARK UNBOUND:                -0.660
REMARK  Name = 
REMARK  4 active torsions:
REMARK  status: ('A' for Active; 'I' for Inactive)
REMARK    1  A    between atoms: C_2  and  C_4
REMARK    2  A    between atoms: C_7  and  N_8
REMARK    3  A    between atoms: N_8  and  C_9
REMARK    4  A    between atoms: C_9  and  C_10
REMARK                            x       y       z     vdW  Elec       q    Type
REMARK                         _______ _______ _______ _____ _____    ______ ____
ROOT
ATOM      1  N   UNL     1      45.346   5.151  12.515  0.00  0.00    +0.000 N 
ATOM      2  H   UNL     1      46.053   4.421  12.621  0.00  0.00    +0.000 HD
ENDROOT
BRANCH   1   6
ATOM      3  C   UNL     1      47.321   8.862  12.408  0.00  0.00    +0.000 A 
ATOM      4  C   UNL     1      48.042   7.670  12.315  0.00  0.00    +0.000 A 
ATOM      5  C   UNL     1      47.371   6.452  12.440  0.00  0.00    +0.000 A 
ATOM      6  C   UNL     1      45.990   6.402  12.688  0.00  0.00    +0.000 A 
ATOM      7  C   UNL     1      45.316   7.616  12.865  0.00  0.00    +0.000 A 
ATOM      8  C   UNL     1      45.978   8.842  12.749  0.00  0.00    +0.000 A 
BRANCH   3  10
ATOM      9  N   UNL     1      47.931  11.116  13.039  0.00  0.00    +0.000 N 
ATOM     10  C   UNL     1      47.940  10.169  12.052  0.00  0.00    +0.000 C 
ATOM     11  O   UNL     1      48.531  10.341  10.996  0.00  0.00    +0.000 OA
ATOM     12  H   UNL     1      48.544  11.906  12.893  0.00  0.00    +0.000 HD
ATOM     13  H   UNL     1      47.710  10.871  13.994  0.00  0.00    +0.000 HD
ENDBRANCH   3  10
ENDBRANCH   1   6
BRANCH   1  14
ATOM     14  C   UNL     1      44.355   4.808  11.477  0.00  0.00    +0.000 C 
ATOM     15  C   UNL     1      43.162   5.695  11.145  0.00  0.00    +0.000 C 
ATOM     16  C   UNL     1      42.936   4.384  11.835  0.00  0.00    +0.000 C 
BRANCH  14  17
ATOM     17  C   UNL     1      44.960   4.063  10.287  0.00  0.00    +0.000 A 
ATOM     18  C   UNL     1      44.682   2.700  10.093  0.00  0.00    +0.000 A 
ATOM     19  C   UNL     1      44.908   2.092   8.858  0.00  0.00    +0.000 A 
ATOM     20  C   UNL     1      45.455   2.821   7.808  0.00  0.00    +0.000 A 
ATOM     21  C   UNL     1      45.867   4.135   8.021  0.00  0.00    +0.000 A 
ATOM     22  C   UNL     1      45.641   4.732   9.257  0.00  0.00    +0.000 A 
ATOM     23  F   UNL     1      46.011   6.012   9.422  0.00  0.00    +0.000 F 
ENDBRANCH  14  17
ENDBRANCH   1  14
TORSDOF 4
ENDMDL
MODEL 6
REMARK VINA RESULT:    -6.071      3.805      6.671
REMARK INTER + INTRA:          -8.151
REMARK INTER:                  -7.629
REMARK INTRA:                  -0.522
REMARK UNBOUND:                -0.660
REMARK  Name = 
REMARK  4 active torsions:
REMARK  status: ('A' for Active; 'I' for Inactive)
REMARK    1  A    between atoms: C_2  and  C_4
REMARK    2  A    between atoms: C_7  and  N_8
REMARK    3  A    between atoms: N_8  and  C_9
REMARK    4  A    between atoms: C_9  and  C_10
REMARK                            x       y       z     vdW  Elec       q    Type
REMARK                         _______ _______ _______ _____ _____    ______ ____
ROOT
ATOM      1  N   UNL     1      45.981   3.893  13.369  0.00  0.00    +0.000 N 
ATOM      2  H   UNL     1      46.631   3.254  12.906  0.00  0.00    +0.000 HD
ENDROOT
BRANCH   1   6
ATOM      3  C   UNL     1      48.723   6.177  15.594  0.00  0.00    +0.000 A 
ATOM      4  C   UNL     1      48.073   5.086  16.172  0.00  0.00    +0.000 A 
ATOM      5  C   UNL     1      47.103   4.398  15.438  0.00  0.00    +0.000 A 
ATOM      6  C   UNL     1      46.749   4.801  14.141  0.00  0.00    +0.000 A 
ATOM      7  C   UNL     1      47.356   5.953  13.628  0.00  0.00    +0.000 A 
ATOM      8  C   UNL     1      48.322   6.654  14.355  0.00  0.00    +0.000 A 
BRANCH   3  10
ATOM      9  N   UNL     1      50.016   6.620  17.589  0.00  0.00    +0.000 N 
ATOM     10  C   UNL     1      49.917   6.794  16.236  0.00  0.00    +0.000 C 
ATOM     11  O   UNL     1      50.812   7.310  15.582  0.00  0.00    +0.000 OA
ATOM     12  H   UNL     1      50.921   6.825  17.990  0.00  0.00    +0.000 HD
ATOM     13  H   UNL     1      49.436   5.949  18.073  0.00  0.00    +0.000 HD
ENDBRANCH   3  10
ENDBRANCH   1   6
BRANCH   1  14
ATOM     14  C   UNL     1      44.831   4.226  12.507  0.00  0.00    +0.000 C 
ATOM     15  C   UNL     1      43.902   5.401  12.783  0.00  0.00    +0.000 C 
ATOM     16  C   UNL     1      43.396   4.003  12.968  0.00  0.00    +0.000 C 
BRANCH  14  17
ATOM     17  C   UNL     1      45.077   3.928  11.028  0.00  0.00    +0.000 A 
ATOM     18  C   UNL     1      44.620   2.725  10.466  0.00  0.00    +0.000 A 
ATOM     19  C   UNL     1      44.503   2.580   9.083  0.00  0.00    +0.000 A 
ATOM     20  C   UNL     1      44.883   3.616   8.236  0.00  0.00    +0.000 A 
ATOM     21  C   UNL     1      45.469   4.762   8.767  0.00  0.00    +0.000 A 
ATOM     22  C   UNL     1      45.584   4.897  10.147  0.00  0.00    +0.000 A 
ATOM     23  F   UNL     1      46.117   6.030  10.633  0.00  0.00    +0.000 F 
ENDBRANCH  14  17
ENDBRANCH   1  14
TORSDOF 4
ENDMDL
MODEL 7
REMARK VINA RESULT:    -6.058      3.912      6.712
REMARK INTER + INTRA:          -8.135
REMARK INTER:                  -7.866
REMARK INTRA:                  -0.269
REMARK UNBOUND:                -0.660
REMARK  Name = 
REMARK  4 active torsions:
REMARK  status: ('A' for Active; 'I' for Inactive)
REMARK    1  A    between atoms: C_2  and  C_4
REMARK    2  A    between atoms: C_7  and  N_8
REMARK    3  A    between atoms: N_8  and  C_9
REMARK    4  A    between atoms: C_9  and  C_10
REMARK                            x       y       z     vdW  Elec       q    Type
REMARK                         _______ _______ _______ _____ _____    ______ ____
ROOT
ATOM      1  N   UNL     1      46.869   5.872  12.152  0.00  0.00    +0.000 N 
ATOM      2  H   UNL     1      47.367   6.729  11.902  0.00  0.00    +0.000 HD
ENDROOT
BRANCH   1   6
ATOM      3  C   UNL     1      47.868   5.043  16.152  0.00  0.00    +0.000 A 
ATOM      4  C   UNL     1      48.376   6.175  15.513  0.00  0.00    +0.000 A 
ATOM      5  C   UNL     1      48.099   6.380  14.159  0.00  0.00    +0.000 A 
ATOM      6  C   UNL     1      47.343   5.455  13.421  0.00  0.00    +0.000 A 
ATOM      7  C   UNL     1      46.927   4.288  14.072  0.00  0.00    +0.000 A 
ATOM      8  C   UNL     1      47.204   4.068  15.424  0.00  0.00    +0.000 A 
BRANCH   3  10
ATOM      9  N   UNL     1      46.790   5.217  18.311  0.00  0.00    +0.000 N 
ATOM     10  C   UNL     1      47.935   4.897  17.633  0.00  0.00    +0.000 C 
ATOM     11  O   UNL     1      48.903   4.405  18.194  0.00  0.00    +0.000 OA
ATOM     12  H   UNL     1      46.749   4.902  19.270  0.00  0.00    +0.000 HD
ATOM     13  H   UNL     1      45.913   5.338  17.824  0.00  0.00    +0.000 HD
ENDBRANCH   3  10
ENDBRANCH   1   6
BRANCH   1  14
ATOM     14  C   UNL     1      45.464   5.903  11.705  0.00  0.00    +0.000 C 
ATOM     15  C   UNL     1      44.661   7.191  11.585  0.00  0.00    +0.000 C 
ATOM     16  C   UNL     1      44.325   6.213  12.668  0.00  0.00    +0.000 C 
BRANCH  14  17
ATOM     17  C   UNL     1      45.139   4.837  10.659  0.00  0.00    +0.000 A 
ATOM     18  C   UNL     1      45.377   5.089   9.297  0.00  0.00    +0.000 A 
ATOM     19  C   UNL     1      45.438   4.043   8.376  0.00  0.00    +0.000 A 
ATOM     20  C   UNL     1      45.217   2.733   8.788  0.00  0.00    +0.000 A 
ATOM     21  C   UNL     1      44.841   2.477  10.104  0.00  0.00    +0.000 A 
ATOM     22  C   UNL     1      44.780   3.527  11.016  0.00  0.00    +0.000 A 
ATOM     23  F   UNL     1      44.454   3.246  12.288  0.00  0.00    +0.000 F 
ENDBRANCH  14  17
ENDBRANCH   1  14
TORSDOF 4
ENDMDL
MODEL 8
REMARK VINA RESULT:    -5.849      2.888      4.990
REMARK INTER + INTRA:          -7.876
REMARK INTER:                  -7.475
REMARK INTRA:                  -0.401
REMARK UNBOUND:                -0.660
REMARK  Name = 
REMARK  4 active torsions:
REMARK  status: ('A' for Active; 'I' for Inactive)
REMARK    1  A    between atoms: C_2  and  C_4
REMARK    2  A    between atoms: C_7  and  N_8
REMARK    3  A    between atoms: N_8  and  C_9
REMARK    4  A    between atoms: C_9  and  C_10
REMARK                            x       y       z     vdW  Elec       q    Type
REMARK                         _______ _______ _______ _____ _____    ______ ____
ROOT
ATOM      1  N   UNL     1      46.571   7.211  13.629  0.00  0.00    +0.000 N 
ATOM      2  H   UNL     1      46.442   8.220  13.527  0.00  0.00    +0.000 HD
ENDROOT
BRANCH   1   6
ATOM      3  C   UNL     1      44.626   4.883  10.717  0.00  0.00    +0.000 A 
ATOM      4  C   UNL     1      45.695   5.710  10.367  0.00  0.00    +0.000 A 
ATOM      5  C   UNL     1      46.266   6.537  11.337  0.00  0.00    +0.000 A 
ATOM      6  C   UNL     1      45.768   6.575  12.649  0.00  0.00    +0.000 A 
ATOM      7  C   UNL     1      44.640   5.800  12.940  0.00  0.00    +0.000 A 
ATOM      8  C   UNL     1      44.055   4.973  11.976  0.00  0.00    +0.000 A 
BRANCH   3  10
ATOM      9  N   UNL     1      44.201   4.122   8.460  0.00  0.00    +0.000 N 
ATOM     10  C   UNL     1      44.138   3.821   9.794  0.00  0.00    +0.000 C 
ATOM     11  O   UNL     1      43.823   2.709  10.192  0.00  0.00    +0.000 OA
ATOM     12  H   UNL     1      44.098   3.338   7.831  0.00  0.00    +0.000 HD
ATOM     13  H   UNL     1      44.732   4.916   8.130  0.00  0.00    +0.000 HD
ENDBRANCH   3  10
ENDBRANCH   1   6
BRANCH   1  14
ATOM     14  C   UNL     1      47.962   6.868  13.983  0.00  0.00    +0.000 C 
ATOM     15  C   UNL     1      49.118   7.849  13.842  0.00  0.00    +0.000 C 
ATOM     16  C   UNL     1      49.033   6.673  12.918  0.00  0.00    +0.000 C 
BRANCH  14  17
ATOM     17  C   UNL     1      48.065   5.911  15.171  0.00  0.00    +0.000 A 
ATOM     18  C   UNL     1      48.556   6.369  16.405  0.00  0.00    +0.000 A 
ATOM     19  C   UNL     1      48.328   5.648  17.578  0.00  0.00    +0.000 A 
ATOM     20  C   UNL     1      47.647   4.436  17.533  0.00  0.00    +0.000 A 
ATOM     21  C   UNL     1      47.275   3.897  16.304  0.00  0.00    +0.000 A 
ATOM     22  C   UNL     1      47.509   4.623  15.139  0.00  0.00    +0.000 A 
ATOM     23  F   UNL     1      47.104   4.097  13.971  0.00  0.00    +0.000 F 
ENDBRANCH  14  17
ENDBRANCH   1  14
TORSDOF 4
ENDMDL
MODEL 9
REMARK VINA RESULT:    -5.724      4.383      7.094
REMARK INTER + INTRA:          -7.723
REMARK INTER:                  -7.246
REMARK INTRA:                  -0.477
REMARK UNBOUND:                -0.660
REMARK  Name = 
REMARK  4 active torsions:
REMARK  status: ('A' for Active; 'I' for Inactive)
REMARK    1  A    between atoms: C_2  and  C_4
REMARK    2  A    between atoms: C_7  and  N_8
REMARK    3  A    between atoms: N_8  and  C_9
REMARK    4  A    between atoms: C_9  and  C_10
REMARK                            x       y       z     vdW  Elec       q    Type
REMARK                         _______ _______ _______ _____ _____    ______ ____
ROOT
ATOM      1  N   UNL     1      47.317   5.579  12.862  0.00  0.00    +0.000 N 
ATOM      2  H   UNL     1      48.221   5.829  12.454  0.00  0.00    +0.000 HD
ENDROOT
BRANCH   1   6
ATOM      3  C   UNL     1      48.233   4.786  16.889  0.00  0.00    +0.000 A 
ATOM      4  C   UNL     1      47.321   3.988  16.197  0.00  0.00    +0.000 A 
ATOM      5  C   UNL     1      46.970   4.326  14.888  0.00  0.00    +0.000 A 
ATOM      6  C   UNL     1      47.494   5.469  14.264  0.00  0.00    +0.000 A 
ATOM      7  C   UNL     1      48.335   6.294  15.018  0.00  0.00    +0.000 A 
ATOM      8  C   UNL     1      48.689   5.971  16.331  0.00  0.00    +0.000 A 
BRANCH   3  10
ATOM      9  N   UNL     1      49.397   3.108  18.185  0.00  0.00    +0.000 N 
ATOM     10  C   UNL     1      48.816   4.347  18.187  0.00  0.00    +0.000 C 
ATOM     11  O   UNL     1      48.884   5.091  19.154  0.00  0.00    +0.000 OA
ATOM     12  H   UNL     1      49.990   2.903  18.977  0.00  0.00    +0.000 HD
ATOM     13  H   UNL     1      49.597   2.627  17.319  0.00  0.00    +0.000 HD
ENDBRANCH   3  10
ENDBRANCH   1   6
BRANCH   1  14
ATOM     14  C   UNL     1      46.199   6.245  12.166  0.00  0.00    +0.000 C 
ATOM     15  C   UNL     1      46.246   7.702  11.728  0.00  0.00    +0.000 C 
ATOM     16  C   UNL     1      45.345   7.301  12.855  0.00  0.00    +0.000 C 
BRANCH  14  17
ATOM     17  C   UNL     1      45.426   5.312  11.234  0.00  0.00    +0.000 A 
ATOM     18  C   UNL     1      45.630   5.376   9.845  0.00  0.00    +0.000 A 
ATOM     19  C   UNL     1      45.233   4.327   9.015  0.00  0.00    +0.000 A 
ATOM     20  C   UNL     1      44.586   3.218   9.549  0.00  0.00    +0.000 A 
ATOM     21  C   UNL     1      44.250   3.198  10.900  0.00  0.00    +0.000 A 
ATOM     22  C   UNL     1      44.648   4.249  11.720  0.00  0.00    +0.000 A 
ATOM     23  F   UNL     1      44.345   4.185  13.027  0.00  0.00    +0.000 F 
ENDBRANCH  14  17
ENDBRANCH   1  14
TORSDOF 4
ENDMDL
