MODEL 1
REMARK VINA RESULT:    -8.047      0.000      0.000
REMARK INTER + INTRA:         -11.646
REMARK INTER:                 -10.869
REMARK INTRA:                  -0.777
REMARK UNBOUND:                -0.777
REMARK  Name = 
REMARK  6 active torsions:
REMARK  status: ('A' for Active; 'I' for Inactive)
REMARK    1  A    between atoms: C_2  and  C_25
REMARK    2  A    between atoms: N_3  and  C_4
REMARK    3  A    between atoms: C_4  and  C_5
REMARK    4  A    between atoms: C_8  and  C_9
REMARK    5  A    between atoms: C_9  and  N_10
REMARK    6  A    between atoms: C_11  and  C_13
REMARK                            x       y       z     vdW  Elec       q    Type
REMARK                         _______ _______ _______ _____ _____    ______ ____
ROOT
ATOM      1  C   UNL     1      44.647   5.127  11.293  0.00  0.00    +0.000 A 
ATOM      2  C   UNL     1      45.624   4.690  12.182  0.00  0.00    +0.000 A 
ATOM      3  N   UNL     1      46.411   5.538  12.890  0.00  0.00    +0.000 NA
ATOM      4  C   UNL     1      46.189   6.863  12.687  0.00  0.00    +0.000 A 
ATOM      5  C   UNL     1      45.214   7.299  11.797  0.00  0.00    +0.000 A 
ATOM      6  N   UNL     1      44.419   6.452  11.095  0.00  0.00    +0.000 NA
ENDROOT
BRANCH   1   7
ATOM      7  C   UNL     1      43.819   4.143  10.509  0.00  0.00    +0.000 C 
BRANCH   7  10
ATOM      8  O   UNL     1      45.299   4.710   8.210  0.00  0.00    +0.000 OA
ATOM      9  C   UNL     1      45.317   3.558   8.632  0.00  0.00    +0.000 C 
ATOM     10  N   UNL     1      44.613   3.192   9.757  0.00  0.00    +0.000 N 
ATOM     11  H   UNL     1      44.727   2.251  10.113  0.00  0.00    +0.000 HD
BRANCH   9  12
ATOM     12  C   UNL     1      46.066   2.489   8.004  0.00  0.00    +0.000 A 
ATOM     13  C   UNL     1      46.929   2.515   6.925  0.00  0.00    +0.000 A 
ATOM     14  C   UNL     1      47.381   1.190   6.730  0.00  0.00    +0.000 A 
ATOM     15  C   UNL     1      46.763   0.431   7.695  0.00  0.00    +0.000 A 
ATOM     16  O   UNL     1      45.965   1.207   8.477  0.00  0.00    +0.000 OA
ENDBRANCH   9  12
ENDBRANCH   7  10
ENDBRANCH   1   7
BRANCH   4  17
ATOM     17  C   UNL     1      47.047   7.849  13.433  0.00  0.00    +0.000 C 
BRANCH  17  18
ATOM     18  N   UNL     1      47.529   7.323  14.692  0.00  0.00    +0.000 N 
ATOM     19  C   UNL     1      48.814   6.875  14.847  0.00  0.00    +0.000 C 
ATOM     20  O   UNL     1      49.630   6.927  13.930  0.00  0.00    +0.000 OA
ATOM     21  H   UNL     1      46.817   7.056  15.367  0.00  0.00    +0.000 HD
BRANCH  19  22
ATOM     22  C   UNL     1      49.190   6.392  16.180  0.00  0.00    +0.000 A 
ATOM     23  C   UNL     1      50.159   7.069  16.908  0.00  0.00    +0.000 A 
ATOM     24  S   UNL     1      50.452   6.398  18.448  0.00  0.00    +0.000 S 
ATOM     25  C   UNL     1      49.329   5.148  18.177  0.00  0.00    +0.000 A 
ATOM     26  N   UNL     1      49.115   4.185  19.113  0.00  0.00    +0.000 NA
ATOM     27  C   UNL     1      48.270   3.275  18.757  0.00  0.00    +0.000 A 
ATOM     28  N   UNL     1      47.612   3.248  17.554  0.00  0.00    +0.000 N 
ATOM     29  C   UNL     1      47.754   4.230  16.603  0.00  0.00    +0.000 A 
ATOM     30  O   UNL     1      47.084   4.231  15.577  0.00  0.00    +0.000 OA
ATOM     31  C   UNL     1      48.722   5.257  16.938  0.00  0.00    +0.000 A 
ATOM     32  H   UNL     1      46.946   2.519  17.345  0.00  0.00    +0.000 HD
ENDBRANCH  19  22
ENDBRANCH  17  18
ENDBRANCH   4  17
TORSDOF 6
ENDMDL
MODEL 2
REMARK VINA RESULT:    -7.815      1.630      2.119
REMARK INTER + INTRA:         -11.333
REMARK INTER:                 -10.473
REMARK INTRA:                  -0.860
REMARK UNBOUND:                -0.777
REMARK  Name = 
REMARK  6 active torsions:
REMARK  status: ('A' for Active; 'I' for Inactive)
REMARK    1  A    between atoms: C_2  and  C_25
REMARK    2  A    between atoms: N_3  and  C_4
REMARK    3  A    between atoms: C_4  and  C_5
REMARK    4  A    between atoms: C_8  and  C_9
REMARK    5  A    between atoms: C_9  and  N_10
REMARK    6  A    between atoms: C_11  and  C_13
REMARK                            x       y       z     vdW  Elec       q    Type
REMARK                         _______ _______ _______ _____ _____    ______ ____
ROOT
ATOM      1  C   UNL     1      44.617   4.843  11.619  0.00  0.00    +0.000 A 
ATOM      2  C   UNL     1      44.016   6.047  11.264  0.00  0.00    +0.000 A 
ATOM      3  N   UNL     1      44.489   7.255  11.663  0.00  0.00    +0.000 NA
ATOM      4  C   UNL     1      45.604   7.228  12.438  0.00  0.00    +0.000 A 
ATOM      5  C   UNL     1      46.203   6.026  12.794  0.00  0.00    +0.000 A 
ATOM      6  N   UNL     1      45.738   4.818  12.387  0.00  0.00    +0.000 NA
ENDROOT
BRANCH   1   7
ATOM      7  C   UNL     1      44.035   3.527  11.172  0.00  0.00    +0.000 C 
BRANCH   7  10
ATOM      8  O   UNL     1      44.435   4.083   8.465  0.00  0.00    +0.000 OA
ATOM      9  C   UNL     1      45.043   3.134   8.950  0.00  0.00    +0.000 C 
ATOM     10  N   UNL     1      44.902   2.789  10.276  0.00  0.00    +0.000 N 
ATOM     11  H   UNL     1      45.487   2.052  10.648  0.00  0.00    +0.000 HD
BRANCH   9  12
ATOM     12  C   UNL     1      45.954   2.299   8.195  0.00  0.00    +0.000 A 
ATOM     13  C   UNL     1      46.868   2.632   7.213  0.00  0.00    +0.000 A 
ATOM     14  C   UNL     1      47.491   1.430   6.808  0.00  0.00    +0.000 A 
ATOM     15  C   UNL     1      46.918   0.431   7.561  0.00  0.00    +0.000 A 
ATOM     16  O   UNL     1      45.986   0.945   8.408  0.00  0.00    +0.000 OA
ENDBRANCH   9  12
ENDBRANCH   7  10
ENDBRANCH   1   7
BRANCH   4  17
ATOM     17  C   UNL     1      46.160   8.539  12.925  0.00  0.00    +0.000 C 
BRANCH  17  18
ATOM     18  N   UNL     1      46.775   8.430  14.231  0.00  0.00    +0.000 N 
ATOM     19  C   UNL     1      47.953   9.060  14.533  0.00  0.00    +0.000 C 
ATOM     20  O   UNL     1      48.530   9.774  13.717  0.00  0.00    +0.000 OA
ATOM     21  H   UNL     1      46.445   7.669  14.819  0.00  0.00    +0.000 HD
BRANCH  19  22
ATOM     22  C   UNL     1      48.459   8.894  15.900  0.00  0.00    +0.000 A 
ATOM     23  C   UNL     1      48.563  10.001  16.733  0.00  0.00    +0.000 A 
ATOM     24  S   UNL     1      49.135   9.630  18.296  0.00  0.00    +0.000 S 
ATOM     25  C   UNL     1      49.313   7.985  17.899  0.00  0.00    +0.000 A 
ATOM     26  N   UNL     1      49.803   7.096  18.805  0.00  0.00    +0.000 NA
ATOM     27  C   UNL     1      49.925   5.891  18.356  0.00  0.00    +0.000 A 
ATOM     28  N   UNL     1      49.593   5.493  17.087  0.00  0.00    +0.000 N 
ATOM     29  C   UNL     1      49.041   6.343  16.158  0.00  0.00    +0.000 A 
ATOM     30  O   UNL     1      48.666   5.940  15.064  0.00  0.00    +0.000 OA
ATOM     31  C   UNL     1      48.917   7.719  16.600  0.00  0.00    +0.000 A 
ATOM     32  H   UNL     1      49.693   4.530  16.804  0.00  0.00    +0.000 HD
ENDBRANCH  19  22
ENDBRANCH  17  18
ENDBRANCH   4  17
TORSDOF 6
ENDMDL
MODEL 3
REMARK VINA RESULT:    -7.408      1.909      2.378
REMARK INTER + INTRA:         -10.784
REMARK INTER:                  -9.984
REMARK INTRA:                  -0.799
REMARK UNBOUND:                -0.777
REMARK  Name = 
REMARK  6 active torsions:
REMARK  status: ('A' for Active; 'I' for Inactive)
REMARK    1  A    between atoms: C_2  and  C_25
REMARK    2  A    between atoms: N_3  and  C_4
REMARK    3  A    between atoms: C_4  and  C_5
REMARK    4  A    between atoms: C_8  and  C_9
REMARK    5  A    between atoms: C_9  and  N_10
REMARK    6  A    between atoms: C_11  and  C_13
REMARK                            x       y       z     vdW  Elec       q    Type
REMARK                         _______ _______ _______ _____ _____    ______ ____
ROOT
ATOM      1  C   UNL     1      45.198   5.396  11.420  0.00  0.00    +0.000 A 
ATOM      2  C   UNL     1      45.301   6.779  11.307  0.00  0.00    +0.000 A 
ATOM      3  N   UNL     1      46.152   7.521  12.060  0.00  0.00    +0.000 NA
ATOM      4  C   UNL     1      46.917   6.830  12.944  0.00  0.00    +0.000 A 
ATOM      5  C   UNL     1      46.814   5.449  13.058  0.00  0.00    +0.000 A 
ATOM      6  N   UNL     1      45.971   4.705  12.299  0.00  0.00    +0.000 NA
ENDROOT
BRANCH   1   7
ATOM      7  C   UNL     1      44.216   4.622  10.580  0.00  0.00    +0.000 C 
BRANCH   7  10
ATOM      8  O   UNL     1      45.871   5.067   8.375  0.00  0.00    +0.000 OA
ATOM      9  C   UNL     1      45.644   3.904   8.695  0.00  0.00    +0.000 C 
ATOM     10  N   UNL     1      44.838   3.596   9.767  0.00  0.00    +0.000 N 
ATOM     11  H   UNL     1      44.750   2.625  10.042  0.00  0.00    +0.000 HD
BRANCH   9  12
ATOM     12  C   UNL     1      46.193   2.762   7.994  0.00  0.00    +0.000 A 
ATOM     13  C   UNL     1      46.772   2.673   6.743  0.00  0.00    +0.000 A 
ATOM     14  C   UNL     1      47.130   1.319   6.551  0.00  0.00    +0.000 A 
ATOM     15  C   UNL     1      46.744   0.658   7.693  0.00  0.00    +0.000 A 
ATOM     16  O   UNL     1      46.177   1.522   8.578  0.00  0.00    +0.000 OA
ENDBRANCH   9  12
ENDBRANCH   7  10
ENDBRANCH   1   7
BRANCH   4  17
ATOM     17  C   UNL     1      47.865   7.606  13.818  0.00  0.00    +0.000 C 
BRANCH  17  18
ATOM     18  N   UNL     1      47.894   7.114  15.179  0.00  0.00    +0.000 N 
ATOM     19  C   UNL     1      49.048   6.662  15.763  0.00  0.00    +0.000 C 
ATOM     20  O   UNL     1      50.122   6.682  15.167  0.00  0.00    +0.000 OA
ATOM     21  H   UNL     1      46.994   6.871  15.586  0.00  0.00    +0.000 HD
BRANCH  19  22
ATOM     22  C   UNL     1      48.952   6.214  17.156  0.00  0.00    +0.000 A 
ATOM     23  C   UNL     1      49.349   4.927  17.493  0.00  0.00    +0.000 A 
ATOM     24  S   UNL     1      49.206   4.579  19.156  0.00  0.00    +0.000 S 
ATOM     25  C   UNL     1      48.560   6.120  19.478  0.00  0.00    +0.000 A 
ATOM     26  N   UNL     1      48.181   6.471  20.737  0.00  0.00    +0.000 NA
ATOM     27  C   UNL     1      47.667   7.652  20.828  0.00  0.00    +0.000 A 
ATOM     28  N   UNL     1      47.507   8.518  19.777  0.00  0.00    +0.000 N 
ATOM     29  C   UNL     1      47.927   8.228  18.500  0.00  0.00    +0.000 A 
ATOM     30  O   UNL     1      47.858   9.056  17.600  0.00  0.00    +0.000 OA
ATOM     31  C   UNL     1      48.479   6.897  18.336  0.00  0.00    +0.000 A 
ATOM     32  H   UNL     1      47.117   9.438  19.919  0.00  0.00    +0.000 HD
ENDBRANCH  19  22
ENDBRANCH  17  18
ENDBRANCH   4  17
TORSDOF 6
ENDMDL
MODEL 4
REMARK VINA RESULT:    -7.291      2.087      2.627
REMARK INTER + INTRA:         -10.625
REMARK INTER:                  -9.870
REMARK INTRA:                  -0.755
REMARK UNBOUND:                -0.777
REMARK  Name = 
REMARK  6 active torsions:
REMARK  status: ('A' for Active; 'I' for Inactive)
REMARK    1  A    between atoms: C_2  and  C_25
REMARK    2  A    between atoms: N_3  and  C_4
REMARK    3  A    between atoms: C_4  and  C_5
REMARK    4  A    between atoms: C_8  and  C_9
REMARK    5  A    between atoms: C_9  and  N_10
REMARK    6  A    between atoms: C_11  and  C_13
REMARK                            x       y       z     vdW  Elec       q    Type
REMARK                         _______ _______ _______ _____ _____    ______ ____
ROOT
ATOM      1  C   UNL     1      44.719   4.830  11.791  0.00  0.00    +0.000 A 
ATOM      2  C   UNL     1      45.483   4.946  12.949  0.00  0.00    +0.000 A 
ATOM      3  N   UNL     1      45.992   6.126  13.383  0.00  0.00    +0.000 NA
ATOM      4  C   UNL     1      45.708   7.212  12.617  0.00  0.00    +0.000 A 
ATOM      5  C   UNL     1      44.947   7.096  11.461  0.00  0.00    +0.000 A 
ATOM      6  N   UNL     1      44.428   5.918  11.030  0.00  0.00    +0.000 NA
ENDROOT
BRANCH   1   7
ATOM      7  C   UNL     1      44.201   3.490  11.337  0.00  0.00    +0.000 C 
BRANCH   7  10
ATOM      8  O   UNL     1      44.192   3.845   8.567  0.00  0.00    +0.000 OA
ATOM      9  C   UNL     1      45.007   3.060   9.041  0.00  0.00    +0.000 C 
ATOM     10  N   UNL     1      45.078   2.823  10.395  0.00  0.00    +0.000 N 
ATOM     11  H   UNL     1      45.821   2.231  10.744  0.00  0.00    +0.000 HD
BRANCH   9  12
ATOM     12  C   UNL     1      45.959   2.318   8.240  0.00  0.00    +0.000 A 
ATOM     13  C   UNL     1      46.847   2.754   7.274  0.00  0.00    +0.000 A 
ATOM     14  C   UNL     1      47.536   1.611   6.805  0.00  0.00    +0.000 A 
ATOM     15  C   UNL     1      47.024   0.544   7.507  0.00  0.00    +0.000 A 
ATOM     16  O   UNL     1      46.070   0.959   8.382  0.00  0.00    +0.000 OA
ENDBRANCH   9  12
ENDBRANCH   7  10
ENDBRANCH   1   7
BRANCH   4  17
ATOM     17  C   UNL     1      46.264   8.544  13.042  0.00  0.00    +0.000 C 
BRANCH  17  18
ATOM     18  N   UNL     1      47.582   8.433  13.630  0.00  0.00    +0.000 N 
ATOM     19  C   UNL     1      48.703   8.240  12.866  0.00  0.00    +0.000 C 
ATOM     20  O   UNL     1      48.646   8.181  11.640  0.00  0.00    +0.000 OA
ATOM     21  H   UNL     1      47.613   8.241  14.627  0.00  0.00    +0.000 HD
BRANCH  19  22
ATOM     22  C   UNL     1      49.984   8.171  13.577  0.00  0.00    +0.000 A 
ATOM     23  C   UNL     1      51.084   8.857  13.079  0.00  0.00    +0.000 A 
ATOM     24  S   UNL     1      52.482   8.701  14.042  0.00  0.00    +0.000 S 
ATOM     25  C   UNL     1      51.681   7.670  15.133  0.00  0.00    +0.000 A 
ATOM     26  N   UNL     1      52.335   7.137  16.200  0.00  0.00    +0.000 NA
ATOM     27  C   UNL     1      51.618   6.338  16.919  0.00  0.00    +0.000 A 
ATOM     28  N   UNL     1      50.305   6.033  16.673  0.00  0.00    +0.000 N 
ATOM     29  C   UNL     1      49.588   6.592  15.641  0.00  0.00    +0.000 A 
ATOM     30  O   UNL     1      48.391   6.374  15.501  0.00  0.00    +0.000 OA
ATOM     31  C   UNL     1      50.358   7.469  14.780  0.00  0.00    +0.000 A 
ATOM     32  H   UNL     1      49.793   5.416  17.287  0.00  0.00    +0.000 HD
ENDBRANCH  19  22
ENDBRANCH  17  18
ENDBRANCH   4  17
TORSDOF 6
ENDMDL
MODEL 5
REMARK VINA RESULT:    -7.224      4.714      9.277
REMARK INTER + INTRA:         -10.535
REMARK INTER:                  -9.766
REMARK INTRA:                  -0.769
REMARK UNBOUND:                -0.777
REMARK  Name = 
REMARK  6 active torsions:
REMARK  status: ('A' for Active; 'I' for Inactive)
REMARK    1  A    between atoms: C_2  and  C_25
REMARK    2  A    between atoms: N_3  and  C_4
REMARK    3  A    between atoms: C_4  and  C_5
REMARK    4  A    between atoms: C_8  and  C_9
REMARK    5  A    between atoms: C_9  and  N_10
REMARK    6  A    between atoms: C_11  and  C_13
REMARK                            x       y       z     vdW  Elec       q    Type
REMARK                         _______ _______ _______ _____ _____    ______ ____
ROOT
ATOM      1  C   UNL     1      51.314   2.812  17.656  0.00  0.00    +0.000 A 
ATOM      2  C   UNL     1      50.665   3.959  18.101  0.00  0.00    +0.000 A 
ATOM      3  N   UNL     1      49.353   4.207  17.860  0.00  0.00    +0.000 NA
ATOM      4  C   UNL     1      48.690   3.255  17.153  0.00  0.00    +0.000 A 
ATOM      5  C   UNL     1      49.339   2.109  16.707  0.00  0.00    +0.000 A 
ATOM      6  N   UNL     1      50.648   1.856  16.955  0.00  0.00    +0.000 NA
ENDROOT
BRANCH   1   7
ATOM      7  C   UNL     1      52.781   2.598  17.926  0.00  0.00    +0.000 C 
BRANCH   7  10
ATOM      8  O   UNL     1      54.586   0.901  16.638  0.00  0.00    +0.000 OA
ATOM      9  C   UNL     1      54.009   0.474  17.633  0.00  0.00    +0.000 C 
ATOM     10  N   UNL     1      53.101   1.243  18.326  0.00  0.00    +0.000 N 
ATOM     11  H   UNL     1      52.715   0.876  19.187  0.00  0.00    +0.000 HD
BRANCH   9  12
ATOM     12  C   UNL     1      54.221  -0.854  18.171  0.00  0.00    +0.000 A 
ATOM     13  C   UNL     1      55.111  -1.841  17.792  0.00  0.00    +0.000 A 
ATOM     14  C   UNL     1      54.891  -2.943  18.650  0.00  0.00    +0.000 A 
ATOM     15  C   UNL     1      53.875  -2.569  19.498  0.00  0.00    +0.000 A 
ATOM     16  O   UNL     1      53.462  -1.303  19.220  0.00  0.00    +0.000 OA
ENDBRANCH   9  12
ENDBRANCH   7  10
ENDBRANCH   1   7
BRANCH   4  17
ATOM     17  C   UNL     1      47.237   3.487  16.840  0.00  0.00    +0.000 C 
BRANCH  17  18
ATOM     18  N   UNL     1      47.042   4.505  15.830  0.00  0.00    +0.000 N 
ATOM     19  C   UNL     1      47.074   4.214  14.492  0.00  0.00    +0.000 C 
ATOM     20  O   UNL     1      47.239   3.067  14.085  0.00  0.00    +0.000 OA
ATOM     21  H   UNL     1      47.145   5.468  16.139  0.00  0.00    +0.000 HD
BRANCH  19  22
ATOM     22  C   UNL     1      46.835   5.328  13.567  0.00  0.00    +0.000 A 
ATOM     23  C   UNL     1      47.870   6.205  13.267  0.00  0.00    +0.000 A 
ATOM     24  S   UNL     1      47.435   7.420  12.153  0.00  0.00    +0.000 S 
ATOM     25  C   UNL     1      45.835   6.849  12.071  0.00  0.00    +0.000 A 
ATOM     26  N   UNL     1      44.906   7.477  11.300  0.00  0.00    +0.000 NA
ATOM     27  C   UNL     1      43.724   6.962  11.366  0.00  0.00    +0.000 A 
ATOM     28  N   UNL     1      43.388   5.871  12.125  0.00  0.00    +0.000 N 
ATOM     29  C   UNL     1      44.304   5.171  12.874  0.00  0.00    +0.000 A 
ATOM     30  O   UNL     1      43.997   4.144  13.467  0.00  0.00    +0.000 OA
ATOM     31  C   UNL     1      45.643   5.731  12.863  0.00  0.00    +0.000 A 
ATOM     32  H   UNL     1      42.447   5.504  12.117  0.00  0.00    +0.000 HD
ENDBRANCH  19  22
ENDBRANCH  17  18
ENDBRANCH   4  17
TORSDOF 6
ENDMDL
MODEL 6
REMARK VINA RESULT:    -7.025      1.679      2.097
REMARK INTER + INTRA:         -10.266
REMARK INTER:                  -9.463
REMARK INTRA:                  -0.803
REMARK UNBOUND:                -0.777
REMARK  Name = 
REMARK  6 active torsions:
REMARK  status: ('A' for Active; 'I' for Inactive)
REMARK    1  A    between atoms: C_2  and  C_25
REMARK    2  A    between atoms: N_3  and  C_4
REMARK    3  A    between atoms: C_4  and  C_5
REMARK    4  A    between atoms: C_8  and  C_9
REMARK    5  A    between atoms: C_9  and  N_10
REMARK    6  A    between atoms: C_11  and  C_13
REMARK                            x       y       z     vdW  Elec       q    Type
REMARK                         _______ _______ _______ _____ _____    ______ ____
ROOT
ATOM      1  C   UNL     1      45.140   6.198  11.455  0.00  0.00    +0.000 A 
ATOM      2  C   UNL     1      44.892   7.558  11.607  0.00  0.00    +0.000 A 
ATOM      3  N   UNL     1      45.630   8.358  12.417  0.00  0.00    +0.000 NA
ATOM      4  C   UNL     1      46.648   7.751  13.081  0.00  0.00    +0.000 A 
ATOM      5  C   UNL     1      46.895   6.392  12.930  0.00  0.00    +0.000 A 
ATOM      6  N   UNL     1      46.164   5.592  12.113  0.00  0.00    +0.000 NA
ENDROOT
BRANCH   1   7
ATOM      7  C   UNL     1      44.271   5.348  10.564  0.00  0.00    +0.000 C 
BRANCH   7  10
ATOM      8  O   UNL     1      44.412   2.605  10.056  0.00  0.00    +0.000 OA
ATOM      9  C   UNL     1      45.012   3.360   9.297  0.00  0.00    +0.000 C 
ATOM     10  N   UNL     1      44.998   4.725   9.476  0.00  0.00    +0.000 N 
ATOM     11  H   UNL     1      45.438   5.308   8.776  0.00  0.00    +0.000 HD
BRANCH   9  12
ATOM     12  C   UNL     1      45.778   2.901   8.157  0.00  0.00    +0.000 A 
ATOM     13  C   UNL     1      46.420   1.697   7.936  0.00  0.00    +0.000 A 
ATOM     14  C   UNL     1      47.021   1.781   6.659  0.00  0.00    +0.000 A 
ATOM     15  C   UNL     1      46.718   3.033   6.177  0.00  0.00    +0.000 A 
ATOM     16  O   UNL     1      45.962   3.721   7.074  0.00  0.00    +0.000 OA
ENDBRANCH   9  12
ENDBRANCH   7  10
ENDBRANCH   1   7
BRANCH   4  17
ATOM     17  C   UNL     1      47.488   8.587  14.008  0.00  0.00    +0.000 C 
BRANCH  17  18
ATOM     18  N   UNL     1      48.619   7.858  14.541  0.00  0.00    +0.000 N 
ATOM     19  C   UNL     1      48.960   7.916  15.867  0.00  0.00    +0.000 C 
ATOM     20  O   UNL     1      48.301   8.567  16.674  0.00  0.00    +0.000 OA
ATOM     21  H   UNL     1      49.296   7.522  13.861  0.00  0.00    +0.000 HD
BRANCH  19  22
ATOM     22  C   UNL     1      50.111   7.110  16.289  0.00  0.00    +0.000 A 
ATOM     23  C   UNL     1      51.394   7.628  16.167  0.00  0.00    +0.000 A 
ATOM     24  S   UNL     1      52.613   6.579  16.734  0.00  0.00    +0.000 S 
ATOM     25  C   UNL     1      51.473   5.375  17.116  0.00  0.00    +0.000 A 
ATOM     26  N   UNL     1      51.867   4.176  17.624  0.00  0.00    +0.000 NA
ATOM     27  C   UNL     1      50.902   3.341  17.826  0.00  0.00    +0.000 A 
ATOM     28  N   UNL     1      49.580   3.600  17.575  0.00  0.00    +0.000 N 
ATOM     29  C   UNL     1      49.130   4.816  17.116  0.00  0.00    +0.000 A 
ATOM     30  O   UNL     1      47.935   5.052  16.991  0.00  0.00    +0.000 OA
ATOM     31  C   UNL     1      50.179   5.778  16.838  0.00  0.00    +0.000 A 
ATOM     32  H   UNL     1      48.870   2.910  17.774  0.00  0.00    +0.000 HD
ENDBRANCH  19  22
ENDBRANCH  17  18
ENDBRANCH   4  17
TORSDOF 6
ENDMDL
MODEL 7
REMARK VINA RESULT:    -6.971      3.435      4.412
REMARK INTER + INTRA:         -10.193
REMARK INTER:                  -9.233
REMARK INTRA:                  -0.960
REMARK UNBOUND:                -0.777
REMARK  Name = 
REMARK  6 active torsions:
REMARK  status: ('A' for Active; 'I' for Inactive)
REMARK    1  A    between atoms: C_2  and  C_25
REMARK    2  A    between atoms: N_3  and  C_4
REMARK    3  A    between atoms: C_4  and  C_5
REMARK    4  A    between atoms: C_8  and  C_9
REMARK    5  A    between atoms: C_9  and  N_10
REMARK    6  A    between atoms: C_11  and  C_13
REMARK                            x       y       z     vdW  Elec       q    Type
REMARK                         _______ _______ _______ _____ _____    ______ ____
ROOT
ATOM      1  C   UNL     1      44.812   4.980  11.927  0.00  0.00    +0.000 A 
ATOM      2  C   UNL     1      45.867   4.932  12.833  0.00  0.00    +0.000 A 
ATOM      3  N   UNL     1      46.478   6.044  13.313  0.00  0.00    +0.000 NA
ATOM      4  C   UNL     1      45.995   7.230  12.860  0.00  0.00    +0.000 A 
ATOM      5  C   UNL     1      44.942   7.277  11.954  0.00  0.00    +0.000 A 
ATOM      6  N   UNL     1      44.323   6.167  11.480  0.00  0.00    +0.000 NA
ENDROOT
BRANCH   1   7
ATOM      7  C   UNL     1      44.186   3.714  11.401  0.00  0.00    +0.000 C 
BRANCH   7  10
ATOM      8  O   UNL     1      44.224   4.044   8.628  0.00  0.00    +0.000 OA
ATOM      9  C   UNL     1      44.992   3.221   9.117  0.00  0.00    +0.000 C 
ATOM     10  N   UNL     1      45.036   2.994  10.474  0.00  0.00    +0.000 N 
ATOM     11  H   UNL     1      45.743   2.366  10.836  0.00  0.00    +0.000 HD
BRANCH   9  12
ATOM     12  C   UNL     1      45.912   2.424   8.333  0.00  0.00    +0.000 A 
ATOM     13  C   UNL     1      46.845   2.805   7.387  0.00  0.00    +0.000 A 
ATOM     14  C   UNL     1      47.470   1.623   6.928  0.00  0.00    +0.000 A 
ATOM     15  C   UNL     1      46.878   0.588   7.615  0.00  0.00    +0.000 A 
ATOM     16  O   UNL     1      45.934   1.060   8.472  0.00  0.00    +0.000 OA
ENDBRANCH   9  12
ENDBRANCH   7  10
ENDBRANCH   1   7
BRANCH   4  17
ATOM     17  C   UNL     1      46.649   8.494  13.347  0.00  0.00    +0.000 C 
BRANCH  17  18
ATOM     18  N   UNL     1      48.091   8.456  13.223  0.00  0.00    +0.000 N 
ATOM     19  C   UNL     1      48.856   9.590  13.306  0.00  0.00    +0.000 C 
ATOM     20  O   UNL     1      48.356  10.691  13.520  0.00  0.00    +0.000 OA
ATOM     21  H   UNL     1      48.483   7.612  12.814  0.00  0.00    +0.000 HD
BRANCH  19  22
ATOM     22  C   UNL     1      50.308   9.416  13.192  0.00  0.00    +0.000 A 
ATOM     23  C   UNL     1      51.152  10.121  14.040  0.00  0.00    +0.000 A 
ATOM     24  S   UNL     1      52.806   9.779  13.800  0.00  0.00    +0.000 S 
ATOM     25  C   UNL     1      52.455   8.715  12.519  0.00  0.00    +0.000 A 
ATOM     26  N   UNL     1      53.451   8.090  11.836  0.00  0.00    +0.000 NA
ATOM     27  C   UNL     1      53.044   7.345  10.862  0.00  0.00    +0.000 A 
ATOM     28  N   UNL     1      51.730   7.162  10.517  0.00  0.00    +0.000 N 
ATOM     29  C   UNL     1      50.688   7.727  11.214  0.00  0.00    +0.000 A 
ATOM     30  O   UNL     1      49.521   7.470  10.942  0.00  0.00    +0.000 OA
ATOM     31  C   UNL     1      51.093   8.603  12.296  0.00  0.00    +0.000 A 
ATOM     32  H   UNL     1      51.475   6.549   9.756  0.00  0.00    +0.000 HD
ENDBRANCH  19  22
ENDBRANCH  17  18
ENDBRANCH   4  17
TORSDOF 6
ENDMDL
MODEL 8
REMARK VINA RESULT:    -6.944      3.634      8.290
REMARK INTER + INTRA:         -10.157
REMARK INTER:                  -9.316
REMARK INTRA:                  -0.841
REMARK UNBOUND:                -0.777
REMARK  Name = 
REMARK  6 active torsions:
REMARK  status: ('A' for Active; 'I' for Inactive)
REMARK    1  A    between atoms: C_2  and  C_25
REMARK    2  A    between atoms: N_3  and  C_4
REMARK    3  A    between atoms: C_4  and  C_5
REMARK    4  A    between atoms: C_8  and  C_9
REMARK    5  A    between atoms: C_9  and  N_10
REMARK    6  A    between atoms: C_11  and  C_13
REMARK                            x       y       z     vdW  Elec       q    Type
REMARK                         _______ _______ _______ _____ _____    ______ ____
ROOT
ATOM      1  C   UNL     1      50.040   6.879  16.013  0.00  0.00    +0.000 A 
ATOM      2  C   UNL     1      48.782   6.420  15.635  0.00  0.00    +0.000 A 
ATOM      3  N   UNL     1      48.223   6.703  14.432  0.00  0.00    +0.000 NA
ATOM      4  C   UNL     1      48.973   7.466  13.595  0.00  0.00    +0.000 A 
ATOM      5  C   UNL     1      50.229   7.925  13.972  0.00  0.00    +0.000 A 
ATOM      6  N   UNL     1      50.793   7.635  15.172  0.00  0.00    +0.000 NA
ENDROOT
BRANCH   1   7
ATOM      7  C   UNL     1      50.603   6.561  17.374  0.00  0.00    +0.000 C 
BRANCH   7  10
ATOM      8  O   UNL     1      49.452   4.126  18.114  0.00  0.00    +0.000 OA
ATOM      9  C   UNL     1      50.639   4.128  17.805  0.00  0.00    +0.000 C 
ATOM     10  N   UNL     1      51.286   5.284  17.430  0.00  0.00    +0.000 N 
ATOM     11  H   UNL     1      52.242   5.218  17.104  0.00  0.00    +0.000 HD
BRANCH   9  12
ATOM     12  C   UNL     1      51.464   2.937  17.800  0.00  0.00    +0.000 A 
ATOM     13  C   UNL     1      51.179   1.653  17.377  0.00  0.00    +0.000 A 
ATOM     14  C   UNL     1      52.340   0.879  17.603  0.00  0.00    +0.000 A 
ATOM     15  C   UNL     1      53.265   1.733  18.158  0.00  0.00    +0.000 A 
ATOM     16  O   UNL     1      52.747   2.985  18.280  0.00  0.00    +0.000 OA
ENDBRANCH   9  12
ENDBRANCH   7  10
ENDBRANCH   1   7
BRANCH   4  17
ATOM     17  C   UNL     1      48.394   7.825  12.253  0.00  0.00    +0.000 C 
BRANCH  17  18
ATOM     18  N   UNL     1      47.631   6.742  11.670  0.00  0.00    +0.000 N 
ATOM     19  C   UNL     1      46.283   6.842  11.448  0.00  0.00    +0.000 C 
ATOM     20  O   UNL     1      45.661   7.870  11.705  0.00  0.00    +0.000 OA
ATOM     21  H   UNL     1      48.074   5.827  11.679  0.00  0.00    +0.000 HD
BRANCH  19  22
ATOM     22  C   UNL     1      45.628   5.686  10.826  0.00  0.00    +0.000 A 
ATOM     23  C   UNL     1      45.713   5.506   9.451  0.00  0.00    +0.000 A 
ATOM     24  S   UNL     1      44.928   4.098   8.895  0.00  0.00    +0.000 S 
ATOM     25  C   UNL     1      44.404   3.705  10.465  0.00  0.00    +0.000 A 
ATOM     26  N   UNL     1      43.637   2.604  10.692  0.00  0.00    +0.000 NA
ATOM     27  C   UNL     1      43.276   2.451  11.922  0.00  0.00    +0.000 A 
ATOM     28  N   UNL     1      43.620   3.294  12.947  0.00  0.00    +0.000 N 
ATOM     29  C   UNL     1      44.439   4.384  12.776  0.00  0.00    +0.000 A 
ATOM     30  O   UNL     1      44.808   5.065  13.725  0.00  0.00    +0.000 OA
ATOM     31  C   UNL     1      44.844   4.622  11.404  0.00  0.00    +0.000 A 
ATOM     32  H   UNL     1      43.321   3.106  13.893  0.00  0.00    +0.000 HD
ENDBRANCH  19  22
ENDBRANCH  17  18
ENDBRANCH   4  17
TORSDOF 6
ENDMDL
MODEL 9
REMARK VINA RESULT:    -6.830      2.599      4.213
REMARK INTER + INTRA:         -10.002
REMARK INTER:                  -9.022
REMARK INTRA:                  -0.981
REMARK UNBOUND:                -0.777
REMARK  Name = 
REMARK  6 active torsions:
REMARK  status: ('A' for Active; 'I' for Inactive)
REMARK    1  A    between atoms: C_2  and  C_25
REMARK    2  A    between atoms: N_3  and  C_4
REMARK    3  A    between atoms: C_4  and  C_5
REMARK    4  A    between atoms: C_8  and  C_9
REMARK    5  A    between atoms: C_9  and  N_10
REMARK    6  A    between atoms: C_11  and  C_13
REMARK                            x       y       z     vdW  Elec       q    Type
REMARK                         _______ _______ _______ _____ _____    ______ ____
ROOT
ATOM      1  C   UNL     1      45.051   4.247  11.764  0.00  0.00    +0.000 A 
ATOM      2  C   UNL     1      45.302   5.597  11.985  0.00  0.00    +0.000 A 
ATOM      3  N   UNL     1      46.073   6.049  13.006  0.00  0.00    +0.000 NA
ATOM      4  C   UNL     1      46.604   5.095  13.814  0.00  0.00    +0.000 A 
ATOM      5  C   UNL     1      46.353   3.746  13.595  0.00  0.00    +0.000 A 
ATOM      6  N   UNL     1      45.589   3.292  12.569  0.00  0.00    +0.000 NA
ENDROOT
BRANCH   1   7
ATOM      7  C   UNL     1      44.163   3.800  10.633  0.00  0.00    +0.000 C 
BRANCH   7  10
ATOM      8  O   UNL     1      45.580   5.045   8.574  0.00  0.00    +0.000 OA
ATOM      9  C   UNL     1      45.557   3.818   8.593  0.00  0.00    +0.000 C 
ATOM     10  N   UNL     1      44.880   3.124   9.570  0.00  0.00    +0.000 N 
ATOM     11  H   UNL     1      44.961   2.115   9.590  0.00  0.00    +0.000 HD
BRANCH   9  12
ATOM     12  C   UNL     1      46.229   2.992   7.610  0.00  0.00    +0.000 A 
ATOM     13  C   UNL     1      46.557   3.255   6.294  0.00  0.00    +0.000 A 
ATOM     14  C   UNL     1      47.199   2.099   5.792  0.00  0.00    +0.000 A 
ATOM     15  C   UNL     1      47.220   1.195   6.829  0.00  0.00    +0.000 A 
ATOM     16  O   UNL     1      46.637   1.725   7.938  0.00  0.00    +0.000 OA
ENDBRANCH   9  12
ENDBRANCH   7  10
ENDBRANCH   1   7
BRANCH   4  17
ATOM     17  C   UNL     1      47.453   5.541  14.974  0.00  0.00    +0.000 C 
BRANCH  17  18
ATOM     18  N   UNL     1      48.672   6.196  14.550  0.00  0.00    +0.000 N 
ATOM     19  C   UNL     1      49.284   7.153  15.315  0.00  0.00    +0.000 C 
ATOM     20  O   UNL     1      48.843   7.481  16.414  0.00  0.00    +0.000 OA
ATOM     21  H   UNL     1      48.905   6.113  13.564  0.00  0.00    +0.000 HD
BRANCH  19  22
ATOM     22  C   UNL     1      50.529   7.723  14.788  0.00  0.00    +0.000 A 
ATOM     23  C   UNL     1      51.671   7.725  15.578  0.00  0.00    +0.000 A 
ATOM     24  S   UNL     1      53.038   8.391  14.804  0.00  0.00    +0.000 S 
ATOM     25  C   UNL     1      52.139   8.746  13.404  0.00  0.00    +0.000 A 
ATOM     26  N   UNL     1      52.716   9.368  12.341  0.00  0.00    +0.000 NA
ATOM     27  C   UNL     1      51.908   9.615  11.364  0.00  0.00    +0.000 A 
ATOM     28  N   UNL     1      50.577   9.288  11.351  0.00  0.00    +0.000 N 
ATOM     29  C   UNL     1      49.964   8.608  12.378  0.00  0.00    +0.000 A 
ATOM     30  O   UNL     1      48.797   8.245  12.299  0.00  0.00    +0.000 OA
ATOM     31  C   UNL     1      50.821   8.339  13.517  0.00  0.00    +0.000 A 
ATOM     32  H   UNL     1      50.002   9.490  10.547  0.00  0.00    +0.000 HD
ENDBRANCH  19  22
ENDBRANCH  17  18
ENDBRANCH   4  17
TORSDOF 6
ENDMDL
