MODEL 1
REMARK VINA RESULT:    -7.935      0.000      0.000
REMARK INTER + INTRA:         -12.548
REMARK INTER:                 -11.182
REMARK INTRA:                  -1.366
REMARK UNBOUND:                -1.366
REMARK  Name = 
REMARK  8 active torsions:
REMARK  status: ('A' for Active; 'I' for Inactive)
REMARK    1  A    between atoms: C_1  and  O_2
REMARK    2  A    between atoms: O_2  and  C_3
REMARK    3  A    between atoms: C_5  and  C_6
REMARK    4  A    between atoms: C_6  and  N_7
REMARK    5  A    between atoms: C_8  and  C_10
REMARK    6  A    between atoms: C_22  and  C_23
REMARK    7  A    between atoms: C_23  and  N_24
REMARK    8  A    between atoms: C_25  and  C_27
REMARK                            x       y       z     vdW  Elec       q    Type
REMARK                         _______ _______ _______ _____ _____    ______ ____
ROOT
ATOM      1  C   UNL     1      45.062   5.763  12.170  0.00  0.00    +0.000 A 
ATOM      2  C   UNL     1      45.883   5.581  13.288  0.00  0.00    +0.000 A 
ATOM      3  C   UNL     1      46.285   4.298  13.692  0.00  0.00    +0.000 A 
ATOM      4  C   UNL     1      45.874   3.191  12.945  0.00  0.00    +0.000 A 
ATOM      5  C   UNL     1      45.065   3.363  11.823  0.00  0.00    +0.000 A 
ATOM      6  C   UNL     1      44.643   4.645  11.426  0.00  0.00    +0.000 A 
ENDROOT
BRANCH   1   8
ATOM      7  C   UNL     1      45.404   8.116  12.030  0.00  0.00    +0.000 C 
ATOM      8  O   UNL     1      44.591   6.981  11.752  0.00  0.00    +0.000 OA
ENDBRANCH   1   8
BRANCH   3   9
ATOM      9  C   UNL     1      47.176   4.132  14.891  0.00  0.00    +0.000 C 
BRANCH   9  10
ATOM     10  N   UNL     1      47.475   5.405  15.504  0.00  0.00    +0.000 N 
ATOM     11  C   UNL     1      48.537   5.596  16.348  0.00  0.00    +0.000 C 
ATOM     12  O   UNL     1      49.309   4.688  16.645  0.00  0.00    +0.000 OA
ATOM     13  H   UNL     1      46.749   6.110  15.447  0.00  0.00    +0.000 HD
BRANCH  11  14
ATOM     14  C   UNL     1      48.756   6.971  16.823  0.00  0.00    +0.000 A 
ATOM     15  C   UNL     1      48.885   7.210  18.183  0.00  0.00    +0.000 A 
ATOM     16  S   UNL     1      49.183   8.845  18.565  0.00  0.00    +0.000 S 
ATOM     17  C   UNL     1      49.102   9.298  16.929  0.00  0.00    +0.000 A 
ATOM     18  N   UNL     1      49.252  10.600  16.557  0.00  0.00    +0.000 NA
ATOM     19  C   UNL     1      49.137  10.810  15.289  0.00  0.00    +0.000 A 
ATOM     20  N   UNL     1      48.894   9.835  14.356  0.00  0.00    +0.000 N 
ATOM     21  C   UNL     1      48.795   8.502  14.677  0.00  0.00    +0.000 A 
ATOM     22  O   UNL     1      48.681   7.646  13.805  0.00  0.00    +0.000 OA
ATOM     23  C   UNL     1      48.879   8.215  16.097  0.00  0.00    +0.000 A 
ATOM     24  H   UNL     1      48.838  10.062  13.375  0.00  0.00    +0.000 HD
ENDBRANCH  11  14
ENDBRANCH   9  10
ENDBRANCH   3   9
BRANCH   6  25
ATOM     25  C   UNL     1      43.811   4.779  10.174  0.00  0.00    +0.000 C 
BRANCH  25  26
ATOM     26  N   UNL     1      44.287   3.891   9.135  0.00  0.00    +0.000 N 
ATOM     27  C   UNL     1      45.397   4.164   8.371  0.00  0.00    +0.000 C 
ATOM     28  O   UNL     1      46.062   5.189   8.486  0.00  0.00    +0.000 OA
ATOM     29  H   UNL     1      43.850   2.982   9.027  0.00  0.00    +0.000 HD
BRANCH  27  30
ATOM     30  C   UNL     1      45.767   3.031   7.393  0.00  0.00    +0.000 C 
ATOM     31  C   UNL     1      46.182   1.757   8.119  0.00  0.00    +0.000 C 
ATOM     32  C   UNL     1      47.259   1.188   7.230  0.00  0.00    +0.000 C 
ATOM     33  C   UNL     1      47.903   2.438   6.680  0.00  0.00    +0.000 C 
ATOM     34  O   UNL     1      46.848   3.391   6.513  0.00  0.00    +0.000 OA
ENDBRANCH  27  30
ENDBRANCH  25  26
ENDBRANCH   6  25
TORSDOF 7
ENDMDL
MODEL 2
REMARK VINA RESULT:    -7.811      1.429      2.193
REMARK INTER + INTRA:         -12.374
REMARK INTER:                 -11.356
REMARK INTRA:                  -1.017
REMARK UNBOUND:                -1.366
REMARK  Name = 
REMARK  8 active torsions:
REMARK  status: ('A' for Active; 'I' for Inactive)
REMARK    1  A    between atoms: C_1  and  O_2
REMARK    2  A    between atoms: O_2  and  C_3
REMARK    3  A    between atoms: C_5  and  C_6
REMARK    4  A    between atoms: C_6  and  N_7
REMARK    5  A    between atoms: C_8  and  C_10
REMARK    6  A    between atoms: C_22  and  C_23
REMARK    7  A    between atoms: C_23  and  N_24
REMARK    8  A    between atoms: C_25  and  C_27
REMARK                            x       y       z     vdW  Elec       q    Type
REMARK                         _______ _______ _______ _____ _____    ______ ____
ROOT
ATOM      1  C   UNL     1      45.040   5.789  12.180  0.00  0.00    +0.000 A 
ATOM      2  C   UNL     1      45.881   5.637  13.287  0.00  0.00    +0.000 A 
ATOM      3  C   UNL     1      46.323   4.368  13.694  0.00  0.00    +0.000 A 
ATOM      4  C   UNL     1      45.931   3.245  12.961  0.00  0.00    +0.000 A 
ATOM      5  C   UNL     1      45.101   3.387  11.850  0.00  0.00    +0.000 A 
ATOM      6  C   UNL     1      44.641   4.655  11.450  0.00  0.00    +0.000 A 
ENDROOT
BRANCH   1   8
ATOM      7  C   UNL     1      45.362   8.136  11.927  0.00  0.00    +0.000 C 
ATOM      8  O   UNL     1      44.532   6.991  11.760  0.00  0.00    +0.000 OA
ENDBRANCH   1   8
BRANCH   3   9
ATOM      9  C   UNL     1      47.235   4.234  14.881  0.00  0.00    +0.000 C 
BRANCH   9  10
ATOM     10  N   UNL     1      47.498   5.517  15.490  0.00  0.00    +0.000 N 
ATOM     11  C   UNL     1      48.542   5.736  16.350  0.00  0.00    +0.000 C 
ATOM     12  O   UNL     1      49.327   4.847  16.666  0.00  0.00    +0.000 OA
ATOM     13  H   UNL     1      46.758   6.207  15.416  0.00  0.00    +0.000 HD
BRANCH  11  14
ATOM     14  C   UNL     1      48.724   7.118  16.818  0.00  0.00    +0.000 A 
ATOM     15  C   UNL     1      49.358   8.039  15.997  0.00  0.00    +0.000 A 
ATOM     16  S   UNL     1      49.446   9.606  16.665  0.00  0.00    +0.000 S 
ATOM     17  C   UNL     1      48.683   9.097  18.096  0.00  0.00    +0.000 A 
ATOM     18  N   UNL     1      48.468   9.969  19.120  0.00  0.00    +0.000 NA
ATOM     19  C   UNL     1      47.909   9.446  20.158  0.00  0.00    +0.000 A 
ATOM     20  N   UNL     1      47.537   8.130  20.265  0.00  0.00    +0.000 N 
ATOM     21  C   UNL     1      47.680   7.228  19.237  0.00  0.00    +0.000 A 
ATOM     22  O   UNL     1      47.241   6.086  19.329  0.00  0.00    +0.000 OA
ATOM     23  C   UNL     1      48.339   7.757  18.057  0.00  0.00    +0.000 A 
ATOM     24  H   UNL     1      47.083   7.788  21.097  0.00  0.00    +0.000 HD
ENDBRANCH  11  14
ENDBRANCH   9  10
ENDBRANCH   3   9
BRANCH   6  25
ATOM     25  C   UNL     1      43.787   4.758  10.209  0.00  0.00    +0.000 C 
BRANCH  25  26
ATOM     26  N   UNL     1      44.253   3.853   9.181  0.00  0.00    +0.000 N 
ATOM     27  C   UNL     1      45.349   4.119   8.393  0.00  0.00    +0.000 C 
ATOM     28  O   UNL     1      46.009   5.150   8.478  0.00  0.00    +0.000 OA
ATOM     29  H   UNL     1      43.821   2.939   9.097  0.00  0.00    +0.000 HD
BRANCH  27  30
ATOM     30  C   UNL     1      45.712   2.969   7.432  0.00  0.00    +0.000 C 
ATOM     31  C   UNL     1      46.117   1.702   8.177  0.00  0.00    +0.000 C 
ATOM     32  C   UNL     1      47.191   1.114   7.297  0.00  0.00    +0.000 C 
ATOM     33  C   UNL     1      47.844   2.351   6.730  0.00  0.00    +0.000 C 
ATOM     34  O   UNL     1      46.796   3.309   6.548  0.00  0.00    +0.000 OA
ENDBRANCH  27  30
ENDBRANCH  25  26
ENDBRANCH   6  25
TORSDOF 7
ENDMDL
MODEL 3
REMARK VINA RESULT:    -7.749      1.856      3.482
REMARK INTER + INTRA:         -12.285
REMARK INTER:                 -10.811
REMARK INTRA:                  -1.475
REMARK UNBOUND:                -1.366
REMARK  Name = 
REMARK  8 active torsions:
REMARK  status: ('A' for Active; 'I' for Inactive)
REMARK    1  A    between atoms: C_1  and  O_2
REMARK    2  A    between atoms: O_2  and  C_3
REMARK    3  A    between atoms: C_5  and  C_6
REMARK    4  A    between atoms: C_6  and  N_7
REMARK    5  A    between atoms: C_8  and  C_10
REMARK    6  A    between atoms: C_22  and  C_23
REMARK    7  A    between atoms: C_23  and  N_24
REMARK    8  A    between atoms: C_25  and  C_27
REMARK                            x       y       z     vdW  Elec       q    Type
REMARK                         _______ _______ _______ _____ _____    ______ ____
ROOT
ATOM      1  C   UNL     1      45.763   5.610  12.583  0.00  0.00    +0.000 A 
ATOM      2  C   UNL     1      46.658   6.446  13.259  0.00  0.00    +0.000 A 
ATOM      3  C   UNL     1      46.640   7.837  13.065  0.00  0.00    +0.000 A 
ATOM      4  C   UNL     1      45.693   8.389  12.199  0.00  0.00    +0.000 A 
ATOM      5  C   UNL     1      44.789   7.565  11.529  0.00  0.00    +0.000 A 
ATOM      6  C   UNL     1      44.817   6.170  11.706  0.00  0.00    +0.000 A 
ENDROOT
BRANCH   1   8
ATOM      7  C   UNL     1      46.754   3.658  13.522  0.00  0.00    +0.000 C 
ATOM      8  O   UNL     1      45.761   4.243  12.687  0.00  0.00    +0.000 OA
ENDBRANCH   1   8
BRANCH   3   9
ATOM      9  C   UNL     1      47.606   8.713  13.812  0.00  0.00    +0.000 C 
BRANCH   9  10
ATOM     10  N   UNL     1      47.846   8.215  15.146  0.00  0.00    +0.000 N 
ATOM     11  C   UNL     1      48.939   8.570  15.891  0.00  0.00    +0.000 C 
ATOM     12  O   UNL     1      49.798   9.339  15.467  0.00  0.00    +0.000 OA
ATOM     13  H   UNL     1      47.275   7.429  15.438  0.00  0.00    +0.000 HD
BRANCH  11  14
ATOM     14  C   UNL     1      48.995   8.043  17.263  0.00  0.00    +0.000 A 
ATOM     15  C   UNL     1      49.105   8.924  18.328  0.00  0.00    +0.000 A 
ATOM     16  S   UNL     1      49.108   8.159  19.852  0.00  0.00    +0.000 S 
ATOM     17  C   UNL     1      49.009   6.619  19.139  0.00  0.00    +0.000 A 
ATOM     18  N   UNL     1      48.995   5.494  19.907  0.00  0.00    +0.000 NA
ATOM     19  C   UNL     1      48.950   4.392  19.239  0.00  0.00    +0.000 A 
ATOM     20  N   UNL     1      48.907   4.310  17.870  0.00  0.00    +0.000 N 
ATOM     21  C   UNL     1      48.859   5.418  17.058  0.00  0.00    +0.000 A 
ATOM     22  O   UNL     1      48.716   5.308  15.843  0.00  0.00    +0.000 OA
ATOM     23  C   UNL     1      48.947   6.686  17.759  0.00  0.00    +0.000 A 
ATOM     24  H   UNL     1      48.849   3.416  17.408  0.00  0.00    +0.000 HD
ENDBRANCH  11  14
ENDBRANCH   9  10
ENDBRANCH   3   9
BRANCH   6  25
ATOM     25  C   UNL     1      43.783   5.329  10.996  0.00  0.00    +0.000 C 
BRANCH  25  26
ATOM     26  N   UNL     1      44.343   4.697   9.822  0.00  0.00    +0.000 N 
ATOM     27  C   UNL     1      44.298   3.339   9.610  0.00  0.00    +0.000 C 
ATOM     28  O   UNL     1      43.802   2.547  10.406  0.00  0.00    +0.000 OA
ATOM     29  H   UNL     1      44.697   5.281   9.070  0.00  0.00    +0.000 HD
BRANCH  27  30
ATOM     30  C   UNL     1      44.874   2.906   8.247  0.00  0.00    +0.000 C 
ATOM     31  C   UNL     1      45.971   1.858   8.392  0.00  0.00    +0.000 C 
ATOM     32  C   UNL     1      46.932   2.209   7.285  0.00  0.00    +0.000 C 
ATOM     33  C   UNL     1      46.805   3.712   7.224  0.00  0.00    +0.000 C 
ATOM     34  O   UNL     1      45.433   4.009   7.509  0.00  0.00    +0.000 OA
ENDBRANCH  27  30
ENDBRANCH  25  26
ENDBRANCH   6  25
TORSDOF 7
ENDMDL
MODEL 4
REMARK VINA RESULT:    -7.691      1.918      3.420
REMARK INTER + INTRA:         -12.204
REMARK INTER:                 -11.045
REMARK INTRA:                  -1.159
REMARK UNBOUND:                -1.366
REMARK  Name = 
REMARK  8 active torsions:
REMARK  status: ('A' for Active; 'I' for Inactive)
REMARK    1  A    between atoms: C_1  and  O_2
REMARK    2  A    between atoms: O_2  and  C_3
REMARK    3  A    between atoms: C_5  and  C_6
REMARK    4  A    between atoms: C_6  and  N_7
REMARK    5  A    between atoms: C_8  and  C_10
REMARK    6  A    between atoms: C_22  and  C_23
REMARK    7  A    between atoms: C_23  and  N_24
REMARK    8  A    between atoms: C_25  and  C_27
REMARK                            x       y       z     vdW  Elec       q    Type
REMARK                         _______ _______ _______ _____ _____    ______ ____
ROOT
ATOM      1  C   UNL     1      44.532   7.582  11.576  0.00  0.00    +0.000 A 
ATOM      2  C   UNL     1      45.549   8.244  12.271  0.00  0.00    +0.000 A 
ATOM      3  C   UNL     1      46.606   7.534  12.864  0.00  0.00    +0.000 A 
ATOM      4  C   UNL     1      46.647   6.144  12.731  0.00  0.00    +0.000 A 
ATOM      5  C   UNL     1      45.644   5.475  12.031  0.00  0.00    +0.000 A 
ATOM      6  C   UNL     1      44.574   6.182  11.453  0.00  0.00    +0.000 A 
ENDROOT
BRANCH   1   8
ATOM      7  C   UNL     1      43.564   9.607  10.777  0.00  0.00    +0.000 C 
ATOM      8  O   UNL     1      43.448   8.209  11.019  0.00  0.00    +0.000 OA
ENDBRANCH   1   8
BRANCH   3   9
ATOM      9  C   UNL     1      47.691   8.272  13.596  0.00  0.00    +0.000 C 
BRANCH   9  10
ATOM     10  N   UNL     1      48.049   7.599  14.823  0.00  0.00    +0.000 N 
ATOM     11  C   UNL     1      49.326   7.196  15.109  0.00  0.00    +0.000 C 
ATOM     12  O   UNL     1      50.260   7.378  14.332  0.00  0.00    +0.000 OA
ATOM     13  H   UNL     1      47.278   7.253  15.383  0.00  0.00    +0.000 HD
BRANCH  11  14
ATOM     14  C   UNL     1      49.542   6.601  16.437  0.00  0.00    +0.000 A 
ATOM     15  C   UNL     1      50.374   7.240  17.344  0.00  0.00    +0.000 A 
ATOM     16  S   UNL     1      50.480   6.449  18.851  0.00  0.00    +0.000 S 
ATOM     17  C   UNL     1      49.455   5.199  18.327  0.00  0.00    +0.000 A 
ATOM     18  N   UNL     1      49.148   4.158  19.151  0.00  0.00    +0.000 NA
ATOM     19  C   UNL     1      48.387   3.263  18.618  0.00  0.00    +0.000 A 
ATOM     20  N   UNL     1      47.896   3.317  17.339  0.00  0.00    +0.000 N 
ATOM     21  C   UNL     1      48.130   4.375  16.493  0.00  0.00    +0.000 A 
ATOM     22  O   UNL     1      47.590   4.440  15.393  0.00  0.00    +0.000 OA
ATOM     23  C   UNL     1      49.014   5.393  17.031  0.00  0.00    +0.000 A 
ATOM     24  H   UNL     1      47.285   2.595  16.989  0.00  0.00    +0.000 HD
ENDBRANCH  11  14
ENDBRANCH   9  10
ENDBRANCH   3   9
BRANCH   6  25
ATOM     25  C   UNL     1      43.543   5.414  10.661  0.00  0.00    +0.000 C 
BRANCH  25  26
ATOM     26  N   UNL     1      44.149   4.734   9.538  0.00  0.00    +0.000 N 
ATOM     27  C   UNL     1      44.362   3.375   9.512  0.00  0.00    +0.000 C 
ATOM     28  O   UNL     1      44.078   2.629  10.445  0.00  0.00    +0.000 OA
ATOM     29  H   UNL     1      44.338   5.257   8.689  0.00  0.00    +0.000 HD
BRANCH  27  30
ATOM     30  C   UNL     1      44.934   2.864   8.175  0.00  0.00    +0.000 C 
ATOM     31  C   UNL     1      45.952   1.747   8.374  0.00  0.00    +0.000 C 
ATOM     32  C   UNL     1      46.958   1.998   7.279  0.00  0.00    +0.000 C 
ATOM     33  C   UNL     1      46.937   3.504   7.174  0.00  0.00    +0.000 C 
ATOM     34  O   UNL     1      45.584   3.904   7.419  0.00  0.00    +0.000 OA
ENDBRANCH  27  30
ENDBRANCH  25  26
ENDBRANCH   6  25
TORSDOF 7
ENDMDL
MODEL 5
REMARK VINA RESULT:    -7.363      2.089      2.637
REMARK INTER + INTRA:         -11.741
REMARK INTER:                 -10.616
REMARK INTRA:                  -1.126
REMARK UNBOUND:                -1.366
REMARK  Name = 
REMARK  8 active torsions:
REMARK  status: ('A' for Active; 'I' for Inactive)
REMARK    1  A    between atoms: C_1  and  O_2
REMARK    2  A    between atoms: O_2  and  C_3
REMARK    3  A    between atoms: C_5  and  C_6
REMARK    4  A    between atoms: C_6  and  N_7
REMARK    5  A    between atoms: C_8  and  C_10
REMARK    6  A    between atoms: C_22  and  C_23
REMARK    7  A    between atoms: C_23  and  N_24
REMARK    8  A    between atoms: C_25  and  C_27
REMARK                            x       y       z     vdW  Elec       q    Type
REMARK                         _______ _______ _______ _____ _____    ______ ____
ROOT
ATOM      1  C   UNL     1      44.998   5.392  12.315  0.00  0.00    +0.000 A 
ATOM      2  C   UNL     1      46.046   6.039  12.977  0.00  0.00    +0.000 A 
ATOM      3  C   UNL     1      47.049   5.310  13.637  0.00  0.00    +0.000 A 
ATOM      4  C   UNL     1      47.004   3.914  13.607  0.00  0.00    +0.000 A 
ATOM      5  C   UNL     1      45.969   3.259  12.941  0.00  0.00    +0.000 A 
ATOM      6  C   UNL     1      44.953   3.986  12.295  0.00  0.00    +0.000 A 
ENDROOT
BRANCH   1   8
ATOM      7  C   UNL     1      44.159   7.417  11.382  0.00  0.00    +0.000 C 
ATOM      8  O   UNL     1      43.962   6.042  11.696  0.00  0.00    +0.000 OA
ENDBRANCH   1   8
BRANCH   3   9
ATOM      9  C   UNL     1      48.169   6.031  14.332  0.00  0.00    +0.000 C 
BRANCH   9  10
ATOM     10  N   UNL     1      47.970   6.060  15.762  0.00  0.00    +0.000 N 
ATOM     11  C   UNL     1      48.999   5.979  16.662  0.00  0.00    +0.000 C 
ATOM     12  O   UNL     1      50.171   5.870  16.309  0.00  0.00    +0.000 OA
ATOM     13  H   UNL     1      47.015   5.939  16.082  0.00  0.00    +0.000 HD
BRANCH  11  14
ATOM     14  C   UNL     1      48.639   6.108  18.082  0.00  0.00    +0.000 A 
ATOM     15  C   UNL     1      48.759   5.008  18.919  0.00  0.00    +0.000 A 
ATOM     16  S   UNL     1      48.349   5.336  20.542  0.00  0.00    +0.000 S 
ATOM     17  C   UNL     1      47.950   6.946  20.173  0.00  0.00    +0.000 A 
ATOM     18  N   UNL     1      47.492   7.790  21.139  0.00  0.00    +0.000 NA
ATOM     19  C   UNL     1      47.197   8.973  20.718  0.00  0.00    +0.000 A 
ATOM     20  N   UNL     1      47.327   9.394  19.419  0.00  0.00    +0.000 N 
ATOM     21  C   UNL     1      47.840   8.597  18.424  0.00  0.00    +0.000 A 
ATOM     22  O   UNL     1      48.039   9.039  17.296  0.00  0.00    +0.000 OA
ATOM     23  C   UNL     1      48.153   7.241  18.837  0.00  0.00    +0.000 A 
ATOM     24  H   UNL     1      47.100  10.342  19.159  0.00  0.00    +0.000 HD
ENDBRANCH  11  14
ENDBRANCH   9  10
ENDBRANCH   3   9
BRANCH   6  25
ATOM     25  C   UNL     1      43.885   3.227  11.544  0.00  0.00    +0.000 C 
BRANCH  25  26
ATOM     26  N   UNL     1      44.392   2.720  10.288  0.00  0.00    +0.000 N 
ATOM     27  C   UNL     1      44.385   3.458   9.127  0.00  0.00    +0.000 C 
ATOM     28  O   UNL     1      43.929   4.594   9.050  0.00  0.00    +0.000 OA
ATOM     29  H   UNL     1      44.866   1.823  10.275  0.00  0.00    +0.000 HD
BRANCH  27  30
ATOM     30  C   UNL     1      45.062   2.745   7.939  0.00  0.00    +0.000 C 
ATOM     31  C   UNL     1      46.020   1.650   8.395  0.00  0.00    +0.000 C 
ATOM     32  C   UNL     1      47.131   1.719   7.378  0.00  0.00    +0.000 C 
ATOM     33  C   UNL     1      47.169   3.193   7.054  0.00  0.00    +0.000 C 
ATOM     34  O   UNL     1      45.813   3.649   7.107  0.00  0.00    +0.000 OA
ENDBRANCH  27  30
ENDBRANCH  25  26
ENDBRANCH   6  25
TORSDOF 7
ENDMDL
MODEL 6
REMARK VINA RESULT:    -7.346      2.287      3.462
REMARK INTER + INTRA:         -11.719
REMARK INTER:                 -10.391
REMARK INTRA:                  -1.328
REMARK UNBOUND:                -1.366
REMARK  Name = 
REMARK  8 active torsions:
REMARK  status: ('A' for Active; 'I' for Inactive)
REMARK    1  A    between atoms: C_1  and  O_2
REMARK    2  A    between atoms: O_2  and  C_3
REMARK    3  A    between atoms: C_5  and  C_6
REMARK    4  A    between atoms: C_6  and  N_7
REMARK    5  A    between atoms: C_8  and  C_10
REMARK    6  A    between atoms: C_22  and  C_23
REMARK    7  A    between atoms: C_23  and  N_24
REMARK    8  A    between atoms: C_25  and  C_27
REMARK                            x       y       z     vdW  Elec       q    Type
REMARK                         _______ _______ _______ _____ _____    ______ ____
ROOT
ATOM      1  C   UNL     1      44.988   5.830  12.732  0.00  0.00    +0.000 A 
ATOM      2  C   UNL     1      45.540   7.094  12.960  0.00  0.00    +0.000 A 
ATOM      3  C   UNL     1      46.858   7.239  13.421  0.00  0.00    +0.000 A 
ATOM      4  C   UNL     1      47.634   6.096  13.630  0.00  0.00    +0.000 A 
ATOM      5  C   UNL     1      47.096   4.831  13.395  0.00  0.00    +0.000 A 
ATOM      6  C   UNL     1      45.770   4.681  12.952  0.00  0.00    +0.000 A 
ENDROOT
BRANCH   1   8
ATOM      7  C   UNL     1      43.212   6.415  11.256  0.00  0.00    +0.000 C 
ATOM      8  O   UNL     1      43.695   5.616  12.331  0.00  0.00    +0.000 OA
ENDBRANCH   1   8
BRANCH   3   9
ATOM      9  C   UNL     1      47.430   8.610  13.648  0.00  0.00    +0.000 C 
BRANCH   9  10
ATOM     10  N   UNL     1      47.322   9.003  15.034  0.00  0.00    +0.000 N 
ATOM     11  C   UNL     1      48.356   8.888  15.925  0.00  0.00    +0.000 C 
ATOM     12  O   UNL     1      49.451   8.436  15.603  0.00  0.00    +0.000 OA
ATOM     13  H   UNL     1      46.384   9.181  15.376  0.00  0.00    +0.000 HD
BRANCH  11  14
ATOM     14  C   UNL     1      48.113   9.411  17.279  0.00  0.00    +0.000 A 
ATOM     15  C   UNL     1      48.045  10.782  17.479  0.00  0.00    +0.000 A 
ATOM     16  S   UNL     1      47.710  11.222  19.092  0.00  0.00    +0.000 S 
ATOM     17  C   UNL     1      47.692   9.596  19.589  0.00  0.00    +0.000 A 
ATOM     18  N   UNL     1      47.477   9.268  20.893  0.00  0.00    +0.000 NA
ATOM     19  C   UNL     1      47.520   8.002  21.139  0.00  0.00    +0.000 A 
ATOM     20  N   UNL     1      47.750   7.032  20.197  0.00  0.00    +0.000 N 
ATOM     21  C   UNL     1      47.912   7.312  18.861  0.00  0.00    +0.000 A 
ATOM     22  O   UNL     1      48.011   6.412  18.032  0.00  0.00    +0.000 OA
ATOM     23  C   UNL     1      47.910   8.726  18.536  0.00  0.00    +0.000 A 
ATOM     24  H   UNL     1      47.748   6.056  20.451  0.00  0.00    +0.000 HD
ENDBRANCH  11  14
ENDBRANCH   9  10
ENDBRANCH   3   9
BRANCH   6  25
ATOM     25  C   UNL     1      45.255   3.291  12.663  0.00  0.00    +0.000 C 
BRANCH  25  26
ATOM     26  N   UNL     1      45.303   3.003  11.247  0.00  0.00    +0.000 N 
ATOM     27  C   UNL     1      44.173   2.831  10.480  0.00  0.00    +0.000 C 
ATOM     28  O   UNL     1      43.034   2.883  10.934  0.00  0.00    +0.000 OA
ATOM     29  H   UNL     1      46.198   3.025  10.770  0.00  0.00    +0.000 HD
BRANCH  27  30
ATOM     30  C   UNL     1      44.470   2.626   8.982  0.00  0.00    +0.000 C 
ATOM     31  C   UNL     1      45.689   1.741   8.752  0.00  0.00    +0.000 C 
ATOM     32  C   UNL     1      46.321   2.338   7.520  0.00  0.00    +0.000 C 
ATOM     33  C   UNL     1      46.002   3.804   7.683  0.00  0.00    +0.000 C 
ATOM     34  O   UNL     1      44.707   3.866   8.290  0.00  0.00    +0.000 OA
ENDBRANCH  27  30
ENDBRANCH  25  26
ENDBRANCH   6  25
TORSDOF 7
ENDMDL
MODEL 7
REMARK VINA RESULT:    -7.060      2.176      2.845
REMARK INTER + INTRA:         -11.315
REMARK INTER:                 -10.214
REMARK INTRA:                  -1.101
REMARK UNBOUND:                -1.366
REMARK  Name = 
REMARK  8 active torsions:
REMARK  status: ('A' for Active; 'I' for Inactive)
REMARK    1  A    between atoms: C_1  and  O_2
REMARK    2  A    between atoms: O_2  and  C_3
REMARK    3  A    between atoms: C_5  and  C_6
REMARK    4  A    between atoms: C_6  and  N_7
REMARK    5  A    between atoms: C_8  and  C_10
REMARK    6  A    between atoms: C_22  and  C_23
REMARK    7  A    between atoms: C_23  and  N_24
REMARK    8  A    between atoms: C_25  and  C_27
REMARK                            x       y       z     vdW  Elec       q    Type
REMARK                         _______ _______ _______ _____ _____    ______ ____
ROOT
ATOM      1  C   UNL     1      47.117   6.205  12.371  0.00  0.00    +0.000 A 
ATOM      2  C   UNL     1      47.499   5.672  13.606  0.00  0.00    +0.000 A 
ATOM      3  C   UNL     1      46.691   4.738  14.275  0.00  0.00    +0.000 A 
ATOM      4  C   UNL     1      45.500   4.320  13.676  0.00  0.00    +0.000 A 
ATOM      5  C   UNL     1      45.116   4.837  12.440  0.00  0.00    +0.000 A 
ATOM      6  C   UNL     1      45.912   5.788  11.777  0.00  0.00    +0.000 A 
ENDROOT
BRANCH   1   8
ATOM      7  C   UNL     1      47.858   8.466  12.250  0.00  0.00    +0.000 C 
ATOM      8  O   UNL     1      47.831   7.157  11.690  0.00  0.00    +0.000 OA
ENDBRANCH   1   8
BRANCH   3   9
ATOM      9  C   UNL     1      47.130   4.173  15.596  0.00  0.00    +0.000 C 
BRANCH   9  10
ATOM     10  N   UNL     1      47.965   5.106  16.316  0.00  0.00    +0.000 N 
ATOM     11  C   UNL     1      47.762   5.431  17.631  0.00  0.00    +0.000 C 
ATOM     12  O   UNL     1      46.844   4.949  18.290  0.00  0.00    +0.000 OA
ATOM     13  H   UNL     1      48.592   5.670  15.753  0.00  0.00    +0.000 HD
BRANCH  11  14
ATOM     14  C   UNL     1      48.751   6.331  18.243  0.00  0.00    +0.000 A 
ATOM     15  C   UNL     1      48.316   7.447  18.944  0.00  0.00    +0.000 A 
ATOM     16  S   UNL     1      49.582   8.359  19.632  0.00  0.00    +0.000 S 
ATOM     17  C   UNL     1      50.758   7.322  18.977  0.00  0.00    +0.000 A 
ATOM     18  N   UNL     1      52.084   7.558  19.176  0.00  0.00    +0.000 NA
ATOM     19  C   UNL     1      52.870   6.713  18.598  0.00  0.00    +0.000 A 
ATOM     20  N   UNL     1      52.450   5.646  17.845  0.00  0.00    +0.000 N 
ATOM     21  C   UNL     1      51.123   5.335  17.667  0.00  0.00    +0.000 A 
ATOM     22  O   UNL     1      50.784   4.313  17.075  0.00  0.00    +0.000 OA
ATOM     23  C   UNL     1      50.195   6.277  18.266  0.00  0.00    +0.000 A 
ATOM     24  H   UNL     1      53.116   5.007  17.439  0.00  0.00    +0.000 HD
ENDBRANCH  11  14
ENDBRANCH   9  10
ENDBRANCH   3   9
BRANCH   6  25
ATOM     25  C   UNL     1      45.476   6.276  10.416  0.00  0.00    +0.000 C 
BRANCH  25  26
ATOM     26  N   UNL     1      45.710   5.271   9.403  0.00  0.00    +0.000 N 
ATOM     27  C   UNL     1      44.748   4.372   9.006  0.00  0.00    +0.000 C 
ATOM     28  O   UNL     1      43.621   4.329   9.491  0.00  0.00    +0.000 OA
ATOM     29  H   UNL     1      46.584   5.287   8.887  0.00  0.00    +0.000 HD
BRANCH  27  30
ATOM     30  C   UNL     1      45.196   3.459   7.848  0.00  0.00    +0.000 C 
ATOM     31  C   UNL     1      45.708   2.111   8.342  0.00  0.00    +0.000 C 
ATOM     32  C   UNL     1      46.821   1.789   7.377  0.00  0.00    +0.000 C 
ATOM     33  C   UNL     1      47.368   3.160   7.060  0.00  0.00    +0.000 C 
ATOM     34  O   UNL     1      46.244   4.047   7.054  0.00  0.00    +0.000 OA
ENDBRANCH  27  30
ENDBRANCH  25  26
ENDBRANCH   6  25
TORSDOF 7
ENDMDL
MODEL 8
REMARK VINA RESULT:    -6.725      2.374      3.738
REMARK INTER + INTRA:         -10.843
REMARK INTER:                  -9.519
REMARK INTRA:                  -1.324
REMARK UNBOUND:                -1.366
REMARK  Name = 
REMARK  8 active torsions:
REMARK  status: ('A' for Active; 'I' for Inactive)
REMARK    1  A    between atoms: C_1  and  O_2
REMARK    2  A    between atoms: O_2  and  C_3
REMARK    3  A    between atoms: C_5  and  C_6
REMARK    4  A    between atoms: C_6  and  N_7
REMARK    5  A    between atoms: C_8  and  C_10
REMARK    6  A    between atoms: C_22  and  C_23
REMARK    7  A    between atoms: C_23  and  N_24
REMARK    8  A    between atoms: C_25  and  C_27
REMARK                            x       y       z     vdW  Elec       q    Type
REMARK                         _______ _______ _______ _____ _____    ______ ____
ROOT
ATOM      1  C   UNL     1      45.949   5.975  12.629  0.00  0.00    +0.000 A 
ATOM      2  C   UNL     1      46.904   6.904  13.056  0.00  0.00    +0.000 A 
ATOM      3  C   UNL     1      47.823   6.588  14.069  0.00  0.00    +0.000 A 
ATOM      4  C   UNL     1      47.792   5.312  14.639  0.00  0.00    +0.000 A 
ATOM      5  C   UNL     1      46.852   4.375  14.213  0.00  0.00    +0.000 A 
ATOM      6  C   UNL     1      45.917   4.695  13.212  0.00  0.00    +0.000 A 
ENDROOT
BRANCH   1   8
ATOM      7  C   UNL     1      44.728   7.604  11.393  0.00  0.00    +0.000 C 
ATOM      8  O   UNL     1      44.992   6.235  11.683  0.00  0.00    +0.000 OA
ENDBRANCH   1   8
BRANCH   3   9
ATOM      9  C   UNL     1      48.844   7.601  14.502  0.00  0.00    +0.000 C 
BRANCH   9  10
ATOM     10  N   UNL     1      49.338   7.317  15.829  0.00  0.00    +0.000 N 
ATOM     11  C   UNL     1      49.073   8.114  16.911  0.00  0.00    +0.000 C 
ATOM     12  O   UNL     1      48.396   9.135  16.823  0.00  0.00    +0.000 OA
ATOM     13  H   UNL     1      50.061   6.609  15.894  0.00  0.00    +0.000 HD
BRANCH  11  14
ATOM     14  C   UNL     1      49.578   7.642  18.210  0.00  0.00    +0.000 A 
ATOM     15  C   UNL     1      50.555   8.373  18.869  0.00  0.00    +0.000 A 
ATOM     16  S   UNL     1      50.995   7.720  20.382  0.00  0.00    +0.000 S 
ATOM     17  C   UNL     1      49.929   6.410  20.187  0.00  0.00    +0.000 A 
ATOM     18  N   UNL     1      49.834   5.441  21.139  0.00  0.00    +0.000 NA
ATOM     19  C   UNL     1      49.012   4.489  20.852  0.00  0.00    +0.000 A 
ATOM     20  N   UNL     1      48.268   4.422  19.702  0.00  0.00    +0.000 N 
ATOM     21  C   UNL     1      48.287   5.405  18.742  0.00  0.00    +0.000 A 
ATOM     22  O   UNL     1      47.530   5.364  17.775  0.00  0.00    +0.000 OA
ATOM     23  C   UNL     1      49.225   6.482  18.998  0.00  0.00    +0.000 A 
ATOM     24  H   UNL     1      47.624   3.661  19.547  0.00  0.00    +0.000 HD
ENDBRANCH  11  14
ENDBRANCH   9  10
ENDBRANCH   3   9
BRANCH   6  25
ATOM     25  C   UNL     1      44.955   3.627  12.751  0.00  0.00    +0.000 C 
BRANCH  25  26
ATOM     26  N   UNL     1      45.080   3.391  11.330  0.00  0.00    +0.000 N 
ATOM     27  C   UNL     1      44.074   2.839  10.572  0.00  0.00    +0.000 C 
ATOM     28  O   UNL     1      42.998   2.477  11.037  0.00  0.00    +0.000 OA
ATOM     29  H   UNL     1      45.902   3.737  10.844  0.00  0.00    +0.000 HD
BRANCH  27  30
ATOM     30  C   UNL     1      44.401   2.771   9.067  0.00  0.00    +0.000 C 
ATOM     31  C   UNL     1      45.578   1.848   8.774  0.00  0.00    +0.000 C 
ATOM     32  C   UNL     1      46.274   2.531   7.625  0.00  0.00    +0.000 C 
ATOM     33  C   UNL     1      46.029   3.989   7.931  0.00  0.00    +0.000 C 
ATOM     34  O   UNL     1      44.722   4.061   8.513  0.00  0.00    +0.000 OA
ENDBRANCH  27  30
ENDBRANCH  25  26
ENDBRANCH   6  25
TORSDOF 7
ENDMDL
MODEL 9
REMARK VINA RESULT:    -6.612      3.672      5.313
REMARK INTER + INTRA:         -10.683
REMARK INTER:                  -9.604
REMARK INTRA:                  -1.079
REMARK UNBOUND:                -1.366
REMARK  Name = 
REMARK  8 active torsions:
REMARK  status: ('A' for Active; 'I' for Inactive)
REMARK    1  A    between atoms: C_1  and  O_2
REMARK    2  A    between atoms: O_2  and  C_3
REMARK    3  A    between atoms: C_5  and  C_6
REMARK    4  A    between atoms: C_6  and  N_7
REMARK    5  A    between atoms: C_8  and  C_10
REMARK    6  A    between atoms: C_22  and  C_23
REMARK    7  A    between atoms: C_23  and  N_24
REMARK    8  A    between atoms: C_25  and  C_27
REMARK                            x       y       z     vdW  Elec       q    Type
REMARK                         _______ _______ _______ _____ _____    ______ ____
ROOT
ATOM      1  C   UNL     1      47.913   6.623  13.949  0.00  0.00    +0.000 A 
ATOM      2  C   UNL     1      48.262   6.118  15.206  0.00  0.00    +0.000 A 
ATOM      3  C   UNL     1      47.672   4.947  15.707  0.00  0.00    +0.000 A 
ATOM      4  C   UNL     1      46.739   4.266  14.921  0.00  0.00    +0.000 A 
ATOM      5  C   UNL     1      46.393   4.755  13.662  0.00  0.00    +0.000 A 
ATOM      6  C   UNL     1      46.967   5.939  13.164  0.00  0.00    +0.000 A 
ENDROOT
BRANCH   1   8
ATOM      7  C   UNL     1      49.761   7.763  12.970  0.00  0.00    +0.000 C 
ATOM      8  O   UNL     1      48.411   7.786  13.422  0.00  0.00    +0.000 OA
ENDBRANCH   1   8
BRANCH   3   9
ATOM      9  C   UNL     1      48.073   4.421  17.057  0.00  0.00    +0.000 C 
BRANCH   9  10
ATOM     10  N   UNL     1      49.478   4.087  17.095  0.00  0.00    +0.000 N 
ATOM     11  C   UNL     1      50.331   4.555  18.059  0.00  0.00    +0.000 C 
ATOM     12  O   UNL     1      49.956   5.301  18.960  0.00  0.00    +0.000 OA
ATOM     13  H   UNL     1      49.856   3.651  16.262  0.00  0.00    +0.000 HD
BRANCH  11  14
ATOM     14  C   UNL     1      51.713   4.055  18.008  0.00  0.00    +0.000 A 
ATOM     15  C   UNL     1      52.764   4.926  18.256  0.00  0.00    +0.000 A 
ATOM     16  S   UNL     1      54.297   4.181  18.207  0.00  0.00    +0.000 S 
ATOM     17  C   UNL     1      53.614   2.678  17.805  0.00  0.00    +0.000 A 
ATOM     18  N   UNL     1      54.402   1.587  17.594  0.00  0.00    +0.000 NA
ATOM     19  C   UNL     1      53.758   0.519  17.265  0.00  0.00    +0.000 A 
ATOM     20  N   UNL     1      52.395   0.437  17.138  0.00  0.00    +0.000 N 
ATOM     21  C   UNL     1      51.556   1.495  17.399  0.00  0.00    +0.000 A 
ATOM     22  O   UNL     1      50.336   1.358  17.377  0.00  0.00    +0.000 OA
ATOM     23  C   UNL     1      52.233   2.733  17.736  0.00  0.00    +0.000 A 
ATOM     24  H   UNL     1      51.950  -0.436  16.900  0.00  0.00    +0.000 HD
ENDBRANCH  11  14
ENDBRANCH   9  10
ENDBRANCH   3   9
BRANCH   6  25
ATOM     25  C   UNL     1      46.595   6.396  11.774  0.00  0.00    +0.000 C 
BRANCH  25  26
ATOM     26  N   UNL     1      45.897   5.354  11.054  0.00  0.00    +0.000 N 
ATOM     27  C   UNL     1      44.543   5.389  10.813  0.00  0.00    +0.000 C 
ATOM     28  O   UNL     1      43.810   6.291  11.207  0.00  0.00    +0.000 OA
ATOM     29  H   UNL     1      46.435   4.612  10.617  0.00  0.00    +0.000 HD
BRANCH  27  30
ATOM     30  C   UNL     1      44.039   4.218   9.946  0.00  0.00    +0.000 C 
ATOM     31  C   UNL     1      44.586   2.876  10.417  0.00  0.00    +0.000 C 
ATOM     32  C   UNL     1      44.780   2.112   9.132  0.00  0.00    +0.000 C 
ATOM     33  C   UNL     1      45.155   3.211   8.167  0.00  0.00    +0.000 C 
ATOM     34  O   UNL     1      44.399   4.362   8.559  0.00  0.00    +0.000 OA
ENDBRANCH  27  30
ENDBRANCH  25  26
ENDBRANCH   6  25
TORSDOF 7
ENDMDL
