MODEL 1
REMARK VINA RESULT:    -8.207      0.000      0.000
REMARK INTER + INTRA:         -12.760
REMARK INTER:                 -11.566
REMARK INTRA:                  -1.194
REMARK UNBOUND:                -1.194
REMARK  Name = 
REMARK  9 active torsions:
REMARK  status: ('A' for Active; 'I' for Inactive)
REMARK    1  A    between atoms: C_1  and  C_2
REMARK    2  A    between atoms: C_2  and  C_3
REMARK    3  A    between atoms: C_2  and  C_4
REMARK    4  A    between atoms: C_2  and  C_15
REMARK    5  A    between atoms: C_4  and  N_5
REMARK    6  A    between atoms: N_5  and  C_6
REMARK    7  A    between atoms: C_10  and  C_11
REMARK    8  A    between atoms: C_20  and  O_21
REMARK    9  A    between atoms: O_21  and  C_22
REMARK                            x       y       z     vdW  Elec       q    Type
REMARK                         _______ _______ _______ _____ _____    ______ ____
ROOT
ATOM      1  C   UNL     1      42.785   5.129  13.199  0.00  0.00    +0.000 C 
ATOM      2  C   UNL     1      43.849   4.378  12.365  0.00  0.00    +0.000 C 
ATOM      3  C   UNL     1      43.876   2.883  12.778  0.00  0.00    +0.000 C 
ENDROOT
BRANCH   2   4
ATOM      4  C   UNL     1      45.241   4.979  12.675  0.00  0.00    +0.000 A 
ATOM      5  C   UNL     1      45.743   6.034  11.888  0.00  0.00    +0.000 A 
ATOM      6  C   UNL     1      46.974   6.618  12.171  0.00  0.00    +0.000 A 
ATOM      7  F   UNL     1      47.401   7.638  11.415  0.00  0.00    +0.000 F 
ATOM      8  C   UNL     1      47.758   6.178  13.227  0.00  0.00    +0.000 A 
ATOM      9  C   UNL     1      47.297   5.126  14.007  0.00  0.00    +0.000 A 
ATOM     10  C   UNL     1      46.050   4.541  13.740  0.00  0.00    +0.000 A 
BRANCH   9  11
ATOM     11  O   UNL     1      47.966   4.612  15.090  0.00  0.00    +0.000 OA
BRANCH  11  12
ATOM     12  C   UNL     1      47.196   4.025  16.166  0.00  0.00    +0.000 C 
ATOM     13  C   UNL     1      47.218   4.733  17.535  0.00  0.00    +0.000 C 
ATOM     14  N   UNL     1      47.621   3.484  18.194  0.00  0.00    +0.000 NA
ATOM     15  C   UNL     1      47.885   2.854  16.893  0.00  0.00    +0.000 C 
ATOM     16  H   UNL     1      46.880   3.035  18.732  0.00  0.00    +0.000 HD
ENDBRANCH  11  12
ENDBRANCH   9  11
ENDBRANCH   2   4
BRANCH   2  17
ATOM     17  C   UNL     1      43.456   4.477  10.849  0.00  0.00    +0.000 C 
BRANCH  17  18
ATOM     18  N   UNL     1      43.911   3.316  10.081  0.00  0.00    +0.000 N 
ATOM     19  H   UNL     1      44.020   2.474  10.637  0.00  0.00    +0.000 HD
BRANCH  18  20
ATOM     20  C   UNL     1      44.950   3.415   9.156  0.00  0.00    +0.000 A 
ATOM     21  C   UNL     1      45.406   4.612   8.601  0.00  0.00    +0.000 A 
ATOM     22  C   UNL     1      46.424   4.613   7.642  0.00  0.00    +0.000 A 
ATOM     23  C   UNL     1      46.979   3.410   7.206  0.00  0.00    +0.000 A 
ATOM     24  C   UNL     1      46.512   2.195   7.718  0.00  0.00    +0.000 A 
ATOM     25  C   UNL     1      45.491   2.211   8.673  0.00  0.00    +0.000 A 
BRANCH  24  26
ATOM     26  C   UNL     1      47.134   0.934   7.223  0.00  0.00    +0.000 C 
ATOM     27  N   UNL     1      46.674  -0.262   7.700  0.00  0.00    +0.000 N 
ATOM     28  O   UNL     1      48.053   0.951   6.409  0.00  0.00    +0.000 OA
ATOM     29  H   UNL     1      45.923  -0.383   8.361  0.00  0.00    +0.000 HD
ATOM     30  H   UNL     1      47.128  -1.094   7.347  0.00  0.00    +0.000 HD
ENDBRANCH  24  26
ENDBRANCH  18  20
ENDBRANCH  17  18
ENDBRANCH   2  17
TORSDOF 7
ENDMDL
MODEL 2
REMARK VINA RESULT:    -7.561      1.574      2.207
REMARK INTER + INTRA:         -11.850
REMARK INTER:                 -11.118
REMARK INTRA:                  -0.732
REMARK UNBOUND:                -1.194
REMARK  Name = 
REMARK  9 active torsions:
REMARK  status: ('A' for Active; 'I' for Inactive)
REMARK    1  A    between atoms: C_1  and  C_2
REMARK    2  A    between atoms: C_2  and  C_3
REMARK    3  A    between atoms: C_2  and  C_4
REMARK    4  A    between atoms: C_2  and  C_15
REMARK    5  A    between atoms: C_4  and  N_5
REMARK    6  A    between atoms: N_5  and  C_6
REMARK    7  A    between atoms: C_10  and  C_11
REMARK    8  A    between atoms: C_20  and  O_21
REMARK    9  A    between atoms: O_21  and  C_22
REMARK                            x       y       z     vdW  Elec       q    Type
REMARK                         _______ _______ _______ _____ _____    ______ ____
ROOT
ATOM      1  C   UNL     1      44.744   7.403  11.873  0.00  0.00    +0.000 C 
ATOM      2  C   UNL     1      45.697   6.191  11.738  0.00  0.00    +0.000 C 
ATOM      3  C   UNL     1      45.019   4.928  12.330  0.00  0.00    +0.000 C 
ENDROOT
BRANCH   2   4
ATOM      4  C   UNL     1      46.977   6.470  12.562  0.00  0.00    +0.000 A 
ATOM      5  C   UNL     1      47.932   7.391  12.087  0.00  0.00    +0.000 A 
ATOM      6  C   UNL     1      49.072   7.689  12.827  0.00  0.00    +0.000 A 
ATOM      7  F   UNL     1      49.940   8.592  12.353  0.00  0.00    +0.000 F 
ATOM      8  C   UNL     1      49.319   7.083  14.050  0.00  0.00    +0.000 A 
ATOM      9  C   UNL     1      48.405   6.156  14.533  0.00  0.00    +0.000 A 
ATOM     10  C   UNL     1      47.244   5.861  13.801  0.00  0.00    +0.000 A 
BRANCH   9  11
ATOM     11  O   UNL     1      48.522   5.504  15.735  0.00  0.00    +0.000 OA
BRANCH  11  12
ATOM     12  C   UNL     1      47.423   4.676  16.185  0.00  0.00    +0.000 C 
ATOM     13  C   UNL     1      47.085   4.686  17.689  0.00  0.00    +0.000 C 
ATOM     14  N   UNL     1      47.178   3.221  17.738  0.00  0.00    +0.000 NA
ATOM     15  C   UNL     1      47.773   3.189  16.395  0.00  0.00    +0.000 C 
ATOM     16  H   UNL     1      46.279   2.745  17.806  0.00  0.00    +0.000 HD
ENDBRANCH  11  12
ENDBRANCH   9  11
ENDBRANCH   2   4
BRANCH   2  17
ATOM     17  C   UNL     1      45.981   5.948  10.214  0.00  0.00    +0.000 C 
BRANCH  17  18
ATOM     18  N   UNL     1      44.917   5.174   9.569  0.00  0.00    +0.000 N 
ATOM     19  H   UNL     1      44.033   5.198  10.068  0.00  0.00    +0.000 HD
BRANCH  18  20
ATOM     20  C   UNL     1      45.148   3.895   9.065  0.00  0.00    +0.000 A 
ATOM     21  C   UNL     1      44.578   2.727   9.575  0.00  0.00    +0.000 A 
ATOM     22  C   UNL     1      44.903   1.478   9.036  0.00  0.00    +0.000 A 
ATOM     23  C   UNL     1      45.827   1.383   7.996  0.00  0.00    +0.000 A 
ATOM     24  C   UNL     1      46.441   2.533   7.493  0.00  0.00    +0.000 A 
ATOM     25  C   UNL     1      46.108   3.774   8.046  0.00  0.00    +0.000 A 
BRANCH  24  26
ATOM     26  C   UNL     1      47.422   2.384   6.381  0.00  0.00    +0.000 C 
ATOM     27  N   UNL     1      47.378   3.265   5.336  0.00  0.00    +0.000 N 
ATOM     28  O   UNL     1      48.256   1.482   6.382  0.00  0.00    +0.000 OA
ATOM     29  H   UNL     1      46.741   4.039   5.246  0.00  0.00    +0.000 HD
ATOM     30  H   UNL     1      48.055   3.123   4.597  0.00  0.00    +0.000 HD
ENDBRANCH  24  26
ENDBRANCH  18  20
ENDBRANCH  17  18
ENDBRANCH   2  17
TORSDOF 7
ENDMDL
MODEL 3
REMARK VINA RESULT:    -7.321      2.445      7.976
REMARK INTER + INTRA:         -11.511
REMARK INTER:                 -10.788
REMARK INTRA:                  -0.723
REMARK UNBOUND:                -1.194
REMARK  Name = 
REMARK  9 active torsions:
REMARK  status: ('A' for Active; 'I' for Inactive)
REMARK    1  A    between atoms: C_1  and  C_2
REMARK    2  A    between atoms: C_2  and  C_3
REMARK    3  A    between atoms: C_2  and  C_4
REMARK    4  A    between atoms: C_2  and  C_15
REMARK    5  A    between atoms: C_4  and  N_5
REMARK    6  A    between atoms: N_5  and  C_6
REMARK    7  A    between atoms: C_10  and  C_11
REMARK    8  A    between atoms: C_20  and  O_21
REMARK    9  A    between atoms: O_21  and  C_22
REMARK                            x       y       z     vdW  Elec       q    Type
REMARK                         _______ _______ _______ _____ _____    ______ ____
ROOT
ATOM      1  C   UNL     1      44.974   7.475  12.066  0.00  0.00    +0.000 C 
ATOM      2  C   UNL     1      46.008   6.327  11.986  0.00  0.00    +0.000 C 
ATOM      3  C   UNL     1      47.295   6.833  11.284  0.00  0.00    +0.000 C 
ENDROOT
BRANCH   2   4
ATOM      4  C   UNL     1      45.418   5.184  11.124  0.00  0.00    +0.000 A 
ATOM      5  C   UNL     1      44.540   4.248  11.703  0.00  0.00    +0.000 A 
ATOM      6  C   UNL     1      43.966   3.235  10.942  0.00  0.00    +0.000 A 
ATOM      7  F   UNL     1      43.114   2.382  11.526  0.00  0.00    +0.000 F 
ATOM      8  C   UNL     1      44.244   3.100   9.590  0.00  0.00    +0.000 A 
ATOM      9  C   UNL     1      45.122   3.997   8.997  0.00  0.00    +0.000 A 
ATOM     10  C   UNL     1      45.694   5.032   9.753  0.00  0.00    +0.000 A 
BRANCH   9  11
ATOM     11  O   UNL     1      45.464   3.985   7.667  0.00  0.00    +0.000 OA
BRANCH  11  12
ATOM     12  C   UNL     1      46.727   3.393   7.281  0.00  0.00    +0.000 C 
ATOM     13  C   UNL     1      46.893   2.947   5.815  0.00  0.00    +0.000 C 
ATOM     14  N   UNL     1      47.292   1.602   6.249  0.00  0.00    +0.000 NA
ATOM     15  C   UNL     1      46.877   1.898   7.627  0.00  0.00    +0.000 C 
ATOM     16  H   UNL     1      48.288   1.407   6.147  0.00  0.00    +0.000 HD
ENDBRANCH  11  12
ENDBRANCH   9  11
ENDBRANCH   2   4
BRANCH   2  17
ATOM     17  C   UNL     1      46.369   5.879  13.445  0.00  0.00    +0.000 C 
BRANCH  17  18
ATOM     18  N   UNL     1      47.474   6.659  14.007  0.00  0.00    +0.000 N 
ATOM     19  H   UNL     1      48.120   7.016  13.309  0.00  0.00    +0.000 HD
BRANCH  18  20
ATOM     20  C   UNL     1      48.177   6.226  15.131  0.00  0.00    +0.000 A 
ATOM     21  C   UNL     1      49.419   6.723  15.530  0.00  0.00    +0.000 A 
ATOM     22  C   UNL     1      50.075   6.195  16.647  0.00  0.00    +0.000 A 
ATOM     23  C   UNL     1      49.505   5.142  17.362  0.00  0.00    +0.000 A 
ATOM     24  C   UNL     1      48.280   4.600  16.960  0.00  0.00    +0.000 A 
ATOM     25  C   UNL     1      47.640   5.136  15.838  0.00  0.00    +0.000 A 
BRANCH  24  26
ATOM     26  C   UNL     1      47.709   3.475  17.753  0.00  0.00    +0.000 C 
ATOM     27  N   UNL     1      48.349   3.078  18.894  0.00  0.00    +0.000 N 
ATOM     28  O   UNL     1      46.688   2.895  17.395  0.00  0.00    +0.000 OA
ATOM     29  H   UNL     1      49.184   3.492  19.275  0.00  0.00    +0.000 HD
ATOM     30  H   UNL     1      47.935   2.305  19.398  0.00  0.00    +0.000 HD
ENDBRANCH  24  26
ENDBRANCH  18  20
ENDBRANCH  17  18
ENDBRANCH   2  17
TORSDOF 7
ENDMDL
MODEL 4
REMARK VINA RESULT:    -6.839      2.723      8.047
REMARK INTER + INTRA:         -10.832
REMARK INTER:                 -10.028
REMARK INTRA:                  -0.804
REMARK UNBOUND:                -1.194
REMARK  Name = 
REMARK  9 active torsions:
REMARK  status: ('A' for Active; 'I' for Inactive)
REMARK    1  A    between atoms: C_1  and  C_2
REMARK    2  A    between atoms: C_2  and  C_3
REMARK    3  A    between atoms: C_2  and  C_4
REMARK    4  A    between atoms: C_2  and  C_15
REMARK    5  A    between atoms: C_4  and  N_5
REMARK    6  A    between atoms: N_5  and  C_6
REMARK    7  A    between atoms: C_10  and  C_11
REMARK    8  A    between atoms: C_20  and  O_21
REMARK    9  A    between atoms: O_21  and  C_22
REMARK                            x       y       z     vdW  Elec       q    Type
REMARK                         _______ _______ _______ _____ _____    ______ ____
ROOT
ATOM      1  C   UNL     1      44.871   5.947  12.992  0.00  0.00    +0.000 C 
ATOM      2  C   UNL     1      45.321   6.335  11.563  0.00  0.00    +0.000 C 
ATOM      3  C   UNL     1      44.405   7.458  11.014  0.00  0.00    +0.000 C 
ENDROOT
BRANCH   2   4
ATOM      4  C   UNL     1      45.163   5.103  10.640  0.00  0.00    +0.000 A 
ATOM      5  C   UNL     1      44.424   3.987  11.076  0.00  0.00    +0.000 A 
ATOM      6  C   UNL     1      44.233   2.883  10.250  0.00  0.00    +0.000 A 
ATOM      7  F   UNL     1      43.499   1.854  10.693  0.00  0.00    +0.000 F 
ATOM      8  C   UNL     1      44.774   2.834   8.974  0.00  0.00    +0.000 A 
ATOM      9  C   UNL     1      45.525   3.911   8.525  0.00  0.00    +0.000 A 
ATOM     10  C   UNL     1      45.709   5.036   9.345  0.00  0.00    +0.000 A 
BRANCH   9  11
ATOM     11  O   UNL     1      46.095   3.995   7.278  0.00  0.00    +0.000 OA
BRANCH  11  12
ATOM     12  C   UNL     1      46.449   2.770   6.594  0.00  0.00    +0.000 C 
ATOM     13  C   UNL     1      47.667   1.982   7.115  0.00  0.00    +0.000 C 
ATOM     14  N   UNL     1      48.263   1.980   5.773  0.00  0.00    +0.000 NA
ATOM     15  C   UNL     1      47.274   2.960   5.305  0.00  0.00    +0.000 C 
ATOM     16  H   UNL     1      48.216   1.080   5.294  0.00  0.00    +0.000 HD
ENDBRANCH  11  12
ENDBRANCH   9  11
ENDBRANCH   2   4
BRANCH   2  17
ATOM     17  C   UNL     1      46.794   6.871  11.634  0.00  0.00    +0.000 C 
BRANCH  17  18
ATOM     18  N   UNL     1      47.633   6.070  12.529  0.00  0.00    +0.000 N 
ATOM     19  H   UNL     1      47.151   5.276  12.941  0.00  0.00    +0.000 HD
BRANCH  18  20
ATOM     20  C   UNL     1      48.468   6.665  13.474  0.00  0.00    +0.000 A 
ATOM     21  C   UNL     1      49.554   7.487  13.167  0.00  0.00    +0.000 A 
ATOM     22  C   UNL     1      50.368   8.004  14.180  0.00  0.00    +0.000 A 
ATOM     23  C   UNL     1      50.119   7.681  15.513  0.00  0.00    +0.000 A 
ATOM     24  C   UNL     1      49.061   6.829  15.845  0.00  0.00    +0.000 A 
ATOM     25  C   UNL     1      48.259   6.316  14.820  0.00  0.00    +0.000 A 
BRANCH  24  26
ATOM     26  C   UNL     1      48.832   6.510  17.283  0.00  0.00    +0.000 C 
ATOM     27  N   UNL     1      47.708   5.817  17.636  0.00  0.00    +0.000 N 
ATOM     28  O   UNL     1      49.625   6.867  18.150  0.00  0.00    +0.000 OA
ATOM     29  H   UNL     1      47.004   5.475  17.003  0.00  0.00    +0.000 HD
ATOM     30  H   UNL     1      47.586   5.629  18.623  0.00  0.00    +0.000 HD
ENDBRANCH  24  26
ENDBRANCH  18  20
ENDBRANCH  17  18
ENDBRANCH   2  17
TORSDOF 7
ENDMDL
MODEL 5
REMARK VINA RESULT:    -6.642      3.999      7.641
REMARK INTER + INTRA:         -10.555
REMARK INTER:                  -9.789
REMARK INTRA:                  -0.766
REMARK UNBOUND:                -1.194
REMARK  Name = 
REMARK  9 active torsions:
REMARK  status: ('A' for Active; 'I' for Inactive)
REMARK    1  A    between atoms: C_1  and  C_2
REMARK    2  A    between atoms: C_2  and  C_3
REMARK    3  A    between atoms: C_2  and  C_4
REMARK    4  A    between atoms: C_2  and  C_15
REMARK    5  A    between atoms: C_4  and  N_5
REMARK    6  A    between atoms: N_5  and  C_6
REMARK    7  A    between atoms: C_10  and  C_11
REMARK    8  A    between atoms: C_20  and  O_21
REMARK    9  A    between atoms: O_21  and  C_22
REMARK                            x       y       z     vdW  Elec       q    Type
REMARK                         _______ _______ _______ _____ _____    ______ ____
ROOT
ATOM      1  C   UNL     1      44.965   5.853  13.022  0.00  0.00    +0.000 C 
ATOM      2  C   UNL     1      45.451   6.226  11.602  0.00  0.00    +0.000 C 
ATOM      3  C   UNL     1      44.609   7.408  11.055  0.00  0.00    +0.000 C 
ENDROOT
BRANCH   2   4
ATOM      4  C   UNL     1      45.229   5.015  10.665  0.00  0.00    +0.000 A 
ATOM      5  C   UNL     1      44.472   3.913  11.108  0.00  0.00    +0.000 A 
ATOM      6  C   UNL     1      44.223   2.829  10.271  0.00  0.00    +0.000 A 
ATOM      7  F   UNL     1      43.474   1.814  10.723  0.00  0.00    +0.000 F 
ATOM      8  C   UNL     1      44.721   2.785   8.978  0.00  0.00    +0.000 A 
ATOM      9  C   UNL     1      45.488   3.848   8.521  0.00  0.00    +0.000 A 
ATOM     10  C   UNL     1      45.730   4.954   9.352  0.00  0.00    +0.000 A 
BRANCH   9  11
ATOM     11  O   UNL     1      46.020   3.936   7.258  0.00  0.00    +0.000 OA
BRANCH  11  12
ATOM     12  C   UNL     1      46.430   2.718   6.592  0.00  0.00    +0.000 C 
ATOM     13  C   UNL     1      47.685   1.998   7.121  0.00  0.00    +0.000 C 
ATOM     14  N   UNL     1      48.277   2.003   5.776  0.00  0.00    +0.000 NA
ATOM     15  C   UNL     1      47.240   2.927   5.297  0.00  0.00    +0.000 C 
ATOM     16  H   UNL     1      48.271   1.095   5.312  0.00  0.00    +0.000 HD
ENDBRANCH  11  12
ENDBRANCH   9  11
ENDBRANCH   2   4
BRANCH   2  17
ATOM     17  C   UNL     1      46.953   6.672  11.691  0.00  0.00    +0.000 C 
BRANCH  17  18
ATOM     18  N   UNL     1      47.106   7.978  12.338  0.00  0.00    +0.000 N 
ATOM     19  H   UNL     1      46.231   8.476  12.467  0.00  0.00    +0.000 HD
BRANCH  18  20
ATOM     20  C   UNL     1      48.111   8.867  11.959  0.00  0.00    +0.000 A 
ATOM     21  C   UNL     1      47.923  10.236  11.757  0.00  0.00    +0.000 A 
ATOM     22  C   UNL     1      48.980  11.047  11.331  0.00  0.00    +0.000 A 
ATOM     23  C   UNL     1      50.232  10.489  11.075  0.00  0.00    +0.000 A 
ATOM     24  C   UNL     1      50.436   9.115  11.233  0.00  0.00    +0.000 A 
ATOM     25  C   UNL     1      49.368   8.318  11.655  0.00  0.00    +0.000 A 
BRANCH  24  26
ATOM     26  C   UNL     1      51.791   8.563  10.948  0.00  0.00    +0.000 C 
ATOM     27  N   UNL     1      52.880   9.379  11.082  0.00  0.00    +0.000 N 
ATOM     28  O   UNL     1      51.943   7.400  10.585  0.00  0.00    +0.000 OA
ATOM     29  H   UNL     1      52.861  10.341  11.380  0.00  0.00    +0.000 HD
ATOM     30  H   UNL     1      53.780   8.969  10.870  0.00  0.00    +0.000 HD
ENDBRANCH  24  26
ENDBRANCH  18  20
ENDBRANCH  17  18
ENDBRANCH   2  17
TORSDOF 7
ENDMDL
MODEL 6
REMARK VINA RESULT:    -6.570      2.575      4.568
REMARK INTER + INTRA:         -10.454
REMARK INTER:                  -9.511
REMARK INTRA:                  -0.942
REMARK UNBOUND:                -1.194
REMARK  Name = 
REMARK  9 active torsions:
REMARK  status: ('A' for Active; 'I' for Inactive)
REMARK    1  A    between atoms: C_1  and  C_2
REMARK    2  A    between atoms: C_2  and  C_3
REMARK    3  A    between atoms: C_2  and  C_4
REMARK    4  A    between atoms: C_2  and  C_15
REMARK    5  A    between atoms: C_4  and  N_5
REMARK    6  A    between atoms: N_5  and  C_6
REMARK    7  A    between atoms: C_10  and  C_11
REMARK    8  A    between atoms: C_20  and  O_21
REMARK    9  A    between atoms: O_21  and  C_22
REMARK                            x       y       z     vdW  Elec       q    Type
REMARK                         _______ _______ _______ _____ _____    ______ ____
ROOT
ATOM      1  C   UNL     1      49.620   7.979  11.571  0.00  0.00    +0.000 C 
ATOM      2  C   UNL     1      48.257   8.102  12.292  0.00  0.00    +0.000 C 
ATOM      3  C   UNL     1      47.676   9.523  12.071  0.00  0.00    +0.000 C 
ENDROOT
BRANCH   2   4
ATOM      4  C   UNL     1      48.478   7.913  13.812  0.00  0.00    +0.000 A 
ATOM      5  C   UNL     1      48.502   9.035  14.664  0.00  0.00    +0.000 A 
ATOM      6  C   UNL     1      48.659   8.890  16.038  0.00  0.00    +0.000 A 
ATOM      7  F   UNL     1      48.648   9.980  16.816  0.00  0.00    +0.000 F 
ATOM      8  C   UNL     1      48.812   7.640  16.621  0.00  0.00    +0.000 A 
ATOM      9  C   UNL     1      48.812   6.518  15.803  0.00  0.00    +0.000 A 
ATOM     10  C   UNL     1      48.638   6.653  14.417  0.00  0.00    +0.000 A 
BRANCH   9  11
ATOM     11  O   UNL     1      48.933   5.228  16.256  0.00  0.00    +0.000 OA
BRANCH  11  12
ATOM     12  C   UNL     1      47.743   4.408  16.341  0.00  0.00    +0.000 C 
ATOM     13  C   UNL     1      46.976   4.392  17.678  0.00  0.00    +0.000 C 
ATOM     14  N   UNL     1      47.037   2.925  17.717  0.00  0.00    +0.000 NA
ATOM     15  C   UNL     1      48.002   2.912  16.608  0.00  0.00    +0.000 C 
ATOM     16  H   UNL     1      46.154   2.463  17.505  0.00  0.00    +0.000 HD
ENDBRANCH  11  12
ENDBRANCH   9  11
ENDBRANCH   2   4
BRANCH   2  17
ATOM     17  C   UNL     1      47.271   7.049  11.674  0.00  0.00    +0.000 C 
BRANCH  17  18
ATOM     18  N   UNL     1      45.940   7.113  12.283  0.00  0.00    +0.000 N 
ATOM     19  H   UNL     1      45.951   7.371  13.265  0.00  0.00    +0.000 HD
BRANCH  18  20
ATOM     20  C   UNL     1      44.987   6.120  12.060  0.00  0.00    +0.000 A 
ATOM     21  C   UNL     1      43.951   5.803  12.941  0.00  0.00    +0.000 A 
ATOM     22  C   UNL     1      43.066   4.758  12.658  0.00  0.00    +0.000 A 
ATOM     23  C   UNL     1      43.227   3.998  11.500  0.00  0.00    +0.000 A 
ATOM     24  C   UNL     1      44.279   4.270  10.620  0.00  0.00    +0.000 A 
ATOM     25  C   UNL     1      45.157   5.316  10.921  0.00  0.00    +0.000 A 
BRANCH  24  26
ATOM     26  C   UNL     1      44.412   3.432   9.395  0.00  0.00    +0.000 C 
ATOM     27  N   UNL     1      44.259   4.021   8.171  0.00  0.00    +0.000 N 
ATOM     28  O   UNL     1      44.643   2.228   9.467  0.00  0.00    +0.000 OA
ATOM     29  H   UNL     1      44.076   4.997   8.006  0.00  0.00    +0.000 HD
ATOM     30  H   UNL     1      44.348   3.416   7.365  0.00  0.00    +0.000 HD
ENDBRANCH  24  26
ENDBRANCH  18  20
ENDBRANCH  17  18
ENDBRANCH   2  17
TORSDOF 7
ENDMDL
MODEL 7
REMARK VINA RESULT:    -6.447      3.325      7.550
REMARK INTER + INTRA:         -10.280
REMARK INTER:                  -8.887
REMARK INTRA:                  -1.393
REMARK UNBOUND:                -1.194
REMARK  Name = 
REMARK  9 active torsions:
REMARK  status: ('A' for Active; 'I' for Inactive)
REMARK    1  A    between atoms: C_1  and  C_2
REMARK    2  A    between atoms: C_2  and  C_3
REMARK    3  A    between atoms: C_2  and  C_4
REMARK    4  A    between atoms: C_2  and  C_15
REMARK    5  A    between atoms: C_4  and  N_5
REMARK    6  A    between atoms: N_5  and  C_6
REMARK    7  A    between atoms: C_10  and  C_11
REMARK    8  A    between atoms: C_20  and  O_21
REMARK    9  A    between atoms: O_21  and  C_22
REMARK                            x       y       z     vdW  Elec       q    Type
REMARK                         _______ _______ _______ _____ _____    ______ ____
ROOT
ATOM      1  C   UNL     1      49.555   9.801  12.660  0.00  0.00    +0.000 C 
ATOM      2  C   UNL     1      49.371   8.266  12.611  0.00  0.00    +0.000 C 
ATOM      3  C   UNL     1      50.048   7.699  11.336  0.00  0.00    +0.000 C 
ENDROOT
BRANCH   2   4
ATOM      4  C   UNL     1      47.858   7.949  12.522  0.00  0.00    +0.000 A 
ATOM      5  C   UNL     1      46.913   8.983  12.664  0.00  0.00    +0.000 A 
ATOM      6  C   UNL     1      45.550   8.732  12.549  0.00  0.00    +0.000 A 
ATOM      7  F   UNL     1      44.686   9.749  12.663  0.00  0.00    +0.000 F 
ATOM      8  C   UNL     1      45.068   7.454  12.303  0.00  0.00    +0.000 A 
ATOM      9  C   UNL     1      45.976   6.411  12.178  0.00  0.00    +0.000 A 
ATOM     10  C   UNL     1      47.354   6.658  12.277  0.00  0.00    +0.000 A 
BRANCH   9  11
ATOM     11  O   UNL     1      45.631   5.109  11.915  0.00  0.00    +0.000 OA
BRANCH  11  12
ATOM     12  C   UNL     1      44.258   4.699  12.124  0.00  0.00    +0.000 C 
ATOM     13  C   UNL     1      43.986   3.203  12.377  0.00  0.00    +0.000 C 
ATOM     14  N   UNL     1      43.002   3.180  11.287  0.00  0.00    +0.000 NA
ATOM     15  C   UNL     1      43.434   4.510  10.836  0.00  0.00    +0.000 C 
ATOM     16  H   UNL     1      42.032   3.140  11.598  0.00  0.00    +0.000 HD
ENDBRANCH  11  12
ENDBRANCH   9  11
ENDBRANCH   2   4
BRANCH   2  17
ATOM     17  C   UNL     1      50.061   7.640  13.873  0.00  0.00    +0.000 C 
BRANCH  17  18
ATOM     18  N   UNL     1      49.517   8.174  15.124  0.00  0.00    +0.000 N 
ATOM     19  H   UNL     1      50.066   8.931  15.519  0.00  0.00    +0.000 HD
BRANCH  18  20
ATOM     20  C   UNL     1      49.060   7.334  16.138  0.00  0.00    +0.000 A 
ATOM     21  C   UNL     1      49.319   7.519  17.498  0.00  0.00    +0.000 A 
ATOM     22  C   UNL     1      48.860   6.598  18.445  0.00  0.00    +0.000 A 
ATOM     23  C   UNL     1      48.157   5.465  18.037  0.00  0.00    +0.000 A 
ATOM     24  C   UNL     1      47.917   5.236  16.679  0.00  0.00    +0.000 A 
ATOM     25  C   UNL     1      48.388   6.165  15.745  0.00  0.00    +0.000 A 
BRANCH  24  26
ATOM     26  C   UNL     1      47.162   4.012  16.289  0.00  0.00    +0.000 C 
ATOM     27  N   UNL     1      47.048   3.698  14.963  0.00  0.00    +0.000 N 
ATOM     28  O   UNL     1      46.635   3.291  17.132  0.00  0.00    +0.000 OA
ATOM     29  H   UNL     1      47.448   4.218  14.199  0.00  0.00    +0.000 HD
ATOM     30  H   UNL     1      46.520   2.865  14.740  0.00  0.00    +0.000 HD
ENDBRANCH  24  26
ENDBRANCH  18  20
ENDBRANCH  17  18
ENDBRANCH   2  17
TORSDOF 7
ENDMDL
MODEL 8
REMARK VINA RESULT:    -6.414      2.843      3.655
REMARK INTER + INTRA:         -10.233
REMARK INTER:                  -9.407
REMARK INTRA:                  -0.826
REMARK UNBOUND:                -1.194
REMARK  Name = 
REMARK  9 active torsions:
REMARK  status: ('A' for Active; 'I' for Inactive)
REMARK    1  A    between atoms: C_1  and  C_2
REMARK    2  A    between atoms: C_2  and  C_3
REMARK    3  A    between atoms: C_2  and  C_4
REMARK    4  A    between atoms: C_2  and  C_15
REMARK    5  A    between atoms: C_4  and  N_5
REMARK    6  A    between atoms: N_5  and  C_6
REMARK    7  A    between atoms: C_10  and  C_11
REMARK    8  A    between atoms: C_20  and  O_21
REMARK    9  A    between atoms: O_21  and  C_22
REMARK                            x       y       z     vdW  Elec       q    Type
REMARK                         _______ _______ _______ _____ _____    ______ ____
ROOT
ATOM      1  C   UNL     1      44.203   6.433  12.056  0.00  0.00    +0.000 C 
ATOM      2  C   UNL     1      45.715   6.187  11.838  0.00  0.00    +0.000 C 
ATOM      3  C   UNL     1      46.152   4.912  12.606  0.00  0.00    +0.000 C 
ENDROOT
BRANCH   2   4
ATOM      4  C   UNL     1      46.504   7.383  12.423  0.00  0.00    +0.000 A 
ATOM      5  C   UNL     1      46.215   8.693  11.994  0.00  0.00    +0.000 A 
ATOM      6  C   UNL     1      46.882   9.789  12.532  0.00  0.00    +0.000 A 
ATOM      7  F   UNL     1      46.557  11.021  12.117  0.00  0.00    +0.000 F 
ATOM      8  C   UNL     1      47.863   9.634  13.500  0.00  0.00    +0.000 A 
ATOM      9  C   UNL     1      48.184   8.353  13.927  0.00  0.00    +0.000 A 
ATOM     10  C   UNL     1      47.504   7.242  13.401  0.00  0.00    +0.000 A 
BRANCH   9  11
ATOM     11  O   UNL     1      49.118   8.067  14.891  0.00  0.00    +0.000 OA
BRANCH  11  12
ATOM     12  C   UNL     1      50.462   8.580  14.728  0.00  0.00    +0.000 C 
ATOM     13  C   UNL     1      51.161   8.349  13.374  0.00  0.00    +0.000 C 
ATOM     14  N   UNL     1      52.316   7.746  14.052  0.00  0.00    +0.000 NA
ATOM     15  C   UNL     1      51.573   7.690  15.319  0.00  0.00    +0.000 C 
ATOM     16  H   UNL     1      53.143   8.342  14.080  0.00  0.00    +0.000 HD
ENDBRANCH  11  12
ENDBRANCH   9  11
ENDBRANCH   2   4
BRANCH   2  17
ATOM     17  C   UNL     1      45.968   5.968  10.306  0.00  0.00    +0.000 C 
BRANCH  17  18
ATOM     18  N   UNL     1      44.921   5.155   9.682  0.00  0.00    +0.000 N 
ATOM     19  H   UNL     1      44.072   5.088  10.233  0.00  0.00    +0.000 HD
BRANCH  18  20
ATOM     20  C   UNL     1      45.207   3.924   9.092  0.00  0.00    +0.000 A 
ATOM     21  C   UNL     1      44.764   2.691   9.576  0.00  0.00    +0.000 A 
ATOM     22  C   UNL     1      45.139   1.500   8.947  0.00  0.00    +0.000 A 
ATOM     23  C   UNL     1      45.987   1.528   7.840  0.00  0.00    +0.000 A 
ATOM     24  C   UNL     1      46.475   2.747   7.359  0.00  0.00    +0.000 A 
ATOM     25  C   UNL     1      46.094   3.929   8.003  0.00  0.00    +0.000 A 
BRANCH  24  26
ATOM     26  C   UNL     1      47.379   2.729   6.174  0.00  0.00    +0.000 C 
ATOM     27  N   UNL     1      48.717   2.527   6.365  0.00  0.00    +0.000 N 
ATOM     28  O   UNL     1      46.946   2.904   5.038  0.00  0.00    +0.000 OA
ATOM     29  H   UNL     1      49.168   2.368   7.251  0.00  0.00    +0.000 HD
ATOM     30  H   UNL     1      49.297   2.532   5.536  0.00  0.00    +0.000 HD
ENDBRANCH  24  26
ENDBRANCH  18  20
ENDBRANCH  17  18
ENDBRANCH   2  17
TORSDOF 7
ENDMDL
MODEL 9
REMARK VINA RESULT:    -6.255      2.959      4.121
REMARK INTER + INTRA:         -10.008
REMARK INTER:                  -9.850
REMARK INTRA:                  -0.159
REMARK UNBOUND:                -1.194
REMARK  Name = 
REMARK  9 active torsions:
REMARK  status: ('A' for Active; 'I' for Inactive)
REMARK    1  A    between atoms: C_1  and  C_2
REMARK    2  A    between atoms: C_2  and  C_3
REMARK    3  A    between atoms: C_2  and  C_4
REMARK    4  A    between atoms: C_2  and  C_15
REMARK    5  A    between atoms: C_4  and  N_5
REMARK    6  A    between atoms: N_5  and  C_6
REMARK    7  A    between atoms: C_10  and  C_11
REMARK    8  A    between atoms: C_20  and  O_21
REMARK    9  A    between atoms: O_21  and  C_22
REMARK                            x       y       z     vdW  Elec       q    Type
REMARK                         _______ _______ _______ _____ _____    ______ ____
ROOT
ATOM      1  C   UNL     1      43.955   5.652  12.663  0.00  0.00    +0.000 C 
ATOM      2  C   UNL     1      45.330   5.135  12.179  0.00  0.00    +0.000 C 
ATOM      3  C   UNL     1      45.345   3.584  12.211  0.00  0.00    +0.000 C 
ENDROOT
BRANCH   2   4
ATOM      4  C   UNL     1      46.423   5.637  13.153  0.00  0.00    +0.000 A 
ATOM      5  C   UNL     1      46.767   4.868  14.282  0.00  0.00    +0.000 A 
ATOM      6  C   UNL     1      47.773   5.278  15.151  0.00  0.00    +0.000 A 
ATOM      7  F   UNL     1      48.088   4.503  16.197  0.00  0.00    +0.000 F 
ATOM      8  C   UNL     1      48.466   6.462  14.948  0.00  0.00    +0.000 A 
ATOM      9  C   UNL     1      48.134   7.251  13.854  0.00  0.00    +0.000 A 
ATOM     10  C   UNL     1      47.132   6.837  12.963  0.00  0.00    +0.000 A 
BRANCH   9  11
ATOM     11  O   UNL     1      48.756   8.431  13.531  0.00  0.00    +0.000 OA
BRANCH  11  12
ATOM     12  C   UNL     1      49.353   8.564  12.219  0.00  0.00    +0.000 C 
ATOM     13  C   UNL     1      50.760   9.187  12.129  0.00  0.00    +0.000 C 
ATOM     14  N   UNL     1      50.283  10.170  11.148  0.00  0.00    +0.000 NA
ATOM     15  C   UNL     1      48.887   9.794  11.415  0.00  0.00    +0.000 C 
ATOM     16  H   UNL     1      50.587   9.991  10.192  0.00  0.00    +0.000 HD
ENDBRANCH  11  12
ENDBRANCH   9  11
ENDBRANCH   2   4
BRANCH   2  17
ATOM     17  C   UNL     1      45.550   5.613  10.701  0.00  0.00    +0.000 C 
BRANCH  17  18
ATOM     18  N   UNL     1      44.648   4.943   9.761  0.00  0.00    +0.000 N 
ATOM     19  H   UNL     1      43.683   4.905  10.076  0.00  0.00    +0.000 HD
BRANCH  18  20
ATOM     20  C   UNL     1      44.997   3.743   9.144  0.00  0.00    +0.000 A 
ATOM     21  C   UNL     1      44.469   2.495   9.480  0.00  0.00    +0.000 A 
ATOM     22  C   UNL     1      44.913   1.334   8.839  0.00  0.00    +0.000 A 
ATOM     23  C   UNL     1      45.913   1.408   7.869  0.00  0.00    +0.000 A 
ATOM     24  C   UNL     1      46.485   2.641   7.541  0.00  0.00    +0.000 A 
ATOM     25  C   UNL     1      46.033   3.791   8.196  0.00  0.00    +0.000 A 
BRANCH  24  26
ATOM     26  C   UNL     1      47.551   2.672   6.500  0.00  0.00    +0.000 C 
ATOM     27  N   UNL     1      47.279   3.250   5.291  0.00  0.00    +0.000 N 
ATOM     28  O   UNL     1      48.658   2.180   6.704  0.00  0.00    +0.000 OA
ATOM     29  H   UNL     1      46.410   3.685   5.030  0.00  0.00    +0.000 HD
ATOM     30  H   UNL     1      48.026   3.242   4.609  0.00  0.00    +0.000 HD
ENDBRANCH  24  26
ENDBRANCH  18  20
ENDBRANCH  17  18
ENDBRANCH   2  17
TORSDOF 7
ENDMDL
