MODEL 1
REMARK VINA RESULT:    -8.436      0.000      0.000
REMARK INTER + INTRA:         -11.911
REMARK INTER:                 -10.902
REMARK INTRA:                  -1.009
REMARK UNBOUND:                -1.009
REMARK  Name = 
REMARK  7 active torsions:
REMARK  status: ('A' for Active; 'I' for Inactive)
REMARK    1  A    between atoms: C_1  and  C_2
REMARK    2  A    between atoms: C_2  and  C_3
REMARK    3  A    between atoms: C_2  and  C_14
REMARK    4  A    between atoms: C_3  and  N_4
REMARK    5  A    between atoms: C_8  and  C_9
REMARK    6  A    between atoms: C_18  and  C_19
REMARK    7  A    between atoms: C_19  and  C_20
REMARK                            x       y       z     vdW  Elec       q    Type
REMARK                         _______ _______ _______ _____ _____    ______ ____
ROOT
ATOM      1  C   UNL     1      43.046   4.672  12.756  0.00  0.00    +0.000 C 
ATOM      2  C   UNL     1      43.985   5.745  12.183  0.00  0.00    +0.000 C 
ENDROOT
BRANCH   2   3
ATOM      3  C   UNL     1      45.378   5.500  12.749  0.00  0.00    +0.000 A 
ATOM      4  C   UNL     1      45.715   4.399  13.532  0.00  0.00    +0.000 A 
ATOM      5  C   UNL     1      46.978   4.350  14.092  0.00  0.00    +0.000 A 
ATOM      6  N   UNL     1      47.902   5.326  13.960  0.00  0.00    +0.000 NA
ATOM      7  C   UNL     1      47.579   6.417  13.219  0.00  0.00    +0.000 A 
ATOM      8  C   UNL     1      46.351   6.495  12.561  0.00  0.00    +0.000 A 
BRANCH   7   9
ATOM      9  C   UNL     1      48.598   7.558  13.203  0.00  0.00    +0.000 C 
ATOM     10  C   UNL     1      49.206   7.682  11.796  0.00  0.00    +0.000 C 
ATOM     11  C   UNL     1      47.950   8.856  13.671  0.00  0.00    +0.000 C 
ATOM     12  C   UNL     1      48.236   8.910  15.164  0.00  0.00    +0.000 C 
ATOM     13  O   UNL     1      49.240   7.931  15.465  0.00  0.00    +0.000 OA
ATOM     14  C   UNL     1      49.734   7.416  14.223  0.00  0.00    +0.000 C 
ENDBRANCH   7   9
ENDBRANCH   2   3
BRANCH   2  15
ATOM     15  C   UNL     1      43.851   5.769  10.642  0.00  0.00    +0.000 C 
BRANCH  15  16
ATOM     16  N   UNL     1      43.571   4.439  10.124  0.00  0.00    +0.000 N 
ATOM     17  C   UNL     1      44.546   3.795   9.381  0.00  0.00    +0.000 A 
ATOM     18  C   UNL     1      45.313   4.432   8.415  0.00  0.00    +0.000 A 
ATOM     19  C   UNL     1      46.229   3.696   7.664  0.00  0.00    +0.000 A 
ATOM     20  C   UNL     1      46.334   2.322   7.874  0.00  0.00    +0.000 A 
ATOM     21  C   UNL     1      45.544   1.767   8.862  0.00  0.00    +0.000 A 
ATOM     22  N   UNL     1      44.654   2.469   9.610  0.00  0.00    +0.000 NA
ATOM     23  H   UNL     1      43.243   3.768  10.813  0.00  0.00    +0.000 HD
BRANCH  20  24
ATOM     24  C   UNL     1      47.285   1.531   7.064  0.00  0.00    +0.000 C 
ATOM     25  N   UNL     1      48.361   2.180   6.533  0.00  0.00    +0.000 N 
ATOM     26  O   UNL     1      47.140   0.322   6.915  0.00  0.00    +0.000 OA
ATOM     27  H   UNL     1      48.663   3.094   6.843  0.00  0.00    +0.000 HD
ATOM     28  H   UNL     1      49.057   1.594   6.089  0.00  0.00    +0.000 HD
ENDBRANCH  20  24
ENDBRANCH  15  16
ENDBRANCH   2  15
TORSDOF 5
ENDMDL
MODEL 2
REMARK VINA RESULT:    -7.642      1.807      2.318
REMARK INTER + INTRA:         -10.885
REMARK INTER:                 -10.249
REMARK INTRA:                  -0.635
REMARK UNBOUND:                -1.009
REMARK  Name = 
REMARK  7 active torsions:
REMARK  status: ('A' for Active; 'I' for Inactive)
REMARK    1  A    between atoms: C_1  and  C_2
REMARK    2  A    between atoms: C_2  and  C_3
REMARK    3  A    between atoms: C_2  and  C_14
REMARK    4  A    between atoms: C_3  and  N_4
REMARK    5  A    between atoms: C_8  and  C_9
REMARK    6  A    between atoms: C_18  and  C_19
REMARK    7  A    between atoms: C_19  and  C_20
REMARK                            x       y       z     vdW  Elec       q    Type
REMARK                         _______ _______ _______ _____ _____    ______ ____
ROOT
ATOM      1  C   UNL     1      42.346   5.901  11.741  0.00  0.00    +0.000 C 
ATOM      2  C   UNL     1      43.769   5.816  11.166  0.00  0.00    +0.000 C 
ENDROOT
BRANCH   2   3
ATOM      3  C   UNL     1      44.505   7.097  11.539  0.00  0.00    +0.000 A 
ATOM      4  C   UNL     1      44.001   8.375  11.310  0.00  0.00    +0.000 A 
ATOM      5  C   UNL     1      44.814   9.461  11.577  0.00  0.00    +0.000 A 
ATOM      6  N   UNL     1      46.088   9.363  12.013  0.00  0.00    +0.000 NA
ATOM      7  C   UNL     1      46.600   8.122  12.216  0.00  0.00    +0.000 A 
ATOM      8  C   UNL     1      45.810   6.986  12.043  0.00  0.00    +0.000 A 
BRANCH   7   9
ATOM      9  C   UNL     1      48.085   8.048  12.580  0.00  0.00    +0.000 C 
ATOM     10  C   UNL     1      48.870   9.061  11.731  0.00  0.00    +0.000 C 
ATOM     11  C   UNL     1      48.278   8.274  14.076  0.00  0.00    +0.000 C 
ATOM     12  C   UNL     1      48.283   6.876  14.675  0.00  0.00    +0.000 C 
ATOM     13  O   UNL     1      48.432   5.929  13.608  0.00  0.00    +0.000 OA
ATOM     14  C   UNL     1      48.718   6.662  12.410  0.00  0.00    +0.000 C 
ENDBRANCH   7   9
ENDBRANCH   2   3
BRANCH   2  15
ATOM     15  C   UNL     1      44.418   4.483  11.607  0.00  0.00    +0.000 C 
BRANCH  15  16
ATOM     16  N   UNL     1      44.117   3.421  10.660  0.00  0.00    +0.000 N 
ATOM     17  C   UNL     1      44.980   3.212   9.597  0.00  0.00    +0.000 A 
ATOM     18  C   UNL     1      45.539   4.244   8.855  0.00  0.00    +0.000 A 
ATOM     19  C   UNL     1      46.345   3.947   7.757  0.00  0.00    +0.000 A 
ATOM     20  C   UNL     1      46.551   2.615   7.403  0.00  0.00    +0.000 A 
ATOM     21  C   UNL     1      45.970   1.647   8.200  0.00  0.00    +0.000 A 
ATOM     22  N   UNL     1      45.189   1.917   9.278  0.00  0.00    +0.000 NA
ATOM     23  H   UNL     1      43.946   2.509  11.075  0.00  0.00    +0.000 HD
BRANCH  20  24
ATOM     24  C   UNL     1      47.385   2.294   6.225  0.00  0.00    +0.000 C 
ATOM     25  N   UNL     1      47.365   3.164   5.175  0.00  0.00    +0.000 N 
ATOM     26  O   UNL     1      48.111   1.305   6.212  0.00  0.00    +0.000 OA
ATOM     27  H   UNL     1      47.003   4.106   5.245  0.00  0.00    +0.000 HD
ATOM     28  H   UNL     1      48.035   2.984   4.438  0.00  0.00    +0.000 HD
ENDBRANCH  20  24
ENDBRANCH  15  16
ENDBRANCH   2  15
TORSDOF 5
ENDMDL
MODEL 3
REMARK VINA RESULT:    -7.500      1.536      2.350
REMARK INTER + INTRA:         -10.702
REMARK INTER:                 -10.424
REMARK INTRA:                  -0.278
REMARK UNBOUND:                -1.009
REMARK  Name = 
REMARK  7 active torsions:
REMARK  status: ('A' for Active; 'I' for Inactive)
REMARK    1  A    between atoms: C_1  and  C_2
REMARK    2  A    between atoms: C_2  and  C_3
REMARK    3  A    between atoms: C_2  and  C_14
REMARK    4  A    between atoms: C_3  and  N_4
REMARK    5  A    between atoms: C_8  and  C_9
REMARK    6  A    between atoms: C_18  and  C_19
REMARK    7  A    between atoms: C_19  and  C_20
REMARK                            x       y       z     vdW  Elec       q    Type
REMARK                         _______ _______ _______ _____ _____    ______ ____
ROOT
ATOM      1  C   UNL     1      43.055   5.008  12.963  0.00  0.00    +0.000 C 
ATOM      2  C   UNL     1      43.210   5.920  11.736  0.00  0.00    +0.000 C 
ENDROOT
BRANCH   2   3
ATOM      3  C   UNL     1      44.289   6.949  12.049  0.00  0.00    +0.000 A 
ATOM      4  C   UNL     1      44.306   8.239  11.522  0.00  0.00    +0.000 A 
ATOM      5  C   UNL     1      45.403   9.041  11.781  0.00  0.00    +0.000 A 
ATOM      6  N   UNL     1      46.484   8.640  12.483  0.00  0.00    +0.000 NA
ATOM      7  C   UNL     1      46.491   7.377  12.981  0.00  0.00    +0.000 A 
ATOM      8  C   UNL     1      45.385   6.543  12.827  0.00  0.00    +0.000 A 
BRANCH   7   9
ATOM      9  C   UNL     1      47.786   6.917  13.654  0.00  0.00    +0.000 C 
ATOM     10  C   UNL     1      47.538   5.586  14.384  0.00  0.00    +0.000 C 
ATOM     11  C   UNL     1      48.910   6.814  12.630  0.00  0.00    +0.000 C 
ATOM     12  C   UNL     1      49.610   8.163  12.695  0.00  0.00    +0.000 C 
ATOM     13  O   UNL     1      49.165   8.845  13.876  0.00  0.00    +0.000 OA
ATOM     14  C   UNL     1      48.385   7.921  14.646  0.00  0.00    +0.000 C 
ENDBRANCH   7   9
ENDBRANCH   2   3
BRANCH   2  15
ATOM     15  C   UNL     1      43.422   5.048  10.476  0.00  0.00    +0.000 C 
BRANCH  15  16
ATOM     16  N   UNL     1      44.751   5.252   9.920  0.00  0.00    +0.000 N 
ATOM     17  C   UNL     1      45.301   4.259   9.127  0.00  0.00    +0.000 A 
ATOM     18  C   UNL     1      45.211   2.906   9.428  0.00  0.00    +0.000 A 
ATOM     19  C   UNL     1      45.850   1.973   8.613  0.00  0.00    +0.000 A 
ATOM     20  C   UNL     1      46.598   2.418   7.524  0.00  0.00    +0.000 A 
ATOM     21  C   UNL     1      46.627   3.779   7.286  0.00  0.00    +0.000 A 
ATOM     22  N   UNL     1      46.003   4.702   8.064  0.00  0.00    +0.000 NA
ATOM     23  H   UNL     1      44.879   6.126   9.418  0.00  0.00    +0.000 HD
BRANCH  20  24
ATOM     24  C   UNL     1      47.299   1.436   6.670  0.00  0.00    +0.000 C 
ATOM     25  N   UNL     1      48.289   1.898   5.852  0.00  0.00    +0.000 N 
ATOM     26  O   UNL     1      47.036   0.240   6.729  0.00  0.00    +0.000 OA
ATOM     27  H   UNL     1      48.716   2.807   5.962  0.00  0.00    +0.000 HD
ATOM     28  H   UNL     1      48.832   1.191   5.372  0.00  0.00    +0.000 HD
ENDBRANCH  20  24
ENDBRANCH  15  16
ENDBRANCH   2  15
TORSDOF 5
ENDMDL
MODEL 4
REMARK VINA RESULT:    -7.358      3.336      4.142
REMARK INTER + INTRA:         -10.518
REMARK INTER:                 -10.034
REMARK INTRA:                  -0.484
REMARK UNBOUND:                -1.009
REMARK  Name = 
REMARK  7 active torsions:
REMARK  status: ('A' for Active; 'I' for Inactive)
REMARK    1  A    between atoms: C_1  and  C_2
REMARK    2  A    between atoms: C_2  and  C_3
REMARK    3  A    between atoms: C_2  and  C_14
REMARK    4  A    between atoms: C_3  and  N_4
REMARK    5  A    between atoms: C_8  and  C_9
REMARK    6  A    between atoms: C_18  and  C_19
REMARK    7  A    between atoms: C_19  and  C_20
REMARK                            x       y       z     vdW  Elec       q    Type
REMARK                         _______ _______ _______ _____ _____    ______ ____
ROOT
ATOM      1  C   UNL     1      42.216   5.677  11.778  0.00  0.00    +0.000 C 
ATOM      2  C   UNL     1      43.629   5.605  11.176  0.00  0.00    +0.000 C 
ENDROOT
BRANCH   2   3
ATOM      3  C   UNL     1      44.375   6.871  11.577  0.00  0.00    +0.000 A 
ATOM      4  C   UNL     1      45.293   6.931  12.623  0.00  0.00    +0.000 A 
ATOM      5  C   UNL     1      45.813   8.164  12.973  0.00  0.00    +0.000 A 
ATOM      6  N   UNL     1      45.458   9.328  12.388  0.00  0.00    +0.000 NA
ATOM      7  C   UNL     1      44.545   9.287  11.384  0.00  0.00    +0.000 A 
ATOM      8  C   UNL     1      44.040   8.069  10.927  0.00  0.00    +0.000 A 
BRANCH   7   9
ATOM      9  C   UNL     1      44.069  10.635  10.838  0.00  0.00    +0.000 C 
ATOM     10  C   UNL     1      45.288  11.514  10.514  0.00  0.00    +0.000 C 
ATOM     11  C   UNL     1      43.165  10.429   9.628  0.00  0.00    +0.000 C 
ATOM     12  C   UNL     1      41.757  10.408  10.202  0.00  0.00    +0.000 C 
ATOM     13  O   UNL     1      41.813  10.901  11.548  0.00  0.00    +0.000 OA
ATOM     14  C   UNL     1      43.134  11.410  11.773  0.00  0.00    +0.000 C 
ENDBRANCH   7   9
ENDBRANCH   2   3
BRANCH   2  15
ATOM     15  C   UNL     1      44.280   4.257  11.565  0.00  0.00    +0.000 C 
BRANCH  15  16
ATOM     16  N   UNL     1      44.023   3.245  10.552  0.00  0.00    +0.000 N 
ATOM     17  C   UNL     1      44.930   3.094   9.516  0.00  0.00    +0.000 A 
ATOM     18  C   UNL     1      45.514   4.165   8.853  0.00  0.00    +0.000 A 
ATOM     19  C   UNL     1      46.367   3.928   7.776  0.00  0.00    +0.000 A 
ATOM     20  C   UNL     1      46.593   2.617   7.361  0.00  0.00    +0.000 A 
ATOM     21  C   UNL     1      45.983   1.608   8.081  0.00  0.00    +0.000 A 
ATOM     22  N   UNL     1      45.157   1.818   9.139  0.00  0.00    +0.000 NA
ATOM     23  H   UNL     1      43.838   2.312  10.911  0.00  0.00    +0.000 HD
BRANCH  20  24
ATOM     24  C   UNL     1      47.477   2.360   6.204  0.00  0.00    +0.000 C 
ATOM     25  N   UNL     1      47.205   3.015   5.039  0.00  0.00    +0.000 N 
ATOM     26  O   UNL     1      48.452   1.622   6.301  0.00  0.00    +0.000 OA
ATOM     27  H   UNL     1      46.593   3.818   4.986  0.00  0.00    +0.000 HD
ATOM     28  H   UNL     1      47.894   2.916   4.303  0.00  0.00    +0.000 HD
ENDBRANCH  20  24
ENDBRANCH  15  16
ENDBRANCH   2  15
TORSDOF 5
ENDMDL
MODEL 5
REMARK VINA RESULT:    -7.037      2.911      5.001
REMARK INTER + INTRA:         -10.103
REMARK INTER:                  -9.171
REMARK INTRA:                  -0.932
REMARK UNBOUND:                -1.009
REMARK  Name = 
REMARK  7 active torsions:
REMARK  status: ('A' for Active; 'I' for Inactive)
REMARK    1  A    between atoms: C_1  and  C_2
REMARK    2  A    between atoms: C_2  and  C_3
REMARK    3  A    between atoms: C_2  and  C_14
REMARK    4  A    between atoms: C_3  and  N_4
REMARK    5  A    between atoms: C_8  and  C_9
REMARK    6  A    between atoms: C_18  and  C_19
REMARK    7  A    between atoms: C_19  and  C_20
REMARK                            x       y       z     vdW  Elec       q    Type
REMARK                         _______ _______ _______ _____ _____    ______ ____
ROOT
ATOM      1  C   UNL     1      49.242   7.741  11.732  0.00  0.00    +0.000 C 
ATOM      2  C   UNL     1      48.185   7.331  12.770  0.00  0.00    +0.000 C 
ENDROOT
BRANCH   2   3
ATOM      3  C   UNL     1      48.888   7.140  14.108  0.00  0.00    +0.000 A 
ATOM      4  C   UNL     1      50.173   7.602  14.381  0.00  0.00    +0.000 A 
ATOM      5  C   UNL     1      50.754   7.259  15.589  0.00  0.00    +0.000 A 
ATOM      6  N   UNL     1      50.167   6.468  16.512  0.00  0.00    +0.000 NA
ATOM      7  C   UNL     1      48.924   5.990  16.247  0.00  0.00    +0.000 A 
ATOM      8  C   UNL     1      48.248   6.361  15.085  0.00  0.00    +0.000 A 
BRANCH   7   9
ATOM      9  C   UNL     1      48.349   4.991  17.254  0.00  0.00    +0.000 C 
ATOM     10  C   UNL     1      47.789   5.752  18.467  0.00  0.00    +0.000 C 
ATOM     11  C   UNL     1      47.297   4.111  16.587  0.00  0.00    +0.000 C 
ATOM     12  C   UNL     1      48.065   2.880  16.130  0.00  0.00    +0.000 C 
ATOM     13  O   UNL     1      49.347   2.884  16.772  0.00  0.00    +0.000 OA
ATOM     14  C   UNL     1      49.343   3.935  17.748  0.00  0.00    +0.000 C 
ENDBRANCH   7   9
ENDBRANCH   2   3
BRANCH   2  15
ATOM     15  C   UNL     1      47.016   8.344  12.733  0.00  0.00    +0.000 C 
BRANCH  15  16
ATOM     16  N   UNL     1      45.774   7.719  13.161  0.00  0.00    +0.000 N 
ATOM     17  C   UNL     1      45.395   6.521  12.578  0.00  0.00    +0.000 A 
ATOM     18  C   UNL     1      45.507   6.266  11.218  0.00  0.00    +0.000 A 
ATOM     19  C   UNL     1      45.041   5.058  10.701  0.00  0.00    +0.000 A 
ATOM     20  C   UNL     1      44.439   4.138  11.556  0.00  0.00    +0.000 A 
ATOM     21  C   UNL     1      44.378   4.462  12.899  0.00  0.00    +0.000 A 
ATOM     22  N   UNL     1      44.835   5.629  13.422  0.00  0.00    +0.000 NA
ATOM     23  H   UNL     1      45.678   7.594  14.165  0.00  0.00    +0.000 HD
BRANCH  20  24
ATOM     24  C   UNL     1      43.920   2.865  11.011  0.00  0.00    +0.000 C 
ATOM     25  N   UNL     1      44.601   2.293   9.977  0.00  0.00    +0.000 N 
ATOM     26  O   UNL     1      42.941   2.315  11.505  0.00  0.00    +0.000 OA
ATOM     27  H   UNL     1      45.542   2.559   9.720  0.00  0.00    +0.000 HD
ATOM     28  H   UNL     1      44.296   1.365   9.706  0.00  0.00    +0.000 HD
ENDBRANCH  20  24
ENDBRANCH  15  16
ENDBRANCH   2  15
TORSDOF 5
ENDMDL
