MODEL 1
REMARK VINA RESULT:    -8.515      0.000      0.000
REMARK INTER + INTRA:         -11.122
REMARK INTER:                 -10.507
REMARK INTRA:                  -0.615
REMARK UNBOUND:                -0.615
REMARK  Name = 
REMARK  5 active torsions:
REMARK  status: ('A' for Active; 'I' for Inactive)
REMARK    1  A    between atoms: C_1  and  C_2
REMARK    2  A    between atoms: C_2  and  N_3
REMARK    3  A    between atoms: C_2  and  C_14
REMARK    4  A    between atoms: N_3  and  C_4
REMARK    5  A    between atoms: C_7  and  C_8
REMARK                            x       y       z     vdW  Elec       q    Type
REMARK                         _______ _______ _______ _____ _____    ______ ____
ROOT
ATOM      1  C   UNL     1      44.745   3.615   9.411  0.00  0.00    +0.000 A 
ATOM      2  C   UNL     1      45.424   4.500   8.566  0.00  0.00    +0.000 A 
ATOM      3  C   UNL     1      46.356   4.043   7.620  0.00  0.00    +0.000 A 
ATOM      4  C   UNL     1      46.608   2.676   7.475  0.00  0.00    +0.000 A 
ATOM      5  C   UNL     1      45.904   1.786   8.281  0.00  0.00    +0.000 A 
ATOM      6  F   UNL     1      46.084   0.461   8.178  0.00  0.00    +0.000 F 
ATOM      7  C   UNL     1      44.978   2.246   9.222  0.00  0.00    +0.000 A 
ENDROOT
BRANCH   4   8
ATOM      8  C   UNL     1      47.600   2.242   6.457  0.00  0.00    +0.000 C 
ATOM      9  N   UNL     1      47.711   2.971   5.307  0.00  0.00    +0.000 N 
ATOM     10  O   UNL     1      48.302   1.252   6.633  0.00  0.00    +0.000 OA
ATOM     11  H   UNL     1      47.154   3.796   5.122  0.00  0.00    +0.000 HD
ATOM     12  H   UNL     1      48.388   2.673   4.619  0.00  0.00    +0.000 HD
ENDBRANCH   4   8
BRANCH   1  13
ATOM     13  N   UNL     1      43.763   4.004  10.319  0.00  0.00    +0.000 N 
ATOM     14  H   UNL     1      43.440   3.245  10.912  0.00  0.00    +0.000 HD
BRANCH  13  16
ATOM     15  C   UNL     1      42.473   5.428  11.796  0.00  0.00    +0.000 C 
ATOM     16  C   UNL     1      43.799   5.279  11.038  0.00  0.00    +0.000 C 
BRANCH  16  17
ATOM     17  C   UNL     1      45.032   5.346  11.931  0.00  0.00    +0.000 A 
ATOM     18  C   UNL     1      46.006   6.328  11.674  0.00  0.00    +0.000 A 
ATOM     19  C   UNL     1      47.127   6.466  12.498  0.00  0.00    +0.000 A 
ATOM     20  C   UNL     1      47.300   5.617  13.586  0.00  0.00    +0.000 A 
ATOM     21  C   UNL     1      46.366   4.616  13.837  0.00  0.00    +0.000 A 
ATOM     22  C   UNL     1      45.245   4.475  13.011  0.00  0.00    +0.000 A 
ENDBRANCH  16  17
ENDBRANCH  13  16
ENDBRANCH   1  13
TORSDOF 4
ENDMDL
MODEL 2
REMARK VINA RESULT:    -8.009      1.145      1.585
REMARK INTER + INTRA:         -10.497
REMARK INTER:                 -10.068
REMARK INTRA:                  -0.429
REMARK UNBOUND:                -0.615
REMARK  Name = 
REMARK  5 active torsions:
REMARK  status: ('A' for Active; 'I' for Inactive)
REMARK    1  A    between atoms: C_1  and  C_2
REMARK    2  A    between atoms: C_2  and  N_3
REMARK    3  A    between atoms: C_2  and  C_14
REMARK    4  A    between atoms: N_3  and  C_4
REMARK    5  A    between atoms: C_7  and  C_8
REMARK                            x       y       z     vdW  Elec       q    Type
REMARK                         _______ _______ _______ _____ _____    ______ ____
ROOT
ATOM      1  C   UNL     1      44.408   3.505   9.513  0.00  0.00    +0.000 A 
ATOM      2  C   UNL     1      44.687   2.134   9.511  0.00  0.00    +0.000 A 
ATOM      3  C   UNL     1      45.634   1.578   8.636  0.00  0.00    +0.000 A 
ATOM      4  C   UNL     1      46.353   2.393   7.757  0.00  0.00    +0.000 A 
ATOM      5  C   UNL     1      46.114   3.764   7.784  0.00  0.00    +0.000 A 
ATOM      6  F   UNL     1      46.785   4.603   6.981  0.00  0.00    +0.000 F 
ATOM      7  C   UNL     1      45.169   4.312   8.656  0.00  0.00    +0.000 A 
ENDROOT
BRANCH   4   8
ATOM      8  C   UNL     1      47.347   1.758   6.854  0.00  0.00    +0.000 C 
ATOM      9  N   UNL     1      48.457   2.475   6.503  0.00  0.00    +0.000 N 
ATOM     10  O   UNL     1      47.183   0.622   6.423  0.00  0.00    +0.000 OA
ATOM     11  H   UNL     1      48.634   3.414   6.837  0.00  0.00    +0.000 HD
ATOM     12  H   UNL     1      49.130   2.039   5.889  0.00  0.00    +0.000 HD
ENDBRANCH   4   8
BRANCH   1  13
ATOM     13  N   UNL     1      43.531   4.120  10.403  0.00  0.00    +0.000 N 
ATOM     14  H   UNL     1      43.139   3.481  11.089  0.00  0.00    +0.000 HD
BRANCH  13  16
ATOM     15  C   UNL     1      42.491   5.888  11.694  0.00  0.00    +0.000 C 
ATOM     16  C   UNL     1      43.771   5.448  10.972  0.00  0.00    +0.000 C 
BRANCH  16  17
ATOM     17  C   UNL     1      45.007   5.424  11.864  0.00  0.00    +0.000 A 
ATOM     18  C   UNL     1      46.055   6.323  11.600  0.00  0.00    +0.000 A 
ATOM     19  C   UNL     1      47.183   6.378  12.423  0.00  0.00    +0.000 A 
ATOM     20  C   UNL     1      47.289   5.527  13.517  0.00  0.00    +0.000 A 
ATOM     21  C   UNL     1      46.279   4.605  13.777  0.00  0.00    +0.000 A 
ATOM     22  C   UNL     1      45.149   4.547  12.952  0.00  0.00    +0.000 A 
ENDBRANCH  16  17
ENDBRANCH  13  16
ENDBRANCH   1  13
TORSDOF 4
ENDMDL
MODEL 3
REMARK VINA RESULT:    -6.853      1.546      2.335
REMARK INTER + INTRA:          -9.071
REMARK INTER:                  -9.058
REMARK INTRA:                  -0.013
REMARK UNBOUND:                -0.615
REMARK  Name = 
REMARK  5 active torsions:
REMARK  status: ('A' for Active; 'I' for Inactive)
REMARK    1  A    between atoms: C_1  and  C_2
REMARK    2  A    between atoms: C_2  and  N_3
REMARK    3  A    between atoms: C_2  and  C_14
REMARK    4  A    between atoms: N_3  and  C_4
REMARK    5  A    between atoms: C_7  and  C_8
REMARK                            x       y       z     vdW  Elec       q    Type
REMARK                         _______ _______ _______ _____ _____    ______ ____
ROOT
ATOM      1  C   UNL     1      44.308   4.266   9.698  0.00  0.00    +0.000 A 
ATOM      2  C   UNL     1      44.107   2.887   9.820  0.00  0.00    +0.000 A 
ATOM      3  C   UNL     1      44.880   1.965   9.096  0.00  0.00    +0.000 A 
ATOM      4  C   UNL     1      45.901   2.405   8.249  0.00  0.00    +0.000 A 
ATOM      5  C   UNL     1      46.137   3.773   8.156  0.00  0.00    +0.000 A 
ATOM      6  F   UNL     1      47.116   4.260   7.378  0.00  0.00    +0.000 F 
ATOM      7  C   UNL     1      45.365   4.687   8.879  0.00  0.00    +0.000 A 
ENDROOT
BRANCH   4   8
ATOM      8  C   UNL     1      46.693   1.390   7.507  0.00  0.00    +0.000 C 
ATOM      9  N   UNL     1      47.257   1.752   6.316  0.00  0.00    +0.000 N 
ATOM     10  O   UNL     1      46.839   0.253   7.941  0.00  0.00    +0.000 OA
ATOM     11  H   UNL     1      47.165   2.679   5.921  0.00  0.00    +0.000 HD
ATOM     12  H   UNL     1      47.796   1.059   5.815  0.00  0.00    +0.000 HD
ENDBRANCH   4   8
BRANCH   1  13
ATOM     13  N   UNL     1      43.620   5.222  10.441  0.00  0.00    +0.000 N 
ATOM     14  H   UNL     1      42.621   5.234  10.256  0.00  0.00    +0.000 HD
BRANCH  13  16
ATOM     15  C   UNL     1      44.117   4.166  12.565  0.00  0.00    +0.000 C 
ATOM     16  C   UNL     1      43.915   5.506  11.847  0.00  0.00    +0.000 C 
BRANCH  16  17
ATOM     17  C   UNL     1      45.106   6.451  11.955  0.00  0.00    +0.000 A 
ATOM     18  C   UNL     1      46.393   5.909  12.119  0.00  0.00    +0.000 A 
ATOM     19  C   UNL     1      47.523   6.731  12.166  0.00  0.00    +0.000 A 
ATOM     20  C   UNL     1      47.384   8.111  12.063  0.00  0.00    +0.000 A 
ATOM     21  C   UNL     1      46.116   8.671  11.936  0.00  0.00    +0.000 A 
ATOM     22  C   UNL     1      44.984   7.849  11.891  0.00  0.00    +0.000 A 
ENDBRANCH  16  17
ENDBRANCH  13  16
ENDBRANCH   1  13
TORSDOF 4
ENDMDL
MODEL 4
REMARK VINA RESULT:    -6.704      3.997      6.717
REMARK INTER + INTRA:          -8.887
REMARK INTER:                  -8.211
REMARK INTRA:                  -0.675
REMARK UNBOUND:                -0.615
REMARK  Name = 
REMARK  5 active torsions:
REMARK  status: ('A' for Active; 'I' for Inactive)
REMARK    1  A    between atoms: C_1  and  C_2
REMARK    2  A    between atoms: C_2  and  N_3
REMARK    3  A    between atoms: C_2  and  C_14
REMARK    4  A    between atoms: N_3  and  C_4
REMARK    5  A    between atoms: C_7  and  C_8
REMARK                            x       y       z     vdW  Elec       q    Type
REMARK                         _______ _______ _______ _____ _____    ______ ____
ROOT
ATOM      1  C   UNL     1      45.639   6.807  11.698  0.00  0.00    +0.000 A 
ATOM      2  C   UNL     1      45.286   8.078  12.165  0.00  0.00    +0.000 A 
ATOM      3  C   UNL     1      46.084   8.769  13.091  0.00  0.00    +0.000 A 
ATOM      4  C   UNL     1      47.281   8.212  13.551  0.00  0.00    +0.000 A 
ATOM      5  C   UNL     1      47.662   6.967  13.058  0.00  0.00    +0.000 A 
ATOM      6  F   UNL     1      48.809   6.388  13.443  0.00  0.00    +0.000 F 
ATOM      7  C   UNL     1      46.863   6.283  12.137  0.00  0.00    +0.000 A 
ENDROOT
BRANCH   4   8
ATOM      8  C   UNL     1      48.092   8.983  14.528  0.00  0.00    +0.000 C 
ATOM      9  N   UNL     1      47.585   9.178  15.782  0.00  0.00    +0.000 N 
ATOM     10  O   UNL     1      49.188   9.443  14.225  0.00  0.00    +0.000 OA
ATOM     11  H   UNL     1      46.687   8.815  16.076  0.00  0.00    +0.000 HD
ATOM     12  H   UNL     1      48.141   9.702  16.443  0.00  0.00    +0.000 HD
ENDBRANCH   4   8
BRANCH   1  13
ATOM     13  N   UNL     1      44.924   6.106  10.730  0.00  0.00    +0.000 N 
ATOM     14  H   UNL     1      45.200   6.336   9.779  0.00  0.00    +0.000 HD
BRANCH  13  16
ATOM     15  C   UNL     1      43.047   4.599  11.014  0.00  0.00    +0.000 C 
ATOM     16  C   UNL     1      44.571   4.691  10.866  0.00  0.00    +0.000 C 
BRANCH  16  17
ATOM     17  C   UNL     1      45.128   3.894   9.692  0.00  0.00    +0.000 A 
ATOM     18  C   UNL     1      45.746   4.584   8.633  0.00  0.00    +0.000 A 
ATOM     19  C   UNL     1      46.323   3.895   7.562  0.00  0.00    +0.000 A 
ATOM     20  C   UNL     1      46.280   2.505   7.524  0.00  0.00    +0.000 A 
ATOM     21  C   UNL     1      45.642   1.805   8.544  0.00  0.00    +0.000 A 
ATOM     22  C   UNL     1      45.063   2.494   9.616  0.00  0.00    +0.000 A 
ENDBRANCH  16  17
ENDBRANCH  13  16
ENDBRANCH   1  13
TORSDOF 4
ENDMDL
MODEL 5
REMARK VINA RESULT:    -6.627      3.689      6.495
REMARK INTER + INTRA:          -8.792
REMARK INTER:                  -8.141
REMARK INTRA:                  -0.651
REMARK UNBOUND:                -0.615
REMARK  Name = 
REMARK  5 active torsions:
REMARK  status: ('A' for Active; 'I' for Inactive)
REMARK    1  A    between atoms: C_1  and  C_2
REMARK    2  A    between atoms: C_2  and  N_3
REMARK    3  A    between atoms: C_2  and  C_14
REMARK    4  A    between atoms: N_3  and  C_4
REMARK    5  A    between atoms: C_7  and  C_8
REMARK                            x       y       z     vdW  Elec       q    Type
REMARK                         _______ _______ _______ _____ _____    ______ ____
ROOT
ATOM      1  C   UNL     1      46.245   5.930  11.802  0.00  0.00    +0.000 A 
ATOM      2  C   UNL     1      47.178   6.972  11.764  0.00  0.00    +0.000 A 
ATOM      3  C   UNL     1      48.010   7.254  12.860  0.00  0.00    +0.000 A 
ATOM      4  C   UNL     1      47.947   6.473  14.018  0.00  0.00    +0.000 A 
ATOM      5  C   UNL     1      47.053   5.407  14.047  0.00  0.00    +0.000 A 
ATOM      6  F   UNL     1      46.959   4.606  15.119  0.00  0.00    +0.000 F 
ATOM      7  C   UNL     1      46.227   5.131  12.953  0.00  0.00    +0.000 A 
ENDROOT
BRANCH   4   8
ATOM      8  C   UNL     1      48.850   6.809  15.150  0.00  0.00    +0.000 C 
ATOM      9  N   UNL     1      48.291   7.256  16.314  0.00  0.00    +0.000 N 
ATOM     10  O   UNL     1      50.067   6.696  15.049  0.00  0.00    +0.000 OA
ATOM     11  H   UNL     1      47.293   7.362  16.442  0.00  0.00    +0.000 HD
ATOM     12  H   UNL     1      48.909   7.483  17.081  0.00  0.00    +0.000 HD
ENDBRANCH   4   8
BRANCH   1  13
ATOM     13  N   UNL     1      45.445   5.562  10.724  0.00  0.00    +0.000 N 
ATOM     14  H   UNL     1      45.768   5.936   9.835  0.00  0.00    +0.000 HD
BRANCH  13  16
ATOM     15  C   UNL     1      43.346   4.359  10.569  0.00  0.00    +0.000 C 
ATOM     16  C   UNL     1      44.874   4.222  10.572  0.00  0.00    +0.000 C 
BRANCH  16  17
ATOM     17  C   UNL     1      45.437   3.546   9.328  0.00  0.00    +0.000 A 
ATOM     18  C   UNL     1      45.937   4.348   8.285  0.00  0.00    +0.000 A 
ATOM     19  C   UNL     1      46.515   3.775   7.149  0.00  0.00    +0.000 A 
ATOM     20  C   UNL     1      46.593   2.392   7.028  0.00  0.00    +0.000 A 
ATOM     21  C   UNL     1      46.073   1.580   8.032  0.00  0.00    +0.000 A 
ATOM     22  C   UNL     1      45.491   2.152   9.170  0.00  0.00    +0.000 A 
ENDBRANCH  16  17
ENDBRANCH  13  16
ENDBRANCH   1  13
TORSDOF 4
ENDMDL
MODEL 6
REMARK VINA RESULT:    -6.535      3.307      6.104
REMARK INTER + INTRA:          -8.679
REMARK INTER:                  -9.266
REMARK INTRA:                   0.587
REMARK UNBOUND:                -0.615
REMARK  Name = 
REMARK  5 active torsions:
REMARK  status: ('A' for Active; 'I' for Inactive)
REMARK    1  A    between atoms: C_1  and  C_2
REMARK    2  A    between atoms: C_2  and  N_3
REMARK    3  A    between atoms: C_2  and  C_14
REMARK    4  A    between atoms: N_3  and  C_4
REMARK    5  A    between atoms: C_7  and  C_8
REMARK                            x       y       z     vdW  Elec       q    Type
REMARK                         _______ _______ _______ _____ _____    ______ ____
ROOT
ATOM      1  C   UNL     1      45.568   3.803  11.976  0.00  0.00    +0.000 A 
ATOM      2  C   UNL     1      46.185   3.532  13.202  0.00  0.00    +0.000 A 
ATOM      3  C   UNL     1      46.970   4.494  13.858  0.00  0.00    +0.000 A 
ATOM      4  C   UNL     1      47.132   5.771  13.312  0.00  0.00    +0.000 A 
ATOM      5  C   UNL     1      46.485   6.062  12.114  0.00  0.00    +0.000 A 
ATOM      6  F   UNL     1      46.582   7.275  11.548  0.00  0.00    +0.000 F 
ATOM      7  C   UNL     1      45.705   5.101  11.465  0.00  0.00    +0.000 A 
ENDROOT
BRANCH   4   8
ATOM      8  C   UNL     1      47.969   6.755  14.045  0.00  0.00    +0.000 C 
ATOM      9  N   UNL     1      47.380   7.907  14.485  0.00  0.00    +0.000 N 
ATOM     10  O   UNL     1      49.160   6.550  14.251  0.00  0.00    +0.000 OA
ATOM     11  H   UNL     1      46.401   8.116  14.340  0.00  0.00    +0.000 HD
ATOM     12  H   UNL     1      47.953   8.573  14.984  0.00  0.00    +0.000 HD
ENDBRANCH   4   8
BRANCH   1  13
ATOM     13  N   UNL     1      44.725   2.913  11.315  0.00  0.00    +0.000 N 
ATOM     14  H   UNL     1      44.053   2.462  11.930  0.00  0.00    +0.000 HD
BRANCH  13  16
ATOM     15  C   UNL     1      43.659   4.636   9.986  0.00  0.00    +0.000 C 
ATOM     16  C   UNL     1      44.154   3.184   9.994  0.00  0.00    +0.000 C 
BRANCH  16  17
ATOM     17  C   UNL     1      45.173   2.872   8.905  0.00  0.00    +0.000 A 
ATOM     18  C   UNL     1      45.605   3.909   8.059  0.00  0.00    +0.000 A 
ATOM     19  C   UNL     1      46.580   3.685   7.082  0.00  0.00    +0.000 A 
ATOM     20  C   UNL     1      47.130   2.417   6.926  0.00  0.00    +0.000 A 
ATOM     21  C   UNL     1      46.692   1.369   7.729  0.00  0.00    +0.000 A 
ATOM     22  C   UNL     1      45.713   1.591   8.706  0.00  0.00    +0.000 A 
ENDBRANCH  16  17
ENDBRANCH  13  16
ENDBRANCH   1  13
TORSDOF 4
ENDMDL
MODEL 7
REMARK VINA RESULT:    -6.235      4.070      6.889
REMARK INTER + INTRA:          -8.308
REMARK INTER:                  -7.627
REMARK INTRA:                  -0.680
REMARK UNBOUND:                -0.615
REMARK  Name = 
REMARK  5 active torsions:
REMARK  status: ('A' for Active; 'I' for Inactive)
REMARK    1  A    between atoms: C_1  and  C_2
REMARK    2  A    between atoms: C_2  and  N_3
REMARK    3  A    between atoms: C_2  and  C_14
REMARK    4  A    between atoms: N_3  and  C_4
REMARK    5  A    between atoms: C_7  and  C_8
REMARK                            x       y       z     vdW  Elec       q    Type
REMARK                         _______ _______ _______ _____ _____    ______ ____
ROOT
ATOM      1  C   UNL     1      46.207   6.162  12.289  0.00  0.00    +0.000 A 
ATOM      2  C   UNL     1      46.525   5.150  13.200  0.00  0.00    +0.000 A 
ATOM      3  C   UNL     1      47.437   5.363  14.247  0.00  0.00    +0.000 A 
ATOM      4  C   UNL     1      48.033   6.615  14.425  0.00  0.00    +0.000 A 
ATOM      5  C   UNL     1      47.689   7.640  13.549  0.00  0.00    +0.000 A 
ATOM      6  F   UNL     1      48.209   8.870  13.678  0.00  0.00    +0.000 F 
ATOM      7  C   UNL     1      46.781   7.422  12.508  0.00  0.00    +0.000 A 
ENDROOT
BRANCH   4   8
ATOM      8  C   UNL     1      48.989   6.791  15.549  0.00  0.00    +0.000 C 
ATOM      9  N   UNL     1      48.515   7.285  16.732  0.00  0.00    +0.000 N 
ATOM     10  O   UNL     1      50.176   6.509  15.427  0.00  0.00    +0.000 OA
ATOM     11  H   UNL     1      47.543   7.529  16.878  0.00  0.00    +0.000 HD
ATOM     12  H   UNL     1      49.168   7.403  17.494  0.00  0.00    +0.000 HD
ENDBRANCH   4   8
BRANCH   1  13
ATOM     13  N   UNL     1      45.261   6.029  11.275  0.00  0.00    +0.000 N 
ATOM     14  H   UNL     1      45.535   6.481  10.407  0.00  0.00    +0.000 HD
BRANCH  13  16
ATOM     15  C   UNL     1      43.038   5.157  10.864  0.00  0.00    +0.000 C 
ATOM     16  C   UNL     1      44.518   4.791  11.032  0.00  0.00    +0.000 C 
BRANCH  16  17
ATOM     17  C   UNL     1      45.111   4.046   9.842  0.00  0.00    +0.000 A 
ATOM     18  C   UNL     1      45.021   2.642   9.804  0.00  0.00    +0.000 A 
ATOM     19  C   UNL     1      45.497   1.918   8.708  0.00  0.00    +0.000 A 
ATOM     20  C   UNL     1      46.085   2.583   7.637  0.00  0.00    +0.000 A 
ATOM     21  C   UNL     1      46.215   3.968   7.669  0.00  0.00    +0.000 A 
ATOM     22  C   UNL     1      45.740   4.695   8.768  0.00  0.00    +0.000 A 
ENDBRANCH  16  17
ENDBRANCH  13  16
ENDBRANCH   1  13
TORSDOF 4
ENDMDL
MODEL 8
REMARK VINA RESULT:    -5.812      4.527      7.236
REMARK INTER + INTRA:          -7.787
REMARK INTER:                  -7.166
REMARK INTRA:                  -0.621
REMARK UNBOUND:                -0.615
REMARK  Name = 
REMARK  5 active torsions:
REMARK  status: ('A' for Active; 'I' for Inactive)
REMARK    1  A    between atoms: C_1  and  C_2
REMARK    2  A    between atoms: C_2  and  N_3
REMARK    3  A    between atoms: C_2  and  C_14
REMARK    4  A    between atoms: N_3  and  C_4
REMARK    5  A    between atoms: C_7  and  C_8
REMARK                            x       y       z     vdW  Elec       q    Type
REMARK                         _______ _______ _______ _____ _____    ______ ____
ROOT
ATOM      1  C   UNL     1      47.164   5.898  13.495  0.00  0.00    +0.000 A 
ATOM      2  C   UNL     1      48.108   6.791  14.014  0.00  0.00    +0.000 A 
ATOM      3  C   UNL     1      48.671   6.608  15.288  0.00  0.00    +0.000 A 
ATOM      4  C   UNL     1      48.323   5.499  16.065  0.00  0.00    +0.000 A 
ATOM      5  C   UNL     1      47.418   4.582  15.537  0.00  0.00    +0.000 A 
ATOM      6  F   UNL     1      47.058   3.486  16.223  0.00  0.00    +0.000 F 
ATOM      7  C   UNL     1      46.860   4.770  14.270  0.00  0.00    +0.000 A 
ENDROOT
BRANCH   4   8
ATOM      8  C   UNL     1      48.949   5.346  17.403  0.00  0.00    +0.000 C 
ATOM      9  N   UNL     1      50.300   5.152  17.470  0.00  0.00    +0.000 N 
ATOM     10  O   UNL     1      48.278   5.387  18.429  0.00  0.00    +0.000 OA
ATOM     11  H   UNL     1      50.892   5.115  16.650  0.00  0.00    +0.000 HD
ATOM     12  H   UNL     1      50.721   5.050  18.383  0.00  0.00    +0.000 HD
ENDBRANCH   4   8
BRANCH   1  13
ATOM     13  N   UNL     1      46.625   5.992  12.215  0.00  0.00    +0.000 N 
ATOM     14  H   UNL     1      47.241   5.633  11.491  0.00  0.00    +0.000 HD
BRANCH  13  16
ATOM     15  C   UNL     1      44.515   7.057  11.678  0.00  0.00    +0.000 C 
ATOM     16  C   UNL     1      45.218   5.715  11.918  0.00  0.00    +0.000 C 
BRANCH  16  17
ATOM     17  C   UNL     1      45.108   4.741  10.751  0.00  0.00    +0.000 A 
ATOM     18  C   UNL     1      44.558   3.466  10.977  0.00  0.00    +0.000 A 
ATOM     19  C   UNL     1      44.384   2.559   9.927  0.00  0.00    +0.000 A 
ATOM     20  C   UNL     1      44.767   2.906   8.636  0.00  0.00    +0.000 A 
ATOM     21  C   UNL     1      45.345   4.149   8.396  0.00  0.00    +0.000 A 
ATOM     22  C   UNL     1      45.523   5.058   9.447  0.00  0.00    +0.000 A 
ENDBRANCH  16  17
ENDBRANCH  13  16
ENDBRANCH   1  13
TORSDOF 4
ENDMDL
MODEL 9
REMARK VINA RESULT:    -5.682      3.600      5.208
REMARK INTER + INTRA:          -7.626
REMARK INTER:                  -6.972
REMARK INTRA:                  -0.654
REMARK UNBOUND:                -0.615
REMARK  Name = 
REMARK  5 active torsions:
REMARK  status: ('A' for Active; 'I' for Inactive)
REMARK    1  A    between atoms: C_1  and  C_2
REMARK    2  A    between atoms: C_2  and  N_3
REMARK    3  A    between atoms: C_2  and  C_14
REMARK    4  A    between atoms: N_3  and  C_4
REMARK    5  A    between atoms: C_7  and  C_8
REMARK                            x       y       z     vdW  Elec       q    Type
REMARK                         _______ _______ _______ _____ _____    ______ ____
ROOT
ATOM      1  C   UNL     1      45.681   6.184  12.740  0.00  0.00    +0.000 A 
ATOM      2  C   UNL     1      46.078   4.897  13.118  0.00  0.00    +0.000 A 
ATOM      3  C   UNL     1      45.472   3.752  12.576  0.00  0.00    +0.000 A 
ATOM      4  C   UNL     1      44.466   3.870  11.613  0.00  0.00    +0.000 A 
ATOM      5  C   UNL     1      44.095   5.146  11.199  0.00  0.00    +0.000 A 
ATOM      6  F   UNL     1      43.151   5.328  10.263  0.00  0.00    +0.000 F 
ATOM      7  C   UNL     1      44.701   6.283  11.742  0.00  0.00    +0.000 A 
ENDROOT
BRANCH   4   8
ATOM      8  C   UNL     1      43.857   2.629  11.067  0.00  0.00    +0.000 C 
ATOM      9  N   UNL     1      44.395   2.086   9.934  0.00  0.00    +0.000 N 
ATOM     10  O   UNL     1      42.893   2.101  11.610  0.00  0.00    +0.000 OA
ATOM     11  H   UNL     1      45.192   2.487   9.456  0.00  0.00    +0.000 HD
ATOM     12  H   UNL     1      43.979   1.242   9.567  0.00  0.00    +0.000 HD
ENDBRANCH   4   8
BRANCH   1  13
ATOM     13  N   UNL     1      46.291   7.352  13.191  0.00  0.00    +0.000 N 
ATOM     14  H   UNL     1      46.863   7.213  14.020  0.00  0.00    +0.000 HD
BRANCH  13  16
ATOM     15  C   UNL     1      46.208   9.698  12.591  0.00  0.00    +0.000 C 
ATOM     16  C   UNL     1      46.873   8.349  12.291  0.00  0.00    +0.000 C 
BRANCH  16  17
ATOM     17  C   UNL     1      48.391   8.363  12.430  0.00  0.00    +0.000 A 
ATOM     18  C   UNL     1      49.174   7.813  11.399  0.00  0.00    +0.000 A 
ATOM     19  C   UNL     1      50.570   7.853  11.453  0.00  0.00    +0.000 A 
ATOM     20  C   UNL     1      51.208   8.432  12.545  0.00  0.00    +0.000 A 
ATOM     21  C   UNL     1      50.452   8.951  13.593  0.00  0.00    +0.000 A 
ATOM     22  C   UNL     1      49.054   8.909  13.540  0.00  0.00    +0.000 A 
ENDBRANCH  16  17
ENDBRANCH  13  16
ENDBRANCH   1  13
TORSDOF 4
ENDMDL
