MODEL 1
REMARK VINA RESULT:    -8.114      0.000      0.000
REMARK INTER + INTRA:         -11.106
REMARK INTER:                 -10.486
REMARK INTRA:                  -0.620
REMARK UNBOUND:                -0.620
REMARK  Name = 
REMARK  5 active torsions:
REMARK  status: ('A' for Active; 'I' for Inactive)
REMARK    1  A    between atoms: C_2  and  C_5
REMARK    2  A    between atoms: C_9  and  O_10
REMARK    3  A    between atoms: O_10  and  C_11
REMARK    4  A    between atoms: C_11  and  C_12
REMARK    5  A    between atoms: C_16  and  C_17
REMARK                            x       y       z     vdW  Elec       q    Type
REMARK                         _______ _______ _______ _____ _____    ______ ____
ROOT
ATOM      1  C   UNL     1      43.654   3.700  11.407  0.00  0.00    +0.000 C 
ENDROOT
BRANCH   1   2
ATOM      2  C   UNL     1      44.849   4.192  12.181  0.00  0.00    +0.000 A 
ATOM      3  C   UNL     1      45.640   3.298  12.908  0.00  0.00    +0.000 A 
ATOM      4  C   UNL     1      46.797   3.746  13.539  0.00  0.00    +0.000 A 
ATOM      5  C   UNL     1      47.176   5.088  13.439  0.00  0.00    +0.000 A 
ATOM      6  C   UNL     1      46.419   6.015  12.700  0.00  0.00    +0.000 A 
ATOM      7  C   UNL     1      45.234   5.544  12.106  0.00  0.00    +0.000 A 
BRANCH   6   8
ATOM      8  C   UNL     1      46.892   7.403  12.473  0.00  0.00    +0.000 A 
ATOM      9  C   UNL     1      48.196   7.652  12.002  0.00  0.00    +0.000 A 
ATOM     10  C   UNL     1      48.634   8.946  11.701  0.00  0.00    +0.000 A 
ATOM     11  C   UNL     1      47.772  10.025  11.856  0.00  0.00    +0.000 A 
ATOM     12  C   UNL     1      46.482   9.813  12.332  0.00  0.00    +0.000 A 
ATOM     13  C   UNL     1      46.052   8.518  12.646  0.00  0.00    +0.000 A 
ENDBRANCH   6   8
ENDBRANCH   1   2
BRANCH   1  14
ATOM     14  O   UNL     1      43.977   2.518  10.662  0.00  0.00    +0.000 OA
BRANCH  14  19
ATOM     15  C   UNL     1      46.225   2.156   7.883  0.00  0.00    +0.000 A 
ATOM     16  C   UNL     1      46.235   3.444   7.347  0.00  0.00    +0.000 A 
ATOM     17  C   UNL     1      45.461   4.434   7.953  0.00  0.00    +0.000 A 
ATOM     18  C   UNL     1      44.699   4.122   9.078  0.00  0.00    +0.000 A 
ATOM     19  C   UNL     1      44.740   2.824   9.550  0.00  0.00    +0.000 A 
ATOM     20  N   UNL     1      45.482   1.850   8.979  0.00  0.00    +0.000 NA
BRANCH  15  22
ATOM     21  F   UNL     1      46.793   0.862   5.924  0.00  0.00    +0.000 F 
ATOM     22  C   UNL     1      47.051   1.045   7.252  0.00  0.00    +0.000 C 
ATOM     23  F   UNL     1      46.839  -0.170   7.835  0.00  0.00    +0.000 F 
ATOM     24  F   UNL     1      48.396   1.271   7.333  0.00  0.00    +0.000 F 
ENDBRANCH  15  22
ENDBRANCH  14  19
ENDBRANCH   1  14
TORSDOF 5
ENDMDL
MODEL 2
REMARK VINA RESULT:    -8.062      3.696      6.822
REMARK INTER + INTRA:         -11.038
REMARK INTER:                 -10.077
REMARK INTRA:                  -0.961
REMARK UNBOUND:                -0.620
REMARK  Name = 
REMARK  5 active torsions:
REMARK  status: ('A' for Active; 'I' for Inactive)
REMARK    1  A    between atoms: C_2  and  C_5
REMARK    2  A    between atoms: C_9  and  O_10
REMARK    3  A    between atoms: O_10  and  C_11
REMARK    4  A    between atoms: C_11  and  C_12
REMARK    5  A    between atoms: C_16  and  C_17
REMARK                            x       y       z     vdW  Elec       q    Type
REMARK                         _______ _______ _______ _____ _____    ______ ____
ROOT
ATOM      1  C   UNL     1      44.004   6.616  11.372  0.00  0.00    +0.000 C 
ENDROOT
BRANCH   1   2
ATOM      2  C   UNL     1      44.102   5.138  11.099  0.00  0.00    +0.000 A 
ATOM      3  C   UNL     1      43.324   4.231  11.824  0.00  0.00    +0.000 A 
ATOM      4  C   UNL     1      43.347   2.878  11.498  0.00  0.00    +0.000 A 
ATOM      5  C   UNL     1      44.141   2.424  10.441  0.00  0.00    +0.000 A 
ATOM      6  C   UNL     1      44.923   3.308   9.674  0.00  0.00    +0.000 A 
ATOM      7  C   UNL     1      44.910   4.664  10.050  0.00  0.00    +0.000 A 
BRANCH   6   8
ATOM      8  C   UNL     1      45.653   2.853   8.465  0.00  0.00    +0.000 A 
ATOM      9  C   UNL     1      45.952   3.752   7.423  0.00  0.00    +0.000 A 
ATOM     10  C   UNL     1      46.711   3.365   6.313  0.00  0.00    +0.000 A 
ATOM     11  C   UNL     1      47.198   2.066   6.223  0.00  0.00    +0.000 A 
ATOM     12  C   UNL     1      46.908   1.151   7.230  0.00  0.00    +0.000 A 
ATOM     13  C   UNL     1      46.136   1.538   8.333  0.00  0.00    +0.000 A 
ENDBRANCH   6   8
ENDBRANCH   1   2
BRANCH   1  14
ATOM     14  O   UNL     1      44.636   6.952  12.614  0.00  0.00    +0.000 OA
BRANCH  14  19
ATOM     15  C   UNL     1      47.951   8.273  12.186  0.00  0.00    +0.000 A 
ATOM     16  C   UNL     1      47.703   9.635  12.021  0.00  0.00    +0.000 A 
ATOM     17  C   UNL     1      46.384  10.091  12.060  0.00  0.00    +0.000 A 
ATOM     18  C   UNL     1      45.345   9.184  12.264  0.00  0.00    +0.000 A 
ATOM     19  C   UNL     1      45.670   7.850  12.418  0.00  0.00    +0.000 A 
ATOM     20  N   UNL     1      46.939   7.386  12.384  0.00  0.00    +0.000 NA
BRANCH  15  22
ATOM     21  F   UNL     1      49.937   7.775  10.906  0.00  0.00    +0.000 F 
ATOM     22  C   UNL     1      49.372   7.730  12.148  0.00  0.00    +0.000 C 
ATOM     23  F   UNL     1      49.453   6.426  12.538  0.00  0.00    +0.000 F 
ATOM     24  F   UNL     1      50.225   8.420  12.960  0.00  0.00    +0.000 F 
ENDBRANCH  15  22
ENDBRANCH  14  19
ENDBRANCH   1  14
TORSDOF 5
ENDMDL
MODEL 3
REMARK VINA RESULT:    -7.901      1.626      2.501
REMARK INTER + INTRA:         -10.830
REMARK INTER:                  -9.823
REMARK INTRA:                  -1.007
REMARK UNBOUND:                -0.620
REMARK  Name = 
REMARK  5 active torsions:
REMARK  status: ('A' for Active; 'I' for Inactive)
REMARK    1  A    between atoms: C_2  and  C_5
REMARK    2  A    between atoms: C_9  and  O_10
REMARK    3  A    between atoms: O_10  and  C_11
REMARK    4  A    between atoms: C_11  and  C_12
REMARK    5  A    between atoms: C_16  and  C_17
REMARK                            x       y       z     vdW  Elec       q    Type
REMARK                         _______ _______ _______ _____ _____    ______ ____
ROOT
ATOM      1  C   UNL     1      44.637   5.662  11.078  0.00  0.00    +0.000 C 
ENDROOT
BRANCH   1   2
ATOM      2  C   UNL     1      45.824   5.952  11.960  0.00  0.00    +0.000 A 
ATOM      3  C   UNL     1      46.049   5.198  13.115  0.00  0.00    +0.000 A 
ATOM      4  C   UNL     1      47.200   5.407  13.869  0.00  0.00    +0.000 A 
ATOM      5  C   UNL     1      48.138   6.363  13.468  0.00  0.00    +0.000 A 
ATOM      6  C   UNL     1      47.958   7.127  12.300  0.00  0.00    +0.000 A 
ATOM      7  C   UNL     1      46.768   6.923  11.579  0.00  0.00    +0.000 A 
BRANCH   6   8
ATOM      8  C   UNL     1      49.016   8.037  11.794  0.00  0.00    +0.000 A 
ATOM      9  C   UNL     1      48.782   9.422  11.679  0.00  0.00    +0.000 A 
ATOM     10  C   UNL     1      49.790  10.307  11.285  0.00  0.00    +0.000 A 
ATOM     11  C   UNL     1      51.065   9.828  11.003  0.00  0.00    +0.000 A 
ATOM     12  C   UNL     1      51.323   8.464  11.095  0.00  0.00    +0.000 A 
ATOM     13  C   UNL     1      50.307   7.579  11.476  0.00  0.00    +0.000 A 
ENDBRANCH   6   8
ENDBRANCH   1   2
BRANCH   1  14
ATOM     14  O   UNL     1      45.017   5.639   9.696  0.00  0.00    +0.000 OA
BRANCH  14  19
ATOM     15  C   UNL     1      46.148   2.830   7.761  0.00  0.00    +0.000 A 
ATOM     16  C   UNL     1      45.481   1.769   8.372  0.00  0.00    +0.000 A 
ATOM     17  C   UNL     1      44.640   2.032   9.454  0.00  0.00    +0.000 A 
ATOM     18  C   UNL     1      44.480   3.342   9.901  0.00  0.00    +0.000 A 
ATOM     19  C   UNL     1      45.174   4.341   9.245  0.00  0.00    +0.000 A 
ATOM     20  N   UNL     1      45.994   4.109   8.196  0.00  0.00    +0.000 NA
BRANCH  15  22
ATOM     21  F   UNL     1      46.781   3.357   5.491  0.00  0.00    +0.000 F 
ATOM     22  C   UNL     1      47.077   2.590   6.581  0.00  0.00    +0.000 C 
ATOM     23  F   UNL     1      47.049   1.300   6.137  0.00  0.00    +0.000 F 
ATOM     24  F   UNL     1      48.384   2.858   6.870  0.00  0.00    +0.000 F 
ENDBRANCH  15  22
ENDBRANCH  14  19
ENDBRANCH   1  14
TORSDOF 5
ENDMDL
MODEL 4
REMARK VINA RESULT:    -7.894      4.356      7.340
REMARK INTER + INTRA:         -10.822
REMARK INTER:                  -9.855
REMARK INTRA:                  -0.967
REMARK UNBOUND:                -0.620
REMARK  Name = 
REMARK  5 active torsions:
REMARK  status: ('A' for Active; 'I' for Inactive)
REMARK    1  A    between atoms: C_2  and  C_5
REMARK    2  A    between atoms: C_9  and  O_10
REMARK    3  A    between atoms: O_10  and  C_11
REMARK    4  A    between atoms: C_11  and  C_12
REMARK    5  A    between atoms: C_16  and  C_17
REMARK                            x       y       z     vdW  Elec       q    Type
REMARK                         _______ _______ _______ _____ _____    ______ ____
ROOT
ATOM      1  C   UNL     1      44.982   6.953  11.251  0.00  0.00    +0.000 C 
ENDROOT
BRANCH   1   2
ATOM      2  C   UNL     1      44.704   5.503  10.950  0.00  0.00    +0.000 A 
ATOM      3  C   UNL     1      43.669   4.829  11.603  0.00  0.00    +0.000 A 
ATOM      4  C   UNL     1      43.356   3.521  11.247  0.00  0.00    +0.000 A 
ATOM      5  C   UNL     1      44.070   2.880  10.230  0.00  0.00    +0.000 A 
ATOM      6  C   UNL     1      45.106   3.531   9.535  0.00  0.00    +0.000 A 
ATOM      7  C   UNL     1      45.426   4.839   9.941  0.00  0.00    +0.000 A 
BRANCH   6   8
ATOM      8  C   UNL     1      45.768   2.908   8.361  0.00  0.00    +0.000 A 
ATOM      9  C   UNL     1      46.112   3.679   7.234  0.00  0.00    +0.000 A 
ATOM     10  C   UNL     1      46.810   3.130   6.154  0.00  0.00    +0.000 A 
ATOM     11  C   UNL     1      47.191   1.793   6.179  0.00  0.00    +0.000 A 
ATOM     12  C   UNL     1      46.854   1.003   7.273  0.00  0.00    +0.000 A 
ATOM     13  C   UNL     1      46.142   1.552   8.347  0.00  0.00    +0.000 A 
ENDBRANCH   6   8
ENDBRANCH   1   2
BRANCH   1  14
ATOM     14  O   UNL     1      45.294   7.138  12.639  0.00  0.00    +0.000 OA
BRANCH  14  19
ATOM     15  C   UNL     1      48.495   6.918  14.255  0.00  0.00    +0.000 A 
ATOM     16  C   UNL     1      49.369   7.242  13.217  0.00  0.00    +0.000 A 
ATOM     17  C   UNL     1      48.842   7.536  11.959  0.00  0.00    +0.000 A 
ATOM     18  C   UNL     1      47.463   7.505  11.763  0.00  0.00    +0.000 A 
ATOM     19  C   UNL     1      46.662   7.174  12.840  0.00  0.00    +0.000 A 
ATOM     20  N   UNL     1      47.149   6.885  14.066  0.00  0.00    +0.000 NA
BRANCH  15  22
ATOM     21  F   UNL     1      48.632   7.475  16.601  0.00  0.00    +0.000 F 
ATOM     22  C   UNL     1      49.025   6.586  15.643  0.00  0.00    +0.000 C 
ATOM     23  F   UNL     1      50.387   6.566  15.700  0.00  0.00    +0.000 F 
ATOM     24  F   UNL     1      48.612   5.364  16.090  0.00  0.00    +0.000 F 
ENDBRANCH  15  22
ENDBRANCH  14  19
ENDBRANCH   1  14
TORSDOF 5
ENDMDL
MODEL 5
REMARK VINA RESULT:    -7.853      2.254      3.900
REMARK INTER + INTRA:         -10.769
REMARK INTER:                  -9.805
REMARK INTRA:                  -0.963
REMARK UNBOUND:                -0.620
REMARK  Name = 
REMARK  5 active torsions:
REMARK  status: ('A' for Active; 'I' for Inactive)
REMARK    1  A    between atoms: C_2  and  C_5
REMARK    2  A    between atoms: C_9  and  O_10
REMARK    3  A    between atoms: O_10  and  C_11
REMARK    4  A    between atoms: C_11  and  C_12
REMARK    5  A    between atoms: C_16  and  C_17
REMARK                            x       y       z     vdW  Elec       q    Type
REMARK                         _______ _______ _______ _____ _____    ______ ____
ROOT
ATOM      1  C   UNL     1      45.032   5.815  11.313  0.00  0.00    +0.000 C 
ENDROOT
BRANCH   1   2
ATOM      2  C   UNL     1      46.311   6.100  12.057  0.00  0.00    +0.000 A 
ATOM      3  C   UNL     1      47.211   7.056  11.578  0.00  0.00    +0.000 A 
ATOM      4  C   UNL     1      48.340   7.384  12.322  0.00  0.00    +0.000 A 
ATOM      5  C   UNL     1      48.572   6.766  13.554  0.00  0.00    +0.000 A 
ATOM      6  C   UNL     1      47.680   5.814  14.082  0.00  0.00    +0.000 A 
ATOM      7  C   UNL     1      46.567   5.474  13.290  0.00  0.00    +0.000 A 
BRANCH   6   8
ATOM      8  C   UNL     1      47.846   5.264  15.450  0.00  0.00    +0.000 A 
ATOM      9  C   UNL     1      48.654   5.921  16.398  0.00  0.00    +0.000 A 
ATOM     10  C   UNL     1      48.758   5.466  17.717  0.00  0.00    +0.000 A 
ATOM     11  C   UNL     1      48.046   4.344  18.123  0.00  0.00    +0.000 A 
ATOM     12  C   UNL     1      47.249   3.666  17.206  0.00  0.00    +0.000 A 
ATOM     13  C   UNL     1      47.159   4.115  15.882  0.00  0.00    +0.000 A 
ENDBRANCH   6   8
ENDBRANCH   1   2
BRANCH   1  14
ATOM     14  O   UNL     1      45.251   5.814   9.897  0.00  0.00    +0.000 OA
BRANCH  14  19
ATOM     15  C   UNL     1      46.099   2.990   7.842  0.00  0.00    +0.000 A 
ATOM     16  C   UNL     1      45.368   1.964   8.440  0.00  0.00    +0.000 A 
ATOM     17  C   UNL     1      44.582   2.257   9.556  0.00  0.00    +0.000 A 
ATOM     18  C   UNL     1      44.539   3.560  10.047  0.00  0.00    +0.000 A 
ATOM     19  C   UNL     1      45.292   4.523   9.401  0.00  0.00    +0.000 A 
ATOM     20  N   UNL     1      46.060   4.262   8.321  0.00  0.00    +0.000 NA
BRANCH  15  22
ATOM     21  F   UNL     1      46.702   3.534   5.567  0.00  0.00    +0.000 F 
ATOM     22  C   UNL     1      46.973   2.716   6.627  0.00  0.00    +0.000 C 
ATOM     23  F   UNL     1      46.836   1.445   6.150  0.00  0.00    +0.000 F 
ATOM     24  F   UNL     1      48.304   2.880   6.881  0.00  0.00    +0.000 F 
ENDBRANCH  15  22
ENDBRANCH  14  19
ENDBRANCH   1  14
TORSDOF 5
ENDMDL
MODEL 6
REMARK VINA RESULT:    -7.789      4.287      7.323
REMARK INTER + INTRA:         -10.686
REMARK INTER:                  -9.793
REMARK INTRA:                  -0.893
REMARK UNBOUND:                -0.620
REMARK  Name = 
REMARK  5 active torsions:
REMARK  status: ('A' for Active; 'I' for Inactive)
REMARK    1  A    between atoms: C_2  and  C_5
REMARK    2  A    between atoms: C_9  and  O_10
REMARK    3  A    between atoms: O_10  and  C_11
REMARK    4  A    between atoms: C_11  and  C_12
REMARK    5  A    between atoms: C_16  and  C_17
REMARK                            x       y       z     vdW  Elec       q    Type
REMARK                         _______ _______ _______ _____ _____    ______ ____
ROOT
ATOM      1  C   UNL     1      46.011   6.877  12.909  0.00  0.00    +0.000 C 
ENDROOT
BRANCH   1   2
ATOM      2  C   UNL     1      45.128   5.924  12.145  0.00  0.00    +0.000 A 
ATOM      3  C   UNL     1      43.748   5.905  12.366  0.00  0.00    +0.000 A 
ATOM      4  C   UNL     1      42.930   5.093  11.587  0.00  0.00    +0.000 A 
ATOM      5  C   UNL     1      43.484   4.302  10.575  0.00  0.00    +0.000 A 
ATOM      6  C   UNL     1      44.865   4.309  10.308  0.00  0.00    +0.000 A 
ATOM      7  C   UNL     1      45.673   5.109  11.136  0.00  0.00    +0.000 A 
BRANCH   6   8
ATOM      8  C   UNL     1      45.438   3.584   9.146  0.00  0.00    +0.000 A 
ATOM      9  C   UNL     1      46.006   4.287   8.066  0.00  0.00    +0.000 A 
ATOM     10  C   UNL     1      46.625   3.624   7.002  0.00  0.00    +0.000 A 
ATOM     11  C   UNL     1      46.699   2.236   6.996  0.00  0.00    +0.000 A 
ATOM     12  C   UNL     1      46.135   1.513   8.042  0.00  0.00    +0.000 A 
ATOM     13  C   UNL     1      45.503   2.180   9.099  0.00  0.00    +0.000 A 
ENDBRANCH   6   8
ENDBRANCH   1   2
BRANCH   1  14
ATOM     14  O   UNL     1      47.375   6.436  12.896  0.00  0.00    +0.000 OA
BRANCH  14  19
ATOM     15  C   UNL     1      48.151   4.907  16.054  0.00  0.00    +0.000 A 
ATOM     16  C   UNL     1      48.813   5.937  16.721  0.00  0.00    +0.000 A 
ATOM     17  C   UNL     1      48.987   7.161  16.072  0.00  0.00    +0.000 A 
ATOM     18  C   UNL     1      48.498   7.331  14.779  0.00  0.00    +0.000 A 
ATOM     19  C   UNL     1      47.853   6.264  14.182  0.00  0.00    +0.000 A 
ATOM     20  N   UNL     1      47.674   5.071  14.791  0.00  0.00    +0.000 NA
BRANCH  15  22
ATOM     21  F   UNL     1      48.167   2.498  15.888  0.00  0.00    +0.000 F 
ATOM     22  C   UNL     1      47.942   3.556  16.721  0.00  0.00    +0.000 C 
ATOM     23  F   UNL     1      46.673   3.387  17.191  0.00  0.00    +0.000 F 
ATOM     24  F   UNL     1      48.769   3.358  17.790  0.00  0.00    +0.000 F 
ENDBRANCH  15  22
ENDBRANCH  14  19
ENDBRANCH   1  14
TORSDOF 5
ENDMDL
MODEL 7
REMARK VINA RESULT:    -7.508      5.058      7.902
REMARK INTER + INTRA:         -10.322
REMARK INTER:                  -9.603
REMARK INTRA:                  -0.719
REMARK UNBOUND:                -0.620
REMARK  Name = 
REMARK  5 active torsions:
REMARK  status: ('A' for Active; 'I' for Inactive)
REMARK    1  A    between atoms: C_2  and  C_5
REMARK    2  A    between atoms: C_9  and  O_10
REMARK    3  A    between atoms: O_10  and  C_11
REMARK    4  A    between atoms: C_11  and  C_12
REMARK    5  A    between atoms: C_16  and  C_17
REMARK                            x       y       z     vdW  Elec       q    Type
REMARK                         _______ _______ _______ _____ _____    ______ ____
ROOT
ATOM      1  C   UNL     1      45.956   5.207  14.017  0.00  0.00    +0.000 C 
ENDROOT
BRANCH   1   2
ATOM      2  C   UNL     1      45.029   4.887  12.872  0.00  0.00    +0.000 A 
ATOM      3  C   UNL     1      43.704   5.330  12.888  0.00  0.00    +0.000 A 
ATOM      4  C   UNL     1      42.885   5.115  11.785  0.00  0.00    +0.000 A 
ATOM      5  C   UNL     1      43.387   4.465  10.653  0.00  0.00    +0.000 A 
ATOM      6  C   UNL     1      44.721   4.022  10.589  0.00  0.00    +0.000 A 
ATOM      7  C   UNL     1      45.516   4.218  11.734  0.00  0.00    +0.000 A 
BRANCH   6   8
ATOM      8  C   UNL     1      45.298   3.463   9.341  0.00  0.00    +0.000 A 
ATOM      9  C   UNL     1      45.771   4.312   8.322  0.00  0.00    +0.000 A 
ATOM     10  C   UNL     1      46.393   3.808   7.175  0.00  0.00    +0.000 A 
ATOM     11  C   UNL     1      46.567   2.437   7.024  0.00  0.00    +0.000 A 
ATOM     12  C   UNL     1      46.098   1.572   8.008  0.00  0.00    +0.000 A 
ATOM     13  C   UNL     1      45.462   2.080   9.148  0.00  0.00    +0.000 A 
ENDBRANCH   6   8
ENDBRANCH   1   2
BRANCH   1  14
ATOM     14  O   UNL     1      46.563   4.016  14.534  0.00  0.00    +0.000 OA
BRANCH  14  19
ATOM     15  C   UNL     1      48.987   5.539  16.707  0.00  0.00    +0.000 A 
ATOM     16  C   UNL     1      48.799   4.832  17.894  0.00  0.00    +0.000 A 
ATOM     17  C   UNL     1      47.830   3.827  17.936  0.00  0.00    +0.000 A 
ATOM     18  C   UNL     1      47.076   3.548  16.798  0.00  0.00    +0.000 A 
ATOM     19  C   UNL     1      47.319   4.292  15.659  0.00  0.00    +0.000 A 
ATOM     20  N   UNL     1      48.251   5.269  15.596  0.00  0.00    +0.000 NA
BRANCH  15  22
ATOM     21  F   UNL     1      50.231   7.298  17.797  0.00  0.00    +0.000 F 
ATOM     22  C   UNL     1      50.028   6.644  16.616  0.00  0.00    +0.000 C 
ATOM     23  F   UNL     1      49.697   7.613  15.715  0.00  0.00    +0.000 F 
ATOM     24  F   UNL     1      51.258   6.186  16.239  0.00  0.00    +0.000 F 
ENDBRANCH  15  22
ENDBRANCH  14  19
ENDBRANCH   1  14
TORSDOF 5
ENDMDL
MODEL 8
REMARK VINA RESULT:    -7.389      4.835      7.735
REMARK INTER + INTRA:         -10.169
REMARK INTER:                  -9.217
REMARK INTRA:                  -0.952
REMARK UNBOUND:                -0.620
REMARK  Name = 
REMARK  5 active torsions:
REMARK  status: ('A' for Active; 'I' for Inactive)
REMARK    1  A    between atoms: C_2  and  C_5
REMARK    2  A    between atoms: C_9  and  O_10
REMARK    3  A    between atoms: O_10  and  C_11
REMARK    4  A    between atoms: C_11  and  C_12
REMARK    5  A    between atoms: C_16  and  C_17
REMARK                            x       y       z     vdW  Elec       q    Type
REMARK                         _______ _______ _______ _____ _____    ______ ____
ROOT
ATOM      1  C   UNL     1      48.231   7.590  13.806  0.00  0.00    +0.000 C 
ENDROOT
BRANCH   1   2
ATOM      2  C   UNL     1      46.956   7.502  13.007  0.00  0.00    +0.000 A 
ATOM      3  C   UNL     1      46.102   8.604  12.913  0.00  0.00    +0.000 A 
ATOM      4  C   UNL     1      44.979   8.545  12.094  0.00  0.00    +0.000 A 
ATOM      5  C   UNL     1      44.707   7.389  11.356  0.00  0.00    +0.000 A 
ATOM      6  C   UNL     1      45.553   6.266  11.408  0.00  0.00    +0.000 A 
ATOM      7  C   UNL     1      46.660   6.339  12.273  0.00  0.00    +0.000 A 
BRANCH   6   8
ATOM      8  C   UNL     1      45.349   5.096  10.519  0.00  0.00    +0.000 A 
ATOM      9  C   UNL     1      44.690   3.942  10.987  0.00  0.00    +0.000 A 
ATOM     10  C   UNL     1      44.413   2.861  10.143  0.00  0.00    +0.000 A 
ATOM     11  C   UNL     1      44.782   2.912   8.803  0.00  0.00    +0.000 A 
ATOM     12  C   UNL     1      45.446   4.033   8.315  0.00  0.00    +0.000 A 
ATOM     13  C   UNL     1      45.735   5.107   9.166  0.00  0.00    +0.000 A 
ENDBRANCH   6   8
ENDBRANCH   1   2
BRANCH   1  14
ATOM     14  O   UNL     1      48.733   6.284  14.118  0.00  0.00    +0.000 OA
BRANCH  14  19
ATOM     15  C   UNL     1      48.241   4.499  17.198  0.00  0.00    +0.000 A 
ATOM     16  C   UNL     1      48.400   5.507  18.148  0.00  0.00    +0.000 A 
ATOM     17  C   UNL     1      48.678   6.805  17.715  0.00  0.00    +0.000 A 
ATOM     18  C   UNL     1      48.787   7.069  16.351  0.00  0.00    +0.000 A 
ATOM     19  C   UNL     1      48.617   6.018  15.471  0.00  0.00    +0.000 A 
ATOM     20  N   UNL     1      48.348   4.754  15.867  0.00  0.00    +0.000 NA
BRANCH  15  22
ATOM     21  F   UNL     1      48.568   2.130  16.856  0.00  0.00    +0.000 F 
ATOM     22  C   UNL     1      47.941   3.069  17.624  0.00  0.00    +0.000 C 
ATOM     23  F   UNL     1      46.613   2.764  17.560  0.00  0.00    +0.000 F 
ATOM     24  F   UNL     1      48.326   2.806  18.907  0.00  0.00    +0.000 F 
ENDBRANCH  15  22
ENDBRANCH  14  19
ENDBRANCH   1  14
TORSDOF 5
ENDMDL
MODEL 9
REMARK VINA RESULT:    -6.985      5.348      7.965
REMARK INTER + INTRA:          -9.647
REMARK INTER:                  -8.747
REMARK INTRA:                  -0.900
REMARK UNBOUND:                -0.620
REMARK  Name = 
REMARK  5 active torsions:
REMARK  status: ('A' for Active; 'I' for Inactive)
REMARK    1  A    between atoms: C_2  and  C_5
REMARK    2  A    between atoms: C_9  and  O_10
REMARK    3  A    between atoms: O_10  and  C_11
REMARK    4  A    between atoms: C_11  and  C_12
REMARK    5  A    between atoms: C_16  and  C_17
REMARK                            x       y       z     vdW  Elec       q    Type
REMARK                         _______ _______ _______ _____ _____    ______ ____
ROOT
ATOM      1  C   UNL     1      48.550   6.637  14.176  0.00  0.00    +0.000 C 
ENDROOT
BRANCH   1   2
ATOM      2  C   UNL     1      47.312   6.887  13.353  0.00  0.00    +0.000 A 
ATOM      3  C   UNL     1      46.723   8.153  13.327  0.00  0.00    +0.000 A 
ATOM      4  C   UNL     1      45.641   8.400  12.489  0.00  0.00    +0.000 A 
ATOM      5  C   UNL     1      45.146   7.386  11.664  0.00  0.00    +0.000 A 
ATOM      6  C   UNL     1      45.724   6.103  11.645  0.00  0.00    +0.000 A 
ATOM      7  C   UNL     1      46.792   5.870  12.531  0.00  0.00    +0.000 A 
BRANCH   6   8
ATOM      8  C   UNL     1      45.297   5.070  10.670  0.00  0.00    +0.000 A 
ATOM      9  C   UNL     1      45.683   5.151   9.318  0.00  0.00    +0.000 A 
ATOM     10  C   UNL     1      45.361   4.144   8.401  0.00  0.00    +0.000 A 
ATOM     11  C   UNL     1      44.651   3.025   8.817  0.00  0.00    +0.000 A 
ATOM     12  C   UNL     1      44.244   2.922  10.144  0.00  0.00    +0.000 A 
ATOM     13  C   UNL     1      44.555   3.938  11.056  0.00  0.00    +0.000 A 
ENDBRANCH   6   8
ENDBRANCH   1   2
BRANCH   1  14
ATOM     14  O   UNL     1      48.253   6.686  15.578  0.00  0.00    +0.000 OA
BRANCH  14  19
ATOM     15  C   UNL     1      49.925   4.025  17.322  0.00  0.00    +0.000 A 
ATOM     16  C   UNL     1      48.936   3.043  17.371  0.00  0.00    +0.000 A 
ATOM     17  C   UNL     1      47.691   3.308  16.797  0.00  0.00    +0.000 A 
ATOM     18  C   UNL     1      47.460   4.539  16.187  0.00  0.00    +0.000 A 
ATOM     19  C   UNL     1      48.489   5.462  16.179  0.00  0.00    +0.000 A 
ATOM     20  N   UNL     1      49.701   5.228  16.728  0.00  0.00    +0.000 NA
BRANCH  15  22
ATOM     21  F   UNL     1      51.677   2.471  17.910  0.00  0.00    +0.000 F 
ATOM     22  C   UNL     1      51.295   3.782  17.937  0.00  0.00    +0.000 C 
ATOM     23  F   UNL     1      51.362   4.155  19.247  0.00  0.00    +0.000 F 
ATOM     24  F   UNL     1      52.291   4.464  17.300  0.00  0.00    +0.000 F 
ENDBRANCH  15  22
ENDBRANCH  14  19
ENDBRANCH   1  14
TORSDOF 5
ENDMDL
