MODEL 1
REMARK VINA RESULT:    -8.285      0.000      0.000
REMARK INTER + INTRA:         -10.510
REMARK INTER:                 -10.223
REMARK INTRA:                  -0.287
REMARK UNBOUND:                -0.287
REMARK  Name = 
REMARK  4 active torsions:
REMARK  status: ('A' for Active; 'I' for Inactive)
REMARK    1  A    between atoms: C_2  and  C_4
REMARK    2  A    between atoms: C_7  and  N_8
REMARK    3  A    between atoms: N_8  and  C_9
REMARK    4  A    between atoms: C_9  and  C_10
REMARK                            x       y       z     vdW  Elec       q    Type
REMARK                         _______ _______ _______ _____ _____    ______ ____
ROOT
ATOM      1  C   UNL     1      46.513   2.568   7.689  0.00  0.00    +0.000 A 
ATOM      2  C   UNL     1      46.518   3.948   7.569  0.00  0.00    +0.000 A 
ATOM      3  N   UNL     1      45.730   4.754   8.335  0.00  0.00    +0.000 NA
ATOM      4  C   UNL     1      44.915   4.140   9.223  0.00  0.00    +0.000 A 
ATOM      5  C   UNL     1      44.909   2.738   9.307  0.00  0.00    +0.000 A 
ATOM      6  N   UNL     1      45.707   1.918   8.573  0.00  0.00    +0.000 NA
ENDROOT
BRANCH   1   8
ATOM      7  N   UNL     1      48.493   2.390   6.309  0.00  0.00    +0.000 N 
ATOM      8  C   UNL     1      47.409   1.740   6.836  0.00  0.00    +0.000 C 
ATOM      9  O   UNL     1      47.192   0.555   6.616  0.00  0.00    +0.000 OA
ATOM     10  H   UNL     1      49.145   1.878   5.730  0.00  0.00    +0.000 HD
ATOM     11  H   UNL     1      48.649   3.369   6.517  0.00  0.00    +0.000 HD
ENDBRANCH   1   8
BRANCH   4  12
ATOM     12  N   UNL     1      44.014   4.888  10.025  0.00  0.00    +0.000 N 
ATOM     13  H   UNL     1      43.064   4.724   9.706  0.00  0.00    +0.000 HD
BRANCH  12  14
ATOM     14  C   UNL     1      44.148   4.808  11.504  0.00  0.00    +0.000 C 
ATOM     15  C   UNL     1      43.274   3.823  12.261  0.00  0.00    +0.000 C 
ATOM     16  C   UNL     1      42.959   5.279  12.340  0.00  0.00    +0.000 C 
BRANCH  14  17
ATOM     17  C   UNL     1      45.517   5.183  12.052  0.00  0.00    +0.000 A 
ATOM     18  C   UNL     1      46.186   6.340  11.644  0.00  0.00    +0.000 A 
ATOM     19  C   UNL     1      47.387   6.675  12.241  0.00  0.00    +0.000 A 
ATOM     20  N   UNL     1      47.956   5.925  13.205  0.00  0.00    +0.000 NA
ATOM     21  N   UNL     1      47.344   4.781  13.595  0.00  0.00    +0.000 NA
ATOM     22  C   UNL     1      46.167   4.429  13.022  0.00  0.00    +0.000 A 
ENDBRANCH  14  17
ENDBRANCH  12  14
ENDBRANCH   4  12
TORSDOF 4
ENDMDL
MODEL 2
REMARK VINA RESULT:    -7.730      0.803      1.561
REMARK INTER + INTRA:          -9.825
REMARK INTER:                  -9.495
REMARK INTRA:                  -0.329
REMARK UNBOUND:                -0.287
REMARK  Name = 
REMARK  4 active torsions:
REMARK  status: ('A' for Active; 'I' for Inactive)
REMARK    1  A    between atoms: C_2  and  C_4
REMARK    2  A    between atoms: C_7  and  N_8
REMARK    3  A    between atoms: N_8  and  C_9
REMARK    4  A    between atoms: C_9  and  C_10
REMARK                            x       y       z     vdW  Elec       q    Type
REMARK                         _______ _______ _______ _____ _____    ______ ____
ROOT
ATOM      1  C   UNL     1      46.675   2.648   7.590  0.00  0.00    +0.000 A 
ATOM      2  C   UNL     1      45.737   2.045   8.411  0.00  0.00    +0.000 A 
ATOM      3  N   UNL     1      44.827   2.758   9.131  0.00  0.00    +0.000 NA
ATOM      4  C   UNL     1      44.887   4.105   9.023  0.00  0.00    +0.000 A 
ATOM      5  C   UNL     1      45.864   4.693   8.204  0.00  0.00    +0.000 A 
ATOM      6  N   UNL     1      46.763   3.999   7.456  0.00  0.00    +0.000 NA
ENDROOT
BRANCH   1   8
ATOM      7  N   UNL     1      48.621   2.501   6.158  0.00  0.00    +0.000 N 
ATOM      8  C   UNL     1      47.635   1.815   6.814  0.00  0.00    +0.000 C 
ATOM      9  O   UNL     1      47.548   0.594   6.761  0.00  0.00    +0.000 OA
ATOM     10  H   UNL     1      49.310   1.991   5.623  0.00  0.00    +0.000 HD
ATOM     11  H   UNL     1      48.671   3.511   6.229  0.00  0.00    +0.000 HD
ENDBRANCH   1   8
BRANCH   4  12
ATOM     12  N   UNL     1      44.020   4.938   9.777  0.00  0.00    +0.000 N 
ATOM     13  H   UNL     1      43.094   4.925   9.361  0.00  0.00    +0.000 HD
BRANCH  12  14
ATOM     14  C   UNL     1      43.991   4.776  11.256  0.00  0.00    +0.000 C 
ATOM     15  C   UNL     1      43.036   3.758  11.856  0.00  0.00    +0.000 C 
ATOM     16  C   UNL     1      42.720   5.211  11.982  0.00  0.00    +0.000 C 
BRANCH  14  17
ATOM     17  C   UNL     1      45.293   5.106  11.969  0.00  0.00    +0.000 A 
ATOM     18  C   UNL     1      45.820   4.280  12.966  0.00  0.00    +0.000 A 
ATOM     19  C   UNL     1      47.051   4.584  13.518  0.00  0.00    +0.000 A 
ATOM     20  N   UNL     1      47.774   5.657  13.141  0.00  0.00    +0.000 NA
ATOM     21  N   UNL     1      47.269   6.492  12.201  0.00  0.00    +0.000 NA
ATOM     22  C   UNL     1      46.063   6.217  11.648  0.00  0.00    +0.000 A 
ENDBRANCH  14  17
ENDBRANCH  12  14
ENDBRANCH   4  12
TORSDOF 4
ENDMDL
MODEL 3
REMARK VINA RESULT:    -7.342      1.048      1.469
REMARK INTER + INTRA:          -9.346
REMARK INTER:                  -9.062
REMARK INTRA:                  -0.284
REMARK UNBOUND:                -0.287
REMARK  Name = 
REMARK  4 active torsions:
REMARK  status: ('A' for Active; 'I' for Inactive)
REMARK    1  A    between atoms: C_2  and  C_4
REMARK    2  A    between atoms: C_7  and  N_8
REMARK    3  A    between atoms: N_8  and  C_9
REMARK    4  A    between atoms: C_9  and  C_10
REMARK                            x       y       z     vdW  Elec       q    Type
REMARK                         _______ _______ _______ _____ _____    ______ ____
ROOT
ATOM      1  C   UNL     1      46.578   2.837   7.645  0.00  0.00    +0.000 A 
ATOM      2  C   UNL     1      45.685   2.099   8.404  0.00  0.00    +0.000 A 
ATOM      3  N   UNL     1      44.721   2.678   9.172  0.00  0.00    +0.000 NA
ATOM      4  C   UNL     1      44.680   4.030   9.177  0.00  0.00    +0.000 A 
ATOM      5  C   UNL     1      45.612   4.757   8.420  0.00  0.00    +0.000 A 
ATOM      6  N   UNL     1      46.563   4.198   7.625  0.00  0.00    +0.000 NA
ENDROOT
BRANCH   1   8
ATOM      7  N   UNL     1      48.062   2.852   5.733  0.00  0.00    +0.000 N 
ATOM      8  C   UNL     1      47.600   2.146   6.812  0.00  0.00    +0.000 C 
ATOM      9  O   UNL     1      48.001   1.018   7.069  0.00  0.00    +0.000 OA
ATOM     10  H   UNL     1      48.765   2.442   5.135  0.00  0.00    +0.000 HD
ATOM     11  H   UNL     1      47.716   3.788   5.552  0.00  0.00    +0.000 HD
ENDBRANCH   1   8
BRANCH   4  12
ATOM     12  N   UNL     1      43.750   4.730   9.991  0.00  0.00    +0.000 N 
ATOM     13  H   UNL     1      42.812   4.395   9.792  0.00  0.00    +0.000 HD
BRANCH  12  14
ATOM     14  C   UNL     1      44.027   4.843  11.447  0.00  0.00    +0.000 C 
ATOM     15  C   UNL     1      43.763   3.637  12.333  0.00  0.00    +0.000 C 
ATOM     16  C   UNL     1      42.828   4.799  12.393  0.00  0.00    +0.000 C 
BRANCH  14  17
ATOM     17  C   UNL     1      45.116   5.835  11.825  0.00  0.00    +0.000 A 
ATOM     18  C   UNL     1      44.968   7.209  11.621  0.00  0.00    +0.000 A 
ATOM     19  C   UNL     1      45.954   8.071  12.065  0.00  0.00    +0.000 A 
ATOM     20  N   UNL     1      47.071   7.643  12.686  0.00  0.00    +0.000 NA
ATOM     21  N   UNL     1      47.254   6.313  12.865  0.00  0.00    +0.000 NA
ATOM     22  C   UNL     1      46.303   5.448  12.437  0.00  0.00    +0.000 A 
ENDBRANCH  14  17
ENDBRANCH  12  14
ENDBRANCH   4  12
TORSDOF 4
ENDMDL
MODEL 4
REMARK VINA RESULT:    -6.227      3.424      6.701
REMARK INTER + INTRA:          -7.971
REMARK INTER:                  -7.996
REMARK INTRA:                   0.025
REMARK UNBOUND:                -0.287
REMARK  Name = 
REMARK  4 active torsions:
REMARK  status: ('A' for Active; 'I' for Inactive)
REMARK    1  A    between atoms: C_2  and  C_4
REMARK    2  A    between atoms: C_7  and  N_8
REMARK    3  A    between atoms: N_8  and  C_9
REMARK    4  A    between atoms: C_9  and  C_10
REMARK                            x       y       z     vdW  Elec       q    Type
REMARK                         _______ _______ _______ _____ _____    ______ ____
ROOT
ATOM      1  C   UNL     1      48.218   5.714  15.468  0.00  0.00    +0.000 A 
ATOM      2  C   UNL     1      47.555   4.622  16.002  0.00  0.00    +0.000 A 
ATOM      3  N   UNL     1      46.791   3.786  15.246  0.00  0.00    +0.000 NA
ATOM      4  C   UNL     1      46.690   4.080  13.929  0.00  0.00    +0.000 A 
ATOM      5  C   UNL     1      47.351   5.208  13.416  0.00  0.00    +0.000 A 
ATOM      6  N   UNL     1      48.140   6.038  14.148  0.00  0.00    +0.000 NA
ENDROOT
BRANCH   1   8
ATOM      7  N   UNL     1      48.367   7.474  17.123  0.00  0.00    +0.000 N 
ATOM      8  C   UNL     1      49.053   6.583  16.342  0.00  0.00    +0.000 C 
ATOM      9  O   UNL     1      50.276   6.511  16.361  0.00  0.00    +0.000 OA
ATOM     10  H   UNL     1      48.877   8.084  17.747  0.00  0.00    +0.000 HD
ATOM     11  H   UNL     1      47.354   7.503  17.092  0.00  0.00    +0.000 HD
ENDBRANCH   1   8
BRANCH   4  12
ATOM     12  N   UNL     1      45.871   3.304  13.068  0.00  0.00    +0.000 N 
ATOM     13  H   UNL     1      45.512   2.502  13.578  0.00  0.00    +0.000 HD
BRANCH  12  14
ATOM     14  C   UNL     1      44.824   3.997  12.270  0.00  0.00    +0.000 C 
ATOM     15  C   UNL     1      44.056   5.138  12.915  0.00  0.00    +0.000 C 
ATOM     16  C   UNL     1      43.374   3.825  12.720  0.00  0.00    +0.000 C 
BRANCH  14  17
ATOM     17  C   UNL     1      45.044   3.987  10.766  0.00  0.00    +0.000 A 
ATOM     18  C   UNL     1      44.719   2.879   9.978  0.00  0.00    +0.000 A 
ATOM     19  C   UNL     1      44.858   2.959   8.604  0.00  0.00    +0.000 A 
ATOM     20  N   UNL     1      45.305   4.067   7.980  0.00  0.00    +0.000 NA
ATOM     21  N   UNL     1      45.659   5.143   8.724  0.00  0.00    +0.000 NA
ATOM     22  C   UNL     1      45.535   5.087  10.072  0.00  0.00    +0.000 A 
ENDBRANCH  14  17
ENDBRANCH  12  14
ENDBRANCH   4  12
TORSDOF 4
ENDMDL
MODEL 5
REMARK VINA RESULT:    -5.547      3.322      6.220
REMARK INTER + INTRA:          -7.131
REMARK INTER:                  -7.538
REMARK INTRA:                   0.407
REMARK UNBOUND:                -0.287
REMARK  Name = 
REMARK  4 active torsions:
REMARK  status: ('A' for Active; 'I' for Inactive)
REMARK    1  A    between atoms: C_2  and  C_4
REMARK    2  A    between atoms: C_7  and  N_8
REMARK    3  A    between atoms: N_8  and  C_9
REMARK    4  A    between atoms: C_9  and  C_10
REMARK                            x       y       z     vdW  Elec       q    Type
REMARK                         _______ _______ _______ _____ _____    ______ ____
ROOT
ATOM      1  C   UNL     1      46.236   8.587  12.258  0.00  0.00    +0.000 A 
ATOM      2  C   UNL     1      45.052   8.119  11.714  0.00  0.00    +0.000 A 
ATOM      3  N   UNL     1      44.710   6.800  11.726  0.00  0.00    +0.000 NA
ATOM      4  C   UNL     1      45.599   5.948  12.285  0.00  0.00    +0.000 A 
ATOM      5  C   UNL     1      46.805   6.444  12.806  0.00  0.00    +0.000 A 
ATOM      6  N   UNL     1      47.152   7.758  12.830  0.00  0.00    +0.000 NA
ENDROOT
BRANCH   1   8
ATOM      7  N   UNL     1      45.466  10.882  12.276  0.00  0.00    +0.000 N 
ATOM      8  C   UNL     1      46.547  10.043  12.231  0.00  0.00    +0.000 C 
ATOM      9  O   UNL     1      47.696  10.466  12.169  0.00  0.00    +0.000 OA
ATOM     10  H   UNL     1      45.613  11.882  12.273  0.00  0.00    +0.000 HD
ATOM     11  H   UNL     1      44.530  10.501  12.337  0.00  0.00    +0.000 HD
ENDBRANCH   1   8
BRANCH   4  12
ATOM     12  N   UNL     1      45.362   4.548  12.294  0.00  0.00    +0.000 N 
ATOM     13  H   UNL     1      45.161   4.247  13.242  0.00  0.00    +0.000 HD
BRANCH  12  14
ATOM     14  C   UNL     1      44.415   3.984  11.295  0.00  0.00    +0.000 C 
ATOM     15  C   UNL     1      42.950   4.378  11.379  0.00  0.00    +0.000 C 
ATOM     16  C   UNL     1      43.357   3.009  11.809  0.00  0.00    +0.000 C 
BRANCH  14  17
ATOM     17  C   UNL     1      45.028   3.628   9.949  0.00  0.00    +0.000 A 
ATOM     18  C   UNL     1      45.213   2.303   9.548  0.00  0.00    +0.000 A 
ATOM     19  C   UNL     1      45.693   2.040   8.277  0.00  0.00    +0.000 A 
ATOM     20  N   UNL     1      46.001   3.014   7.399  0.00  0.00    +0.000 NA
ATOM     21  N   UNL     1      45.863   4.308   7.776  0.00  0.00    +0.000 NA
ATOM     22  C   UNL     1      45.397   4.591   9.016  0.00  0.00    +0.000 A 
ENDBRANCH  14  17
ENDBRANCH  12  14
ENDBRANCH   4  12
TORSDOF 4
ENDMDL
MODEL 6
REMARK VINA RESULT:    -5.467      3.332      5.194
REMARK INTER + INTRA:          -7.033
REMARK INTER:                  -7.360
REMARK INTRA:                   0.327
REMARK UNBOUND:                -0.287
REMARK  Name = 
REMARK  4 active torsions:
REMARK  status: ('A' for Active; 'I' for Inactive)
REMARK    1  A    between atoms: C_2  and  C_4
REMARK    2  A    between atoms: C_7  and  N_8
REMARK    3  A    between atoms: N_8  and  C_9
REMARK    4  A    between atoms: C_9  and  C_10
REMARK                            x       y       z     vdW  Elec       q    Type
REMARK                         _______ _______ _______ _____ _____    ______ ____
ROOT
ATOM      1  C   UNL     1      44.780   3.847  11.648  0.00  0.00    +0.000 A 
ATOM      2  C   UNL     1      44.887   5.069  11.006  0.00  0.00    +0.000 A 
ATOM      3  N   UNL     1      45.532   6.134  11.559  0.00  0.00    +0.000 NA
ATOM      4  C   UNL     1      46.060   5.952  12.791  0.00  0.00    +0.000 A 
ATOM      5  C   UNL     1      45.916   4.711  13.432  0.00  0.00    +0.000 A 
ATOM      6  N   UNL     1      45.301   3.628  12.887  0.00  0.00    +0.000 NA
ENDROOT
BRANCH   1   8
ATOM      7  N   UNL     1      44.690   2.205   9.872  0.00  0.00    +0.000 N 
ATOM      8  C   UNL     1      44.078   2.714  10.986  0.00  0.00    +0.000 C 
ATOM      9  O   UNL     1      43.018   2.265  11.407  0.00  0.00    +0.000 OA
ATOM     10  H   UNL     1      44.267   1.427   9.385  0.00  0.00    +0.000 HD
ATOM     11  H   UNL     1      45.570   2.593   9.555  0.00  0.00    +0.000 HD
ENDBRANCH   1   8
BRANCH   4  12
ATOM     12  N   UNL     1      46.700   7.018  13.476  0.00  0.00    +0.000 N 
ATOM     13  H   UNL     1      47.253   6.642  14.241  0.00  0.00    +0.000 HD
BRANCH  12  14
ATOM     14  C   UNL     1      47.435   8.034  12.676  0.00  0.00    +0.000 C 
ATOM     15  C   UNL     1      48.543   7.566  11.748  0.00  0.00    +0.000 C 
ATOM     16  C   UNL     1      48.907   8.261  13.017  0.00  0.00    +0.000 C 
BRANCH  14  17
ATOM     17  C   UNL     1      46.645   9.289  12.340  0.00  0.00    +0.000 A 
ATOM     18  C   UNL     1      47.251  10.417  11.780  0.00  0.00    +0.000 A 
ATOM     19  C   UNL     1      46.467  11.496  11.413  0.00  0.00    +0.000 A 
ATOM     20  N   UNL     1      45.130  11.516  11.579  0.00  0.00    +0.000 NA
ATOM     21  N   UNL     1      44.523  10.448  12.151  0.00  0.00    +0.000 NA
ATOM     22  C   UNL     1      45.269   9.380  12.522  0.00  0.00    +0.000 A 
ENDBRANCH  14  17
ENDBRANCH  12  14
ENDBRANCH   4  12
TORSDOF 4
ENDMDL
