MODEL 1
REMARK VINA RESULT:    -7.735      0.000      0.000
REMARK INTER + INTRA:         -11.423
REMARK INTER:                 -10.448
REMARK INTRA:                  -0.974
REMARK UNBOUND:                -0.974
REMARK  Name = 
REMARK  7 active torsions:
REMARK  status: ('A' for Active; 'I' for Inactive)
REMARK    1  A    between atoms: C_1  and  N_2
REMARK    2  A    between atoms: C_5  and  C_6
REMARK    3  A    between atoms: N_8  and  C_9
REMARK    4  A    between atoms: C_9  and  C_10
REMARK    5  A    between atoms: C_13  and  C_14
REMARK    6  A    between atoms: C_14  and  N_15
REMARK    7  A    between atoms: C_16  and  C_18
REMARK                            x       y       z     vdW  Elec       q    Type
REMARK                         _______ _______ _______ _____ _____    ______ ____
ROOT
ATOM      1  C   UNL     1      44.946   6.118  11.344  0.00  0.00    +0.000 A 
ATOM      2  C   UNL     1      46.119   5.588  11.902  0.00  0.00    +0.000 A 
ATOM      3  C   UNL     1      46.942   6.371  12.725  0.00  0.00    +0.000 A 
ATOM      4  C   UNL     1      46.598   7.696  13.025  0.00  0.00    +0.000 A 
ATOM      5  C   UNL     1      45.432   8.227  12.459  0.00  0.00    +0.000 A 
ATOM      6  C   UNL     1      44.609   7.445  11.640  0.00  0.00    +0.000 A 
ENDROOT
BRANCH   1   7
ATOM      7  C   UNL     1      44.095   5.289  10.413  0.00  0.00    +0.000 C 
BRANCH   7  10
ATOM      8  C   UNL     1      44.838   3.164   9.465  0.00  0.00    +0.000 C 
ATOM      9  O   UNL     1      44.203   2.510  10.285  0.00  0.00    +0.000 OA
ATOM     10  N   UNL     1      44.847   4.544   9.442  0.00  0.00    +0.000 N 
ATOM     11  H   UNL     1      45.421   4.998   8.736  0.00  0.00    +0.000 HD
BRANCH   8  16
ATOM     12  C   UNL     1      47.580   2.413   5.387  0.00  0.00    +0.000 C 
ATOM     13  N   UNL     1      46.860   2.217   6.622  0.00  0.00    +0.000 N 
ATOM     14  C   UNL     1      46.756   1.052   7.325  0.00  0.00    +0.000 A 
ATOM     15  N   UNL     1      46.036   1.208   8.415  0.00  0.00    +0.000 NA
ATOM     16  C   UNL     1      45.654   2.543   8.416  0.00  0.00    +0.000 A 
ATOM     17  C   UNL     1      46.161   3.176   7.295  0.00  0.00    +0.000 A 
ENDBRANCH   8  16
ENDBRANCH   7  10
ENDBRANCH   1   7
BRANCH   4  18
ATOM     18  C   UNL     1      47.459   8.545  13.930  0.00  0.00    +0.000 C 
BRANCH  18  19
ATOM     19  N   UNL     1      47.901   7.821  15.096  0.00  0.00    +0.000 N 
ATOM     20  C   UNL     1      49.171   7.300  15.169  0.00  0.00    +0.000 C 
ATOM     21  O   UNL     1      49.992   7.449  14.270  0.00  0.00    +0.000 OA
ATOM     22  H   UNL     1      47.179   7.455  15.710  0.00  0.00    +0.000 HD
BRANCH  20  23
ATOM     23  C   UNL     1      49.517   6.600  16.414  0.00  0.00    +0.000 A 
ATOM     24  C   UNL     1      50.531   7.092  17.227  0.00  0.00    +0.000 A 
ATOM     25  S   UNL     1      50.759   6.186  18.655  0.00  0.00    +0.000 S 
ATOM     26  C   UNL     1      49.551   5.072  18.210  0.00  0.00    +0.000 A 
ATOM     27  N   UNL     1      49.255   4.003  18.996  0.00  0.00    +0.000 NA
ATOM     28  C   UNL     1      48.341   3.226  18.519  0.00  0.00    +0.000 A 
ATOM     29  N   UNL     1      47.693   3.423  17.329  0.00  0.00    +0.000 N 
ATOM     30  C   UNL     1      47.931   4.507  16.519  0.00  0.00    +0.000 A 
ATOM     31  O   UNL     1      47.295   4.683  15.485  0.00  0.00    +0.000 OA
ATOM     32  C   UNL     1      48.967   5.403  16.999  0.00  0.00    +0.000 A 
ATOM     33  H   UNL     1      46.976   2.785  17.017  0.00  0.00    +0.000 HD
ENDBRANCH  20  23
ENDBRANCH  18  19
ENDBRANCH   4  18
TORSDOF 6
ENDMDL
MODEL 2
REMARK VINA RESULT:    -7.289      1.728      2.042
REMARK INTER + INTRA:         -10.820
REMARK INTER:                  -9.917
REMARK INTRA:                  -0.903
REMARK UNBOUND:                -0.974
REMARK  Name = 
REMARK  7 active torsions:
REMARK  status: ('A' for Active; 'I' for Inactive)
REMARK    1  A    between atoms: C_1  and  N_2
REMARK    2  A    between atoms: C_5  and  C_6
REMARK    3  A    between atoms: N_8  and  C_9
REMARK    4  A    between atoms: C_9  and  C_10
REMARK    5  A    between atoms: C_13  and  C_14
REMARK    6  A    between atoms: C_14  and  N_15
REMARK    7  A    between atoms: C_16  and  C_18
REMARK                            x       y       z     vdW  Elec       q    Type
REMARK                         _______ _______ _______ _____ _____    ______ ____
ROOT
ATOM      1  C   UNL     1      44.994   4.848  12.121  0.00  0.00    +0.000 A 
ATOM      2  C   UNL     1      46.199   4.932  12.835  0.00  0.00    +0.000 A 
ATOM      3  C   UNL     1      46.735   6.175  13.198  0.00  0.00    +0.000 A 
ATOM      4  C   UNL     1      46.068   7.364  12.872  0.00  0.00    +0.000 A 
ATOM      5  C   UNL     1      44.870   7.280  12.150  0.00  0.00    +0.000 A 
ATOM      6  C   UNL     1      44.333   6.039  11.790  0.00  0.00    +0.000 A 
ENDROOT
BRANCH   1   7
ATOM      7  C   UNL     1      44.451   3.510  11.684  0.00  0.00    +0.000 C 
BRANCH   7  10
ATOM      8  C   UNL     1      44.970   3.226   9.314  0.00  0.00    +0.000 C 
ATOM      9  O   UNL     1      44.134   4.056   8.972  0.00  0.00    +0.000 OA
ATOM     10  N   UNL     1      45.206   2.889  10.632  0.00  0.00    +0.000 N 
ATOM     11  H   UNL     1      45.905   2.174  10.814  0.00  0.00    +0.000 HD
BRANCH   8  16
ATOM     12  C   UNL     1      47.961   2.121   5.501  0.00  0.00    +0.000 C 
ATOM     13  N   UNL     1      47.128   2.025   6.674  0.00  0.00    +0.000 N 
ATOM     14  C   UNL     1      46.864   0.895   7.393  0.00  0.00    +0.000 A 
ATOM     15  N   UNL     1      46.074   1.144   8.414  0.00  0.00    +0.000 NA
ATOM     16  C   UNL     1      45.812   2.507   8.352  0.00  0.00    +0.000 A 
ATOM     17  C   UNL     1      46.463   3.059   7.264  0.00  0.00    +0.000 A 
ENDBRANCH   8  16
ENDBRANCH   7  10
ENDBRANCH   1   7
BRANCH   4  18
ATOM     18  C   UNL     1      46.618   8.711  13.277  0.00  0.00    +0.000 C 
BRANCH  18  19
ATOM     19  N   UNL     1      47.089   8.718  14.641  0.00  0.00    +0.000 N 
ATOM     20  C   UNL     1      48.419   8.900  14.931  0.00  0.00    +0.000 C 
ATOM     21  O   UNL     1      49.260   9.093  14.059  0.00  0.00    +0.000 OA
ATOM     22  H   UNL     1      46.482   8.296  15.337  0.00  0.00    +0.000 HD
BRANCH  20  23
ATOM     23  C   UNL     1      48.780   8.909  16.356  0.00  0.00    +0.000 A 
ATOM     24  C   UNL     1      48.832  10.112  17.050  0.00  0.00    +0.000 A 
ATOM     25  S   UNL     1      49.211   9.929  18.703  0.00  0.00    +0.000 S 
ATOM     26  C   UNL     1      49.375   8.243  18.538  0.00  0.00    +0.000 A 
ATOM     27  N   UNL     1      49.727   7.463  19.596  0.00  0.00    +0.000 NA
ATOM     28  C   UNL     1      49.844   6.207  19.317  0.00  0.00    +0.000 A 
ATOM     29  N   UNL     1      49.638   5.661  18.079  0.00  0.00    +0.000 N 
ATOM     30  C   UNL     1      49.247   6.402  16.990  0.00  0.00    +0.000 A 
ATOM     31  O   UNL     1      49.018   5.873  15.907  0.00  0.00    +0.000 OA
ATOM     32  C   UNL     1      49.120   7.825  17.244  0.00  0.00    +0.000 A 
ATOM     33  H   UNL     1      49.733   4.667  17.928  0.00  0.00    +0.000 HD
ENDBRANCH  20  23
ENDBRANCH  18  19
ENDBRANCH   4  18
TORSDOF 6
ENDMDL
MODEL 3
REMARK VINA RESULT:    -6.830      2.535      3.613
REMARK INTER + INTRA:         -10.200
REMARK INTER:                  -9.279
REMARK INTRA:                  -0.921
REMARK UNBOUND:                -0.974
REMARK  Name = 
REMARK  7 active torsions:
REMARK  status: ('A' for Active; 'I' for Inactive)
REMARK    1  A    between atoms: C_1  and  N_2
REMARK    2  A    between atoms: C_5  and  C_6
REMARK    3  A    between atoms: N_8  and  C_9
REMARK    4  A    between atoms: C_9  and  C_10
REMARK    5  A    between atoms: C_13  and  C_14
REMARK    6  A    between atoms: C_14  and  N_15
REMARK    7  A    between atoms: C_16  and  C_18
REMARK                            x       y       z     vdW  Elec       q    Type
REMARK                         _______ _______ _______ _____ _____    ______ ____
ROOT
ATOM      1  C   UNL     1      45.594   4.914  12.297  0.00  0.00    +0.000 A 
ATOM      2  C   UNL     1      45.880   3.684  12.909  0.00  0.00    +0.000 A 
ATOM      3  C   UNL     1      46.669   3.622  14.065  0.00  0.00    +0.000 A 
ATOM      4  C   UNL     1      47.174   4.793  14.650  0.00  0.00    +0.000 A 
ATOM      5  C   UNL     1      46.896   6.019  14.032  0.00  0.00    +0.000 A 
ATOM      6  C   UNL     1      46.105   6.082  12.879  0.00  0.00    +0.000 A 
ENDROOT
BRANCH   1   7
ATOM      7  C   UNL     1      44.792   4.969  11.020  0.00  0.00    +0.000 C 
BRANCH   7  10
ATOM      8  C   UNL     1      45.062   3.040   9.547  0.00  0.00    +0.000 C 
ATOM      9  O   UNL     1      44.200   2.396  10.136  0.00  0.00    +0.000 OA
ATOM     10  N   UNL     1      45.424   4.323   9.904  0.00  0.00    +0.000 N 
ATOM     11  H   UNL     1      46.165   4.767   9.368  0.00  0.00    +0.000 HD
BRANCH   8  16
ATOM     12  C   UNL     1      47.453   2.628   5.209  0.00  0.00    +0.000 C 
ATOM     13  N   UNL     1      46.848   2.334   6.484  0.00  0.00    +0.000 N 
ATOM     14  C   UNL     1      46.829   1.123   7.114  0.00  0.00    +0.000 A 
ATOM     15  N   UNL     1      46.203   1.188   8.269  0.00  0.00    +0.000 NA
ATOM     16  C   UNL     1      45.796   2.510   8.393  0.00  0.00    +0.000 A 
ATOM     17  C   UNL     1      46.191   3.228   7.277  0.00  0.00    +0.000 A 
ENDBRANCH   8  16
ENDBRANCH   7  10
ENDBRANCH   1   7
BRANCH   4  18
ATOM     18  C   UNL     1      48.004   4.747  15.910  0.00  0.00    +0.000 C 
BRANCH  18  19
ATOM     19  N   UNL     1      47.721   5.856  16.788  0.00  0.00    +0.000 N 
ATOM     20  C   UNL     1      48.468   6.072  17.921  0.00  0.00    +0.000 C 
ATOM     21  O   UNL     1      49.420   5.361  18.223  0.00  0.00    +0.000 OA
ATOM     22  H   UNL     1      46.799   6.275  16.715  0.00  0.00    +0.000 HD
BRANCH  20  23
ATOM     23  C   UNL     1      48.101   7.244  18.729  0.00  0.00    +0.000 A 
ATOM     24  C   UNL     1      47.824   7.095  20.082  0.00  0.00    +0.000 A 
ATOM     25  S   UNL     1      47.473   8.565  20.872  0.00  0.00    +0.000 S 
ATOM     26  C   UNL     1      47.622   9.446  19.424  0.00  0.00    +0.000 A 
ATOM     27  N   UNL     1      47.412  10.789  19.392  0.00  0.00    +0.000 NA
ATOM     28  C   UNL     1      47.529  11.320  18.220  0.00  0.00    +0.000 A 
ATOM     29  N   UNL     1      47.840  10.631  17.079  0.00  0.00    +0.000 N 
ATOM     30  C   UNL     1      48.097   9.282  17.068  0.00  0.00    +0.000 A 
ATOM     31  O   UNL     1      48.427   8.703  16.038  0.00  0.00    +0.000 OA
ATOM     32  C   UNL     1      47.959   8.631  18.357  0.00  0.00    +0.000 A 
ATOM     33  H   UNL     1      47.931  11.108  16.194  0.00  0.00    +0.000 HD
ENDBRANCH  20  23
ENDBRANCH  18  19
ENDBRANCH   4  18
TORSDOF 6
ENDMDL
MODEL 4
REMARK VINA RESULT:    -6.702      1.871      2.644
REMARK INTER + INTRA:         -10.027
REMARK INTER:                  -9.240
REMARK INTRA:                  -0.787
REMARK UNBOUND:                -0.974
REMARK  Name = 
REMARK  7 active torsions:
REMARK  status: ('A' for Active; 'I' for Inactive)
REMARK    1  A    between atoms: C_1  and  N_2
REMARK    2  A    between atoms: C_5  and  C_6
REMARK    3  A    between atoms: N_8  and  C_9
REMARK    4  A    between atoms: C_9  and  C_10
REMARK    5  A    between atoms: C_13  and  C_14
REMARK    6  A    between atoms: C_14  and  N_15
REMARK    7  A    between atoms: C_16  and  C_18
REMARK                            x       y       z     vdW  Elec       q    Type
REMARK                         _______ _______ _______ _____ _____    ______ ____
ROOT
ATOM      1  C   UNL     1      44.897   6.080  11.425  0.00  0.00    +0.000 A 
ATOM      2  C   UNL     1      45.813   5.466  12.292  0.00  0.00    +0.000 A 
ATOM      3  C   UNL     1      46.614   6.230  13.152  0.00  0.00    +0.000 A 
ATOM      4  C   UNL     1      46.502   7.628  13.179  0.00  0.00    +0.000 A 
ATOM      5  C   UNL     1      45.595   8.241  12.305  0.00  0.00    +0.000 A 
ATOM      6  C   UNL     1      44.793   7.478  11.448  0.00  0.00    +0.000 A 
ENDROOT
BRANCH   1   7
ATOM      7  C   UNL     1      44.079   5.256  10.461  0.00  0.00    +0.000 C 
BRANCH   7  10
ATOM      8  C   UNL     1      44.734   3.141   9.429  0.00  0.00    +0.000 C 
ATOM      9  O   UNL     1      43.960   2.495  10.127  0.00  0.00    +0.000 OA
ATOM     10  N   UNL     1      44.864   4.513   9.516  0.00  0.00    +0.000 N 
ATOM     11  H   UNL     1      45.548   4.958   8.909  0.00  0.00    +0.000 HD
BRANCH   8  16
ATOM     12  C   UNL     1      47.627   2.374   5.461  0.00  0.00    +0.000 C 
ATOM     13  N   UNL     1      46.874   2.187   6.677  0.00  0.00    +0.000 N 
ATOM     14  C   UNL     1      46.783   1.037   7.407  0.00  0.00    +0.000 A 
ATOM     15  N   UNL     1      46.024   1.198   8.469  0.00  0.00    +0.000 NA
ATOM     16  C   UNL     1      45.602   2.520   8.423  0.00  0.00    +0.000 A 
ATOM     17  C   UNL     1      46.125   3.140   7.302  0.00  0.00    +0.000 A 
ENDBRANCH   8  16
ENDBRANCH   7  10
ENDBRANCH   1   7
BRANCH   4  18
ATOM     18  C   UNL     1      47.338   8.465  14.117  0.00  0.00    +0.000 C 
BRANCH  18  19
ATOM     19  N   UNL     1      48.309   7.674  14.833  0.00  0.00    +0.000 N 
ATOM     20  C   UNL     1      48.984   8.187  15.914  0.00  0.00    +0.000 C 
ATOM     21  O   UNL     1      48.777   9.319  16.338  0.00  0.00    +0.000 OA
ATOM     22  H   UNL     1      48.689   6.866  14.349  0.00  0.00    +0.000 HD
BRANCH  20  23
ATOM     23  C   UNL     1      49.935   7.283  16.578  0.00  0.00    +0.000 A 
ATOM     24  C   UNL     1      49.539   6.563  17.699  0.00  0.00    +0.000 A 
ATOM     25  S   UNL     1      50.750   5.525  18.303  0.00  0.00    +0.000 S 
ATOM     26  C   UNL     1      51.863   6.041  17.124  0.00  0.00    +0.000 A 
ATOM     27  N   UNL     1      53.134   5.556  17.094  0.00  0.00    +0.000 NA
ATOM     28  C   UNL     1      53.876   6.061  16.165  0.00  0.00    +0.000 A 
ATOM     29  N   UNL     1      53.463   7.002  15.262  0.00  0.00    +0.000 N 
ATOM     30  C   UNL     1      52.181   7.495  15.229  0.00  0.00    +0.000 A 
ATOM     31  O   UNL     1      51.827   8.299  14.373  0.00  0.00    +0.000 OA
ATOM     32  C   UNL     1      51.309   6.976  16.267  0.00  0.00    +0.000 A 
ATOM     33  H   UNL     1      54.089   7.348  14.549  0.00  0.00    +0.000 HD
ENDBRANCH  20  23
ENDBRANCH  18  19
ENDBRANCH   4  18
TORSDOF 6
ENDMDL
MODEL 5
REMARK VINA RESULT:    -6.622      3.128      4.435
REMARK INTER + INTRA:          -9.918
REMARK INTER:                  -8.768
REMARK INTRA:                  -1.150
REMARK UNBOUND:                -0.974
REMARK  Name = 
REMARK  7 active torsions:
REMARK  status: ('A' for Active; 'I' for Inactive)
REMARK    1  A    between atoms: C_1  and  N_2
REMARK    2  A    between atoms: C_5  and  C_6
REMARK    3  A    between atoms: N_8  and  C_9
REMARK    4  A    between atoms: C_9  and  C_10
REMARK    5  A    between atoms: C_13  and  C_14
REMARK    6  A    between atoms: C_14  and  N_15
REMARK    7  A    between atoms: C_16  and  C_18
REMARK                            x       y       z     vdW  Elec       q    Type
REMARK                         _______ _______ _______ _____ _____    ______ ____
ROOT
ATOM      1  C   UNL     1      45.135   6.365  11.529  0.00  0.00    +0.000 A 
ATOM      2  C   UNL     1      46.250   5.807  12.172  0.00  0.00    +0.000 A 
ATOM      3  C   UNL     1      47.069   6.588  13.000  0.00  0.00    +0.000 A 
ATOM      4  C   UNL     1      46.778   7.942  13.220  0.00  0.00    +0.000 A 
ATOM      5  C   UNL     1      45.671   8.501  12.568  0.00  0.00    +0.000 A 
ATOM      6  C   UNL     1      44.851   7.720  11.744  0.00  0.00    +0.000 A 
ENDROOT
BRANCH   1   7
ATOM      7  C   UNL     1      44.292   5.534  10.594  0.00  0.00    +0.000 C 
BRANCH   7  10
ATOM      8  C   UNL     1      44.726   3.396   9.495  0.00  0.00    +0.000 C 
ATOM      9  O   UNL     1      43.792   2.846  10.068  0.00  0.00    +0.000 OA
ATOM     10  N   UNL     1      45.052   4.724   9.684  0.00  0.00    +0.000 N 
ATOM     11  H   UNL     1      45.858   5.085   9.180  0.00  0.00    +0.000 HD
BRANCH   8  16
ATOM     12  C   UNL     1      47.756   2.356   5.695  0.00  0.00    +0.000 C 
ATOM     13  N   UNL     1      46.927   2.243   6.869  0.00  0.00    +0.000 N 
ATOM     14  C   UNL     1      46.703   1.112   7.600  0.00  0.00    +0.000 A 
ATOM     15  N   UNL     1      45.904   1.345   8.618  0.00  0.00    +0.000 NA
ATOM     16  C   UNL     1      45.593   2.696   8.541  0.00  0.00    +0.000 A 
ATOM     17  C   UNL     1      46.225   3.260   7.447  0.00  0.00    +0.000 A 
ENDBRANCH   8  16
ENDBRANCH   7  10
ENDBRANCH   1   7
BRANCH   4  18
ATOM     18  C   UNL     1      47.634   8.792  14.129  0.00  0.00    +0.000 C 
BRANCH  18  19
ATOM     19  N   UNL     1      48.976   8.948  13.622  0.00  0.00    +0.000 N 
ATOM     20  C   UNL     1      50.038   8.312  14.218  0.00  0.00    +0.000 C 
ATOM     21  O   UNL     1      49.897   7.564  15.180  0.00  0.00    +0.000 OA
ATOM     22  H   UNL     1      49.150   9.752  13.027  0.00  0.00    +0.000 HD
BRANCH  20  23
ATOM     23  C   UNL     1      51.355   8.529  13.604  0.00  0.00    +0.000 A 
ATOM     24  C   UNL     1      52.397   9.048  14.362  0.00  0.00    +0.000 A 
ATOM     25  S   UNL     1      53.865   9.179  13.504  0.00  0.00    +0.000 S 
ATOM     26  C   UNL     1      53.147   8.602  12.073  0.00  0.00    +0.000 A 
ATOM     27  N   UNL     1      53.862   8.494  10.921  0.00  0.00    +0.000 NA
ATOM     28  C   UNL     1      53.180   8.072   9.908  0.00  0.00    +0.000 A 
ATOM     29  N   UNL     1      51.852   7.744   9.944  0.00  0.00    +0.000 N 
ATOM     30  C   UNL     1      51.099   7.802  11.091  0.00  0.00    +0.000 A 
ATOM     31  O   UNL     1      49.923   7.450  11.101  0.00  0.00    +0.000 OA
ATOM     32  C   UNL     1      51.811   8.291  12.256  0.00  0.00    +0.000 A 
ATOM     33  H   UNL     1      51.378   7.407   9.118  0.00  0.00    +0.000 HD
ENDBRANCH  20  23
ENDBRANCH  18  19
ENDBRANCH   4  18
TORSDOF 6
ENDMDL
MODEL 6
REMARK VINA RESULT:    -6.587      4.118      8.812
REMARK INTER + INTRA:          -9.871
REMARK INTER:                  -8.845
REMARK INTRA:                  -1.026
REMARK UNBOUND:                -0.974
REMARK  Name = 
REMARK  7 active torsions:
REMARK  status: ('A' for Active; 'I' for Inactive)
REMARK    1  A    between atoms: C_1  and  N_2
REMARK    2  A    between atoms: C_5  and  C_6
REMARK    3  A    between atoms: N_8  and  C_9
REMARK    4  A    between atoms: C_9  and  C_10
REMARK    5  A    between atoms: C_13  and  C_14
REMARK    6  A    between atoms: C_14  and  N_15
REMARK    7  A    between atoms: C_16  and  C_18
REMARK                            x       y       z     vdW  Elec       q    Type
REMARK                         _______ _______ _______ _____ _____    ______ ____
ROOT
ATOM      1  C   UNL     1      49.806   4.663  17.505  0.00  0.00    +0.000 A 
ATOM      2  C   UNL     1      50.560   5.764  17.075  0.00  0.00    +0.000 A 
ATOM      3  C   UNL     1      50.067   6.636  16.095  0.00  0.00    +0.000 A 
ATOM      4  C   UNL     1      48.797   6.438  15.536  0.00  0.00    +0.000 A 
ATOM      5  C   UNL     1      48.048   5.331  15.958  0.00  0.00    +0.000 A 
ATOM      6  C   UNL     1      48.539   4.462  16.940  0.00  0.00    +0.000 A 
ENDROOT
BRANCH   1   7
ATOM      7  C   UNL     1      50.365   3.695  18.519  0.00  0.00    +0.000 C 
BRANCH   7  10
ATOM      8  C   UNL     1      52.716   3.052  18.357  0.00  0.00    +0.000 C 
ATOM      9  O   UNL     1      53.074   3.948  19.113  0.00  0.00    +0.000 OA
ATOM     10  N   UNL     1      51.398   2.841  18.003  0.00  0.00    +0.000 N 
ATOM     11  H   UNL     1      51.203   2.085  17.352  0.00  0.00    +0.000 HD
BRANCH   8  16
ATOM     12  C   UNL     1      54.737  -1.016  16.338  0.00  0.00    +0.000 C 
ATOM     13  N   UNL     1      54.542   0.313  16.861  0.00  0.00    +0.000 N 
ATOM     14  C   UNL     1      55.472   1.312  16.910  0.00  0.00    +0.000 A 
ATOM     15  N   UNL     1      54.976   2.409  17.439  0.00  0.00    +0.000 NA
ATOM     16  C   UNL     1      53.657   2.105  17.749  0.00  0.00    +0.000 A 
ATOM     17  C   UNL     1      53.384   0.795  17.396  0.00  0.00    +0.000 A 
ENDBRANCH   8  16
ENDBRANCH   7  10
ENDBRANCH   1   7
BRANCH   4  18
ATOM     18  C   UNL     1      48.239   7.381  14.497  0.00  0.00    +0.000 C 
BRANCH  18  19
ATOM     19  N   UNL     1      46.998   6.903  13.938  0.00  0.00    +0.000 N 
ATOM     20  C   UNL     1      46.831   6.785  12.580  0.00  0.00    +0.000 C 
ATOM     21  O   UNL     1      47.727   7.048  11.785  0.00  0.00    +0.000 OA
ATOM     22  H   UNL     1      46.179   6.946  14.537  0.00  0.00    +0.000 HD
BRANCH  20  23
ATOM     23  C   UNL     1      45.532   6.267  12.126  0.00  0.00    +0.000 A 
ATOM     24  C   UNL     1      44.596   7.132  11.572  0.00  0.00    +0.000 A 
ATOM     25  S   UNL     1      43.172   6.352  11.050  0.00  0.00    +0.000 S 
ATOM     26  C   UNL     1      43.731   4.840  11.597  0.00  0.00    +0.000 A 
ATOM     27  N   UNL     1      42.965   3.722  11.482  0.00  0.00    +0.000 NA
ATOM     28  C   UNL     1      43.504   2.654  11.968  0.00  0.00    +0.000 A 
ATOM     29  N   UNL     1      44.739   2.601  12.554  0.00  0.00    +0.000 N 
ATOM     30  C   UNL     1      45.564   3.694  12.661  0.00  0.00    +0.000 A 
ATOM     31  O   UNL     1      46.687   3.602  13.144  0.00  0.00    +0.000 OA
ATOM     32  C   UNL     1      44.998   4.928  12.149  0.00  0.00    +0.000 A 
ATOM     33  H   UNL     1      45.111   1.729  12.903  0.00  0.00    +0.000 HD
ENDBRANCH  20  23
ENDBRANCH  18  19
ENDBRANCH   4  18
TORSDOF 6
ENDMDL
MODEL 7
REMARK VINA RESULT:    -6.562      1.658      2.519
REMARK INTER + INTRA:          -9.838
REMARK INTER:                  -9.228
REMARK INTRA:                  -0.610
REMARK UNBOUND:                -0.974
REMARK  Name = 
REMARK  7 active torsions:
REMARK  status: ('A' for Active; 'I' for Inactive)
REMARK    1  A    between atoms: C_1  and  N_2
REMARK    2  A    between atoms: C_5  and  C_6
REMARK    3  A    between atoms: N_8  and  C_9
REMARK    4  A    between atoms: C_9  and  C_10
REMARK    5  A    between atoms: C_13  and  C_14
REMARK    6  A    between atoms: C_14  and  N_15
REMARK    7  A    between atoms: C_16  and  C_18
REMARK                            x       y       z     vdW  Elec       q    Type
REMARK                         _______ _______ _______ _____ _____    ______ ____
ROOT
ATOM      1  C   UNL     1      44.754   5.609  11.288  0.00  0.00    +0.000 A 
ATOM      2  C   UNL     1      45.638   5.008  12.196  0.00  0.00    +0.000 A 
ATOM      3  C   UNL     1      46.500   5.785  12.983  0.00  0.00    +0.000 A 
ATOM      4  C   UNL     1      46.483   7.184  12.893  0.00  0.00    +0.000 A 
ATOM      5  C   UNL     1      45.608   7.783  11.978  0.00  0.00    +0.000 A 
ATOM      6  C   UNL     1      44.744   7.008  11.195  0.00  0.00    +0.000 A 
ENDROOT
BRANCH   1   7
ATOM      7  C   UNL     1      43.869   4.766  10.404  0.00  0.00    +0.000 C 
BRANCH   7  10
ATOM      8  C   UNL     1      45.482   4.022   8.726  0.00  0.00    +0.000 C 
ATOM      9  O   UNL     1      45.755   5.171   8.396  0.00  0.00    +0.000 OA
ATOM     10  N   UNL     1      44.564   3.717   9.712  0.00  0.00    +0.000 N 
ATOM     11  H   UNL     1      44.388   2.733   9.899  0.00  0.00    +0.000 HD
BRANCH   8  16
ATOM     12  C   UNL     1      46.661  -0.645   7.490  0.00  0.00    +0.000 C 
ATOM     13  N   UNL     1      46.622   0.794   7.565  0.00  0.00    +0.000 N 
ATOM     14  C   UNL     1      47.380   1.667   6.839  0.00  0.00    +0.000 A 
ATOM     15  N   UNL     1      47.098   2.916   7.137  0.00  0.00    +0.000 NA
ATOM     16  C   UNL     1      46.106   2.849   8.106  0.00  0.00    +0.000 A 
ATOM     17  C   UNL     1      45.811   1.525   8.382  0.00  0.00    +0.000 A 
ENDBRANCH   8  16
ENDBRANCH   7  10
ENDBRANCH   1   7
BRANCH   4  18
ATOM     18  C   UNL     1      47.387   8.037  13.751  0.00  0.00    +0.000 C 
BRANCH  18  19
ATOM     19  N   UNL     1      47.729   7.389  14.993  0.00  0.00    +0.000 N 
ATOM     20  C   UNL     1      48.982   6.865  15.198  0.00  0.00    +0.000 C 
ATOM     21  O   UNL     1      49.872   6.947  14.358  0.00  0.00    +0.000 OA
ATOM     22  H   UNL     1      46.957   7.070  15.571  0.00  0.00    +0.000 HD
BRANCH  20  23
ATOM     23  C   UNL     1      49.223   6.246  16.510  0.00  0.00    +0.000 A 
ATOM     24  C   UNL     1      48.623   5.032  16.824  0.00  0.00    +0.000 A 
ATOM     25  S   UNL     1      49.058   4.436  18.362  0.00  0.00    +0.000 S 
ATOM     26  C   UNL     1      50.017   5.805  18.686  0.00  0.00    +0.000 A 
ATOM     27  N   UNL     1      50.664   5.947  19.874  0.00  0.00    +0.000 NA
ATOM     28  C   UNL     1      51.328   7.048  19.992  0.00  0.00    +0.000 A 
ATOM     29  N   UNL     1      51.406   8.018  19.029  0.00  0.00    +0.000 N 
ATOM     30  C   UNL     1      50.801   7.904  17.802  0.00  0.00    +0.000 A 
ATOM     31  O   UNL     1      50.935   8.767  16.941  0.00  0.00    +0.000 OA
ATOM     32  C   UNL     1      50.023   6.692  17.623  0.00  0.00    +0.000 A 
ATOM     33  H   UNL     1      51.954   8.853  19.178  0.00  0.00    +0.000 HD
ENDBRANCH  20  23
ENDBRANCH  18  19
ENDBRANCH   4  18
TORSDOF 6
ENDMDL
MODEL 8
REMARK VINA RESULT:    -6.248      4.390      5.685
REMARK INTER + INTRA:          -9.414
REMARK INTER:                  -8.332
REMARK INTRA:                  -1.082
REMARK UNBOUND:                -0.974
REMARK  Name = 
REMARK  7 active torsions:
REMARK  status: ('A' for Active; 'I' for Inactive)
REMARK    1  A    between atoms: C_1  and  N_2
REMARK    2  A    between atoms: C_5  and  C_6
REMARK    3  A    between atoms: N_8  and  C_9
REMARK    4  A    between atoms: C_9  and  C_10
REMARK    5  A    between atoms: C_13  and  C_14
REMARK    6  A    between atoms: C_14  and  N_15
REMARK    7  A    between atoms: C_16  and  C_18
REMARK                            x       y       z     vdW  Elec       q    Type
REMARK                         _______ _______ _______ _____ _____    ______ ____
ROOT
ATOM      1  C   UNL     1      45.752   7.228  12.460  0.00  0.00    +0.000 A 
ATOM      2  C   UNL     1      47.044   6.995  12.955  0.00  0.00    +0.000 A 
ATOM      3  C   UNL     1      47.957   8.047  13.109  0.00  0.00    +0.000 A 
ATOM      4  C   UNL     1      47.591   9.363  12.790  0.00  0.00    +0.000 A 
ATOM      5  C   UNL     1      46.304   9.593  12.286  0.00  0.00    +0.000 A 
ATOM      6  C   UNL     1      45.391   8.543  12.135  0.00  0.00    +0.000 A 
ENDROOT
BRANCH   1   7
ATOM      7  C   UNL     1      44.793   6.084  12.242  0.00  0.00    +0.000 C 
BRANCH   7  10
ATOM      8  C   UNL     1      44.381   4.640  10.315  0.00  0.00    +0.000 C 
ATOM      9  O   UNL     1      43.215   5.005  10.219  0.00  0.00    +0.000 OA
ATOM     10  N   UNL     1      45.245   5.117  11.281  0.00  0.00    +0.000 N 
ATOM     11  H   UNL     1      46.188   4.738  11.294  0.00  0.00    +0.000 HD
BRANCH   8  16
ATOM     12  C   UNL     1      46.821   2.511   6.544  0.00  0.00    +0.000 C 
ATOM     13  N   UNL     1      46.056   2.724   7.748  0.00  0.00    +0.000 N 
ATOM     14  C   UNL     1      45.586   1.760   8.592  0.00  0.00    +0.000 A 
ATOM     15  N   UNL     1      44.932   2.283   9.607  0.00  0.00    +0.000 NA
ATOM     16  C   UNL     1      44.982   3.656   9.409  0.00  0.00    +0.000 A 
ATOM     17  C   UNL     1      45.677   3.936   8.246  0.00  0.00    +0.000 A 
ENDBRANCH   8  16
ENDBRANCH   7  10
ENDBRANCH   1   7
BRANCH   4  18
ATOM     18  C   UNL     1      48.553  10.512  12.974  0.00  0.00    +0.000 C 
BRANCH  18  19
ATOM     19  N   UNL     1      49.831  10.256  12.356  0.00  0.00    +0.000 N 
ATOM     20  C   UNL     1      50.057  10.569  11.037  0.00  0.00    +0.000 C 
ATOM     21  O   UNL     1      49.205  11.104  10.336  0.00  0.00    +0.000 OA
ATOM     22  H   UNL     1      50.436   9.582  12.816  0.00  0.00    +0.000 HD
BRANCH  20  23
ATOM     23  C   UNL     1      51.403  10.282  10.521  0.00  0.00    +0.000 A 
ATOM     24  C   UNL     1      52.212  11.321  10.076  0.00  0.00    +0.000 A 
ATOM     25  S   UNL     1      53.757  10.811   9.566  0.00  0.00    +0.000 S 
ATOM     26  C   UNL     1      53.382   9.178   9.867  0.00  0.00    +0.000 A 
ATOM     27  N   UNL     1      54.279   8.190   9.608  0.00  0.00    +0.000 NA
ATOM     28  C   UNL     1      53.847   6.998   9.855  0.00  0.00    +0.000 A 
ATOM     29  N   UNL     1      52.601   6.706  10.340  0.00  0.00    +0.000 N 
ATOM     30  C   UNL     1      51.675   7.671  10.651  0.00  0.00    +0.000 A 
ATOM     31  O   UNL     1      50.586   7.378  11.136  0.00  0.00    +0.000 OA
ATOM     32  C   UNL     1      52.102   9.029  10.373  0.00  0.00    +0.000 A 
ATOM     33  H   UNL     1      52.328   5.751  10.526  0.00  0.00    +0.000 HD
ENDBRANCH  20  23
ENDBRANCH  18  19
ENDBRANCH   4  18
TORSDOF 6
ENDMDL
MODEL 9
REMARK VINA RESULT:    -6.008      2.276      3.172
REMARK INTER + INTRA:          -9.089
REMARK INTER:                  -8.324
REMARK INTRA:                  -0.765
REMARK UNBOUND:                -0.974
REMARK  Name = 
REMARK  7 active torsions:
REMARK  status: ('A' for Active; 'I' for Inactive)
REMARK    1  A    between atoms: C_1  and  N_2
REMARK    2  A    between atoms: C_5  and  C_6
REMARK    3  A    between atoms: N_8  and  C_9
REMARK    4  A    between atoms: C_9  and  C_10
REMARK    5  A    between atoms: C_13  and  C_14
REMARK    6  A    between atoms: C_14  and  N_15
REMARK    7  A    between atoms: C_16  and  C_18
REMARK                            x       y       z     vdW  Elec       q    Type
REMARK                         _______ _______ _______ _____ _____    ______ ____
ROOT
ATOM      1  C   UNL     1      45.327   5.107  11.707  0.00  0.00    +0.000 A 
ATOM      2  C   UNL     1      44.728   4.377  12.744  0.00  0.00    +0.000 A 
ATOM      3  C   UNL     1      45.350   4.258  13.994  0.00  0.00    +0.000 A 
ATOM      4  C   UNL     1      46.579   4.885  14.242  0.00  0.00    +0.000 A 
ATOM      5  C   UNL     1      47.183   5.605  13.203  0.00  0.00    +0.000 A 
ATOM      6  C   UNL     1      46.559   5.727  11.955  0.00  0.00    +0.000 A 
ENDROOT
BRANCH   1   7
ATOM      7  C   UNL     1      44.680   5.183  10.346  0.00  0.00    +0.000 C 
BRANCH   7  10
ATOM      8  C   UNL     1      45.184   3.093   9.186  0.00  0.00    +0.000 C 
ATOM      9  O   UNL     1      44.423   2.447   9.899  0.00  0.00    +0.000 OA
ATOM     10  N   UNL     1      45.378   4.453   9.325  0.00  0.00    +0.000 N 
ATOM     11  H   UNL     1      46.046   4.897   8.700  0.00  0.00    +0.000 HD
BRANCH   8  16
ATOM     12  C   UNL     1      47.796   2.388   5.017  0.00  0.00    +0.000 C 
ATOM     13  N   UNL     1      47.116   2.179   6.271  0.00  0.00    +0.000 N 
ATOM     14  C   UNL     1      47.035   1.006   6.965  0.00  0.00    +0.000 A 
ATOM     15  N   UNL     1      46.350   1.150   8.079  0.00  0.00    +0.000 NA
ATOM     16  C   UNL     1      45.968   2.484   8.106  0.00  0.00    +0.000 A 
ATOM     17  C   UNL     1      46.438   3.129   6.976  0.00  0.00    +0.000 A 
ENDBRANCH   8  16
ENDBRANCH   7  10
ENDBRANCH   1   7
BRANCH   4  18
ATOM     18  C   UNL     1      47.252   4.789  15.591  0.00  0.00    +0.000 C 
BRANCH  18  19
ATOM     19  N   UNL     1      47.993   5.984  15.915  0.00  0.00    +0.000 N 
ATOM     20  C   UNL     1      49.216   5.913  16.536  0.00  0.00    +0.000 C 
ATOM     21  O   UNL     1      49.748   4.844  16.816  0.00  0.00    +0.000 OA
ATOM     22  H   UNL     1      47.469   6.853  15.949  0.00  0.00    +0.000 HD
BRANCH  20  23
ATOM     23  C   UNL     1      49.889   7.194  16.799  0.00  0.00    +0.000 A 
ATOM     24  C   UNL     1      50.593   7.828  15.783  0.00  0.00    +0.000 A 
ATOM     25  S   UNL     1      51.260   9.327  16.250  0.00  0.00    +0.000 S 
ATOM     26  C   UNL     1      50.680   9.156  17.841  0.00  0.00    +0.000 A 
ATOM     27  N   UNL     1      50.934  10.098  18.788  0.00  0.00    +0.000 NA
ATOM     28  C   UNL     1      50.460   9.820  19.957  0.00  0.00    +0.000 A 
ATOM     29  N   UNL     1      49.752   8.689  20.263  0.00  0.00    +0.000 N 
ATOM     30  C   UNL     1      49.439   7.728  19.333  0.00  0.00    +0.000 A 
ATOM     31  O   UNL     1      48.757   6.752  19.628  0.00  0.00    +0.000 OA
ATOM     32  C   UNL     1      49.967   7.980  18.005  0.00  0.00    +0.000 A 
ATOM     33  H   UNL     1      49.395   8.537  21.196  0.00  0.00    +0.000 HD
ENDBRANCH  20  23
ENDBRANCH  18  19
ENDBRANCH   4  18
TORSDOF 6
ENDMDL
