MODEL 1
REMARK VINA RESULT:    -7.815      0.000      0.000
REMARK INTER + INTRA:         -10.131
REMARK INTER:                  -9.642
REMARK INTRA:                  -0.489
REMARK UNBOUND:                -0.489
REMARK  Name = 
REMARK  5 active torsions:
REMARK  status: ('A' for Active; 'I' for Inactive)
REMARK    1  A    between atoms: C_1  and  C_2
REMARK    2  A    between atoms: C_7  and  C_8
REMARK    3  A    between atoms: C_8  and  O_9
REMARK    4  A    between atoms: O_9  and  C_10
REMARK    5  A    between atoms: C_13  and  C_14
REMARK                            x       y       z     vdW  Elec       q    Type
REMARK                         _______ _______ _______ _____ _____    ______ ____
ROOT
ATOM      1  C   UNL     1      50.037   7.422  13.926  0.00  0.00    +0.000 C 
ATOM      2  C   UNL     1      49.054   8.586  14.069  0.00  0.00    +0.000 C 
ATOM      3  C   UNL     1      47.611   8.115  14.378  0.00  0.00    +0.000 C 
ATOM      4  N   UNL     1      46.878   7.644  13.196  0.00  0.00    +0.000 N 
ATOM      5  C   UNL     1      46.582   6.292  13.099  0.00  0.00    +0.000 A 
ATOM      6  C   UNL     1      45.478   5.876  12.348  0.00  0.00    +0.000 A 
ATOM      7  C   UNL     1      45.133   4.520  12.267  0.00  0.00    +0.000 A 
ATOM      8  C   UNL     1      45.918   3.603  12.958  0.00  0.00    +0.000 A 
ATOM      9  C   UNL     1      46.993   4.084  13.683  0.00  0.00    +0.000 A 
ATOM     10  N   UNL     1      47.326   5.392  13.775  0.00  0.00    +0.000 NA
ATOM     11  C   UNL     1      47.038   8.423  11.961  0.00  0.00    +0.000 C 
ATOM     12  C   UNL     1      48.498   8.875  11.732  0.00  0.00    +0.000 C 
ATOM     13  N   UNL     1      49.129   9.507  12.906  0.00  0.00    +0.000 NA
ATOM     14  H   UNL     1      48.583  10.336  13.141  0.00  0.00    +0.000 HD
ENDROOT
BRANCH   7  15
ATOM     15  C   UNL     1      43.943   4.080  11.451  0.00  0.00    +0.000 C 
BRANCH  15  16
ATOM     16  O   UNL     1      44.013   4.647  10.140  0.00  0.00    +0.000 OA
BRANCH  16  17
ATOM     17  C   UNL     1      44.876   3.950   9.320  0.00  0.00    +0.000 A 
ATOM     18  C   UNL     1      44.888   2.558   9.396  0.00  0.00    +0.000 A 
ATOM     19  N   UNL     1      45.687   1.777   8.618  0.00  0.00    +0.000 NA
ATOM     20  C   UNL     1      46.480   2.468   7.749  0.00  0.00    +0.000 A 
ATOM     21  C   UNL     1      46.473   3.854   7.676  0.00  0.00    +0.000 A 
ATOM     22  N   UNL     1      45.675   4.623   8.459  0.00  0.00    +0.000 NA
BRANCH  20  23
ATOM     23  C   UNL     1      47.372   1.697   6.839  0.00  0.00    +0.000 C 
ATOM     24  N   UNL     1      48.389   2.397   6.253  0.00  0.00    +0.000 N 
ATOM     25  O   UNL     1      47.208   0.502   6.628  0.00  0.00    +0.000 OA
ATOM     26  H   UNL     1      48.511   3.385   6.448  0.00  0.00    +0.000 HD
ATOM     27  H   UNL     1      49.029   1.917   5.636  0.00  0.00    +0.000 HD
ENDBRANCH  20  23
ENDBRANCH  16  17
ENDBRANCH  15  16
ENDBRANCH   7  15
TORSDOF 4
ENDMDL
MODEL 2
REMARK VINA RESULT:    -7.664      1.365      2.508
REMARK INTER + INTRA:          -9.945
REMARK INTER:                  -9.451
REMARK INTRA:                  -0.494
REMARK UNBOUND:                -0.489
REMARK  Name = 
REMARK  5 active torsions:
REMARK  status: ('A' for Active; 'I' for Inactive)
REMARK    1  A    between atoms: C_1  and  C_2
REMARK    2  A    between atoms: C_7  and  C_8
REMARK    3  A    between atoms: C_8  and  O_9
REMARK    4  A    between atoms: O_9  and  C_10
REMARK    5  A    between atoms: C_13  and  C_14
REMARK                            x       y       z     vdW  Elec       q    Type
REMARK                         _______ _______ _______ _____ _____    ______ ____
ROOT
ATOM      1  C   UNL     1      48.185   8.348  16.010  0.00  0.00    +0.000 C 
ATOM      2  C   UNL     1      49.141   7.186  15.730  0.00  0.00    +0.000 C 
ATOM      3  C   UNL     1      48.977   6.608  14.302  0.00  0.00    +0.000 C 
ATOM      4  N   UNL     1      47.832   5.699  14.161  0.00  0.00    +0.000 N 
ATOM      5  C   UNL     1      46.753   6.112  13.394  0.00  0.00    +0.000 A 
ATOM      6  C   UNL     1      45.931   5.159  12.783  0.00  0.00    +0.000 A 
ATOM      7  C   UNL     1      44.859   5.548  11.970  0.00  0.00    +0.000 A 
ATOM      8  C   UNL     1      44.639   6.909  11.786  0.00  0.00    +0.000 A 
ATOM      9  C   UNL     1      45.491   7.797  12.417  0.00  0.00    +0.000 A 
ATOM     10  N   UNL     1      46.535   7.428  13.195  0.00  0.00    +0.000 NA
ATOM     11  C   UNL     1      47.599   4.750  15.258  0.00  0.00    +0.000 C 
ATOM     12  C   UNL     1      47.802   5.392  16.649  0.00  0.00    +0.000 C 
ATOM     13  N   UNL     1      49.061   6.149  16.790  0.00  0.00    +0.000 NA
ATOM     14  H   UNL     1      49.831   5.498  16.636  0.00  0.00    +0.000 HD
ENDROOT
BRANCH   7  15
ATOM     15  C   UNL     1      43.975   4.513  11.319  0.00  0.00    +0.000 C 
BRANCH  15  16
ATOM     16  O   UNL     1      43.893   4.756   9.912  0.00  0.00    +0.000 OA
BRANCH  16  17
ATOM     17  C   UNL     1      44.763   3.958   9.198  0.00  0.00    +0.000 A 
ATOM     18  C   UNL     1      44.733   2.581   9.414  0.00  0.00    +0.000 A 
ATOM     19  N   UNL     1      45.535   1.706   8.747  0.00  0.00    +0.000 NA
ATOM     20  C   UNL     1      46.376   2.286   7.843  0.00  0.00    +0.000 A 
ATOM     21  C   UNL     1      46.411   3.657   7.632  0.00  0.00    +0.000 A 
ATOM     22  N   UNL     1      45.609   4.521   8.304  0.00  0.00    +0.000 NA
BRANCH  20  23
ATOM     23  C   UNL     1      47.276   1.405   7.047  0.00  0.00    +0.000 C 
ATOM     24  N   UNL     1      48.324   2.019   6.421  0.00  0.00    +0.000 N 
ATOM     25  O   UNL     1      47.091   0.198   6.959  0.00  0.00    +0.000 OA
ATOM     26  H   UNL     1      48.463   3.019   6.514  0.00  0.00    +0.000 HD
ATOM     27  H   UNL     1      48.972   1.464   5.880  0.00  0.00    +0.000 HD
ENDBRANCH  20  23
ENDBRANCH  16  17
ENDBRANCH  15  16
ENDBRANCH   7  15
TORSDOF 4
ENDMDL
MODEL 3
REMARK VINA RESULT:    -6.697      4.563      7.837
REMARK INTER + INTRA:          -8.752
REMARK INTER:                  -8.316
REMARK INTRA:                  -0.436
REMARK UNBOUND:                -0.489
REMARK  Name = 
REMARK  5 active torsions:
REMARK  status: ('A' for Active; 'I' for Inactive)
REMARK    1  A    between atoms: C_1  and  C_2
REMARK    2  A    between atoms: C_7  and  C_8
REMARK    3  A    between atoms: C_8  and  O_9
REMARK    4  A    between atoms: O_9  and  C_10
REMARK    5  A    between atoms: C_13  and  C_14
REMARK                            x       y       z     vdW  Elec       q    Type
REMARK                         _______ _______ _______ _____ _____    ______ ____
ROOT
ATOM      1  C   UNL     1      44.519   4.493   9.581  0.00  0.00    +0.000 C 
ATOM      2  C   UNL     1      43.391   4.669  10.599  0.00  0.00    +0.000 C 
ATOM      3  C   UNL     1      43.722   5.726  11.683  0.00  0.00    +0.000 C 
ATOM      4  N   UNL     1      44.602   5.225  12.746  0.00  0.00    +0.000 N 
ATOM      5  C   UNL     1      45.896   5.721  12.820  0.00  0.00    +0.000 A 
ATOM      6  C   UNL     1      46.567   5.727  14.047  0.00  0.00    +0.000 A 
ATOM      7  C   UNL     1      47.858   6.260  14.159  0.00  0.00    +0.000 A 
ATOM      8  C   UNL     1      48.449   6.786  13.015  0.00  0.00    +0.000 A 
ATOM      9  C   UNL     1      47.728   6.751  11.835  0.00  0.00    +0.000 A 
ATOM     10  N   UNL     1      46.477   6.247  11.722  0.00  0.00    +0.000 NA
ATOM     11  C   UNL     1      44.335   3.870  13.246  0.00  0.00    +0.000 C 
ATOM     12  C   UNL     1      43.992   2.878  12.112  0.00  0.00    +0.000 C 
ATOM     13  N   UNL     1      42.966   3.365  11.170  0.00  0.00    +0.000 NA
ATOM     14  H   UNL     1      42.112   3.531  11.702  0.00  0.00    +0.000 HD
ENDROOT
BRANCH   7  15
ATOM     15  C   UNL     1      48.576   6.258  15.485  0.00  0.00    +0.000 C 
BRANCH  15  16
ATOM     16  O   UNL     1      48.066   5.210  16.315  0.00  0.00    +0.000 OA
BRANCH  16  17
ATOM     17  C   UNL     1      49.053   4.323  16.692  0.00  0.00    +0.000 A 
ATOM     18  C   UNL     1      48.820   2.958  16.525  0.00  0.00    +0.000 A 
ATOM     19  N   UNL     1      49.736   2.003  16.847  0.00  0.00    +0.000 NA
ATOM     20  C   UNL     1      50.908   2.489  17.348  0.00  0.00    +0.000 A 
ATOM     21  C   UNL     1      51.138   3.847  17.520  0.00  0.00    +0.000 A 
ATOM     22  N   UNL     1      50.217   4.790  17.198  0.00  0.00    +0.000 NA
BRANCH  20  23
ATOM     23  C   UNL     1      51.980   1.519  17.707  0.00  0.00    +0.000 C 
ATOM     24  N   UNL     1      51.568   0.263  18.050  0.00  0.00    +0.000 N 
ATOM     25  O   UNL     1      53.165   1.827  17.693  0.00  0.00    +0.000 OA
ATOM     26  H   UNL     1      50.582   0.028  18.048  0.00  0.00    +0.000 HD
ATOM     27  H   UNL     1      52.257  -0.436  18.290  0.00  0.00    +0.000 HD
ENDBRANCH  20  23
ENDBRANCH  16  17
ENDBRANCH  15  16
ENDBRANCH   7  15
TORSDOF 4
ENDMDL
MODEL 4
REMARK VINA RESULT:    -6.496      4.314      8.486
REMARK INTER + INTRA:          -8.503
REMARK INTER:                  -7.969
REMARK INTRA:                  -0.534
REMARK UNBOUND:                -0.489
REMARK  Name = 
REMARK  5 active torsions:
REMARK  status: ('A' for Active; 'I' for Inactive)
REMARK    1  A    between atoms: C_1  and  C_2
REMARK    2  A    between atoms: C_7  and  C_8
REMARK    3  A    between atoms: C_8  and  O_9
REMARK    4  A    between atoms: O_9  and  C_10
REMARK    5  A    between atoms: C_13  and  C_14
REMARK                            x       y       z     vdW  Elec       q    Type
REMARK                         _______ _______ _______ _____ _____    ______ ____
ROOT
ATOM      1  C   UNL     1      42.948   5.417  10.887  0.00  0.00    +0.000 C 
ATOM      2  C   UNL     1      42.944   4.287  11.919  0.00  0.00    +0.000 C 
ATOM      3  C   UNL     1      43.653   4.680  13.239  0.00  0.00    +0.000 C 
ATOM      4  N   UNL     1      45.118   4.606  13.166  0.00  0.00    +0.000 N 
ATOM      5  C   UNL     1      45.841   5.789  13.209  0.00  0.00    +0.000 A 
ATOM      6  C   UNL     1      47.156   5.782  13.684  0.00  0.00    +0.000 A 
ATOM      7  C   UNL     1      47.895   6.969  13.776  0.00  0.00    +0.000 A 
ATOM      8  C   UNL     1      47.280   8.153  13.384  0.00  0.00    +0.000 A 
ATOM      9  C   UNL     1      45.976   8.089  12.927  0.00  0.00    +0.000 A 
ATOM     10  N   UNL     1      45.254   6.948  12.845  0.00  0.00    +0.000 NA
ATOM     11  C   UNL     1      45.690   3.453  12.460  0.00  0.00    +0.000 C 
ATOM     12  C   UNL     1      44.918   3.108  11.167  0.00  0.00    +0.000 C 
ATOM     13  N   UNL     1      43.455   3.019  11.339  0.00  0.00    +0.000 NA
ATOM     14  H   UNL     1      43.269   2.279  12.015  0.00  0.00    +0.000 HD
ENDROOT
BRANCH   7  15
ATOM     15  C   UNL     1      49.315   6.951  14.285  0.00  0.00    +0.000 C 
BRANCH  15  16
ATOM     16  O   UNL     1      49.394   7.638  15.537  0.00  0.00    +0.000 OA
BRANCH  16  17
ATOM     17  C   UNL     1      49.266   6.778  16.608  0.00  0.00    +0.000 A 
ATOM     18  C   UNL     1      48.651   7.246  17.768  0.00  0.00    +0.000 A 
ATOM     19  N   UNL     1      48.458   6.472  18.872  0.00  0.00    +0.000 NA
ATOM     20  C   UNL     1      48.916   5.192  18.752  0.00  0.00    +0.000 A 
ATOM     21  C   UNL     1      49.533   4.728  17.600  0.00  0.00    +0.000 A 
ATOM     22  N   UNL     1      49.723   5.508  16.506  0.00  0.00    +0.000 NA
BRANCH  20  23
ATOM     23  C   UNL     1      48.728   4.264  19.901  0.00  0.00    +0.000 C 
ATOM     24  N   UNL     1      48.345   2.989  19.593  0.00  0.00    +0.000 N 
ATOM     25  O   UNL     1      48.908   4.619  21.060  0.00  0.00    +0.000 OA
ATOM     26  H   UNL     1      48.209   2.714  18.626  0.00  0.00    +0.000 HD
ATOM     27  H   UNL     1      48.216   2.317  20.335  0.00  0.00    +0.000 HD
ENDBRANCH  20  23
ENDBRANCH  16  17
ENDBRANCH  15  16
ENDBRANCH   7  15
TORSDOF 4
ENDMDL
MODEL 5
REMARK VINA RESULT:    -6.389      3.065      5.329
REMARK INTER + INTRA:          -8.371
REMARK INTER:                  -7.847
REMARK INTRA:                  -0.524
REMARK UNBOUND:                -0.489
REMARK  Name = 
REMARK  5 active torsions:
REMARK  status: ('A' for Active; 'I' for Inactive)
REMARK    1  A    between atoms: C_1  and  C_2
REMARK    2  A    between atoms: C_7  and  C_8
REMARK    3  A    between atoms: C_8  and  O_9
REMARK    4  A    between atoms: O_9  and  C_10
REMARK    5  A    between atoms: C_13  and  C_14
REMARK                            x       y       z     vdW  Elec       q    Type
REMARK                         _______ _______ _______ _____ _____    ______ ____
ROOT
ATOM      1  C   UNL     1      48.717   6.048  19.477  0.00  0.00    +0.000 C 
ATOM      2  C   UNL     1      49.239   4.783  18.794  0.00  0.00    +0.000 C 
ATOM      3  C   UNL     1      49.811   5.059  17.380  0.00  0.00    +0.000 C 
ATOM      4  N   UNL     1      48.780   5.192  16.343  0.00  0.00    +0.000 N 
ATOM      5  C   UNL     1      48.576   6.440  15.772  0.00  0.00    +0.000 A 
ATOM      6  C   UNL     1      48.055   6.534  14.478  0.00  0.00    +0.000 A 
ATOM      7  C   UNL     1      47.877   7.780  13.863  0.00  0.00    +0.000 A 
ATOM      8  C   UNL     1      48.237   8.918  14.576  0.00  0.00    +0.000 A 
ATOM      9  C   UNL     1      48.749   8.753  15.850  0.00  0.00    +0.000 A 
ATOM     10  N   UNL     1      48.933   7.552  16.447  0.00  0.00    +0.000 NA
ATOM     11  C   UNL     1      47.658   4.246  16.397  0.00  0.00    +0.000 C 
ATOM     12  C   UNL     1      47.156   4.005  17.838  0.00  0.00    +0.000 C 
ATOM     13  N   UNL     1      48.224   3.698  18.808  0.00  0.00    +0.000 NA
ATOM     14  H   UNL     1      48.688   2.845  18.497  0.00  0.00    +0.000 HD
ENDROOT
BRANCH   7  15
ATOM     15  C   UNL     1      47.310   7.872  12.468  0.00  0.00    +0.000 C 
BRANCH  15  16
ATOM     16  O   UNL     1      45.880   7.874  12.521  0.00  0.00    +0.000 OA
BRANCH  16  17
ATOM     17  C   UNL     1      45.349   6.648  12.177  0.00  0.00    +0.000 A 
ATOM     18  C   UNL     1      45.639   6.127  10.916  0.00  0.00    +0.000 A 
ATOM     19  N   UNL     1      45.181   4.918  10.488  0.00  0.00    +0.000 NA
ATOM     20  C   UNL     1      44.412   4.250  11.397  0.00  0.00    +0.000 A 
ATOM     21  C   UNL     1      44.118   4.771  12.649  0.00  0.00    +0.000 A 
ATOM     22  N   UNL     1      44.578   5.978  13.065  0.00  0.00    +0.000 NA
BRANCH  20  23
ATOM     23  C   UNL     1      43.885   2.908  11.026  0.00  0.00    +0.000 C 
ATOM     24  N   UNL     1      44.491   2.291   9.968  0.00  0.00    +0.000 N 
ATOM     25  O   UNL     1      42.963   2.381  11.636  0.00  0.00    +0.000 OA
ATOM     26  H   UNL     1      45.258   2.743   9.482  0.00  0.00    +0.000 HD
ATOM     27  H   UNL     1      44.179   1.374   9.684  0.00  0.00    +0.000 HD
ENDBRANCH  20  23
ENDBRANCH  16  17
ENDBRANCH  15  16
ENDBRANCH   7  15
TORSDOF 4
ENDMDL
MODEL 6
REMARK VINA RESULT:    -6.135      4.502      6.253
REMARK INTER + INTRA:          -8.058
REMARK INTER:                  -7.660
REMARK INTRA:                  -0.398
REMARK UNBOUND:                -0.489
REMARK  Name = 
REMARK  5 active torsions:
REMARK  status: ('A' for Active; 'I' for Inactive)
REMARK    1  A    between atoms: C_1  and  C_2
REMARK    2  A    between atoms: C_7  and  C_8
REMARK    3  A    between atoms: C_8  and  O_9
REMARK    4  A    between atoms: O_9  and  C_10
REMARK    5  A    between atoms: C_13  and  C_14
REMARK                            x       y       z     vdW  Elec       q    Type
REMARK                         _______ _______ _______ _____ _____    ______ ____
ROOT
ATOM      1  C   UNL     1      54.287   2.962  17.796  0.00  0.00    +0.000 C 
ATOM      2  C   UNL     1      54.090   4.233  18.624  0.00  0.00    +0.000 C 
ATOM      3  C   UNL     1      52.631   4.405  19.119  0.00  0.00    +0.000 C 
ATOM      4  N   UNL     1      51.719   4.930  18.096  0.00  0.00    +0.000 N 
ATOM      5  C   UNL     1      50.739   4.088  17.590  0.00  0.00    +0.000 A 
ATOM      6  C   UNL     1      49.558   4.629  17.073  0.00  0.00    +0.000 A 
ATOM      7  C   UNL     1      48.536   3.800  16.593  0.00  0.00    +0.000 A 
ATOM      8  C   UNL     1      48.728   2.424  16.652  0.00  0.00    +0.000 A 
ATOM      9  C   UNL     1      49.919   1.956  17.180  0.00  0.00    +0.000 A 
ATOM     10  N   UNL     1      50.906   2.751  17.653  0.00  0.00    +0.000 NA
ATOM     11  C   UNL     1      52.228   6.013  17.244  0.00  0.00    +0.000 C 
ATOM     12  C   UNL     1      53.693   5.784  16.808  0.00  0.00    +0.000 C 
ATOM     13  N   UNL     1      54.606   5.431  17.912  0.00  0.00    +0.000 NA
ATOM     14  H   UNL     1      54.601   6.204  18.576  0.00  0.00    +0.000 HD
ENDROOT
BRANCH   7  15
ATOM     15  C   UNL     1      47.267   4.393  16.032  0.00  0.00    +0.000 C 
BRANCH  15  16
ATOM     16  O   UNL     1      47.555   5.111  14.828  0.00  0.00    +0.000 OA
BRANCH  16  17
ATOM     17  C   UNL     1      46.705   4.760  13.801  0.00  0.00    +0.000 A 
ATOM     18  C   UNL     1      46.238   5.763  12.951  0.00  0.00    +0.000 A 
ATOM     19  N   UNL     1      45.412   5.518  11.896  0.00  0.00    +0.000 NA
ATOM     20  C   UNL     1      45.076   4.206  11.733  0.00  0.00    +0.000 A 
ATOM     21  C   UNL     1      45.536   3.209  12.581  0.00  0.00    +0.000 A 
ATOM     22  N   UNL     1      46.357   3.464  13.632  0.00  0.00    +0.000 NA
BRANCH  20  23
ATOM     23  C   UNL     1      44.195   3.839  10.590  0.00  0.00    +0.000 C 
ATOM     24  N   UNL     1      44.037   4.786   9.619  0.00  0.00    +0.000 N 
ATOM     25  O   UNL     1      43.642   2.748  10.520  0.00  0.00    +0.000 OA
ATOM     26  H   UNL     1      44.511   5.680   9.693  0.00  0.00    +0.000 HD
ATOM     27  H   UNL     1      43.460   4.582   8.816  0.00  0.00    +0.000 HD
ENDBRANCH  20  23
ENDBRANCH  16  17
ENDBRANCH  15  16
ENDBRANCH   7  15
TORSDOF 4
ENDMDL
MODEL 7
REMARK VINA RESULT:    -5.672      3.190      5.229
REMARK INTER + INTRA:          -7.488
REMARK INTER:                  -7.115
REMARK INTRA:                  -0.373
REMARK UNBOUND:                -0.489
REMARK  Name = 
REMARK  5 active torsions:
REMARK  status: ('A' for Active; 'I' for Inactive)
REMARK    1  A    between atoms: C_1  and  C_2
REMARK    2  A    between atoms: C_7  and  C_8
REMARK    3  A    between atoms: C_8  and  O_9
REMARK    4  A    between atoms: O_9  and  C_10
REMARK    5  A    between atoms: C_13  and  C_14
REMARK                            x       y       z     vdW  Elec       q    Type
REMARK                         _______ _______ _______ _____ _____    ______ ____
ROOT
ATOM      1  C   UNL     1      54.600   7.396  12.780  0.00  0.00    +0.000 C 
ATOM      2  C   UNL     1      54.530   8.172  11.464  0.00  0.00    +0.000 C 
ATOM      3  C   UNL     1      53.288   9.095  11.378  0.00  0.00    +0.000 C 
ATOM      4  N   UNL     1      52.051   8.387  11.024  0.00  0.00    +0.000 N 
ATOM      5  C   UNL     1      51.062   8.265  11.989  0.00  0.00    +0.000 A 
ATOM      6  C   UNL     1      49.727   8.120  11.600  0.00  0.00    +0.000 A 
ATOM      7  C   UNL     1      48.704   8.036  12.554  0.00  0.00    +0.000 A 
ATOM      8  C   UNL     1      49.056   8.106  13.897  0.00  0.00    +0.000 A 
ATOM      9  C   UNL     1      50.394   8.253  14.212  0.00  0.00    +0.000 A 
ATOM     10  N   UNL     1      51.386   8.345  13.297  0.00  0.00    +0.000 NA
ATOM     11  C   UNL     1      52.150   7.359   9.979  0.00  0.00    +0.000 C 
ATOM     12  C   UNL     1      53.422   6.494  10.117  0.00  0.00    +0.000 C 
ATOM     13  N   UNL     1      54.666   7.269  10.292  0.00  0.00    +0.000 NA
ATOM     14  H   UNL     1      54.782   7.857   9.468  0.00  0.00    +0.000 HD
ENDROOT
BRANCH   7  15
ATOM     15  C   UNL     1      47.267   7.874  12.124  0.00  0.00    +0.000 C 
BRANCH  15  16
ATOM     16  O   UNL     1      46.546   7.121  13.103  0.00  0.00    +0.000 OA
BRANCH  16  17
ATOM     17  C   UNL     1      45.907   6.031  12.550  0.00  0.00    +0.000 A 
ATOM     18  C   UNL     1      45.741   4.889  13.333  0.00  0.00    +0.000 A 
ATOM     19  N   UNL     1      45.108   3.769  12.889  0.00  0.00    +0.000 NA
ATOM     20  C   UNL     1      44.643   3.851  11.609  0.00  0.00    +0.000 A 
ATOM     21  C   UNL     1      44.813   4.985  10.827  0.00  0.00    +0.000 A 
ATOM     22  N   UNL     1      45.449   6.096  11.279  0.00  0.00    +0.000 NA
BRANCH  20  23
ATOM     23  C   UNL     1      43.915   2.682  11.044  0.00  0.00    +0.000 C 
ATOM     24  N   UNL     1      44.414   2.162   9.882  0.00  0.00    +0.000 N 
ATOM     25  O   UNL     1      42.926   2.207  11.588  0.00  0.00    +0.000 OA
ATOM     26  H   UNL     1      45.239   2.565   9.453  0.00  0.00    +0.000 HD
ATOM     27  H   UNL     1      43.964   1.360   9.465  0.00  0.00    +0.000 HD
ENDBRANCH  20  23
ENDBRANCH  16  17
ENDBRANCH  15  16
ENDBRANCH   7  15
TORSDOF 4
ENDMDL
MODEL 8
REMARK VINA RESULT:    -5.225      1.832      3.127
REMARK INTER + INTRA:          -6.935
REMARK INTER:                  -6.672
REMARK INTRA:                  -0.263
REMARK UNBOUND:                -0.489
REMARK  Name = 
REMARK  5 active torsions:
REMARK  status: ('A' for Active; 'I' for Inactive)
REMARK    1  A    between atoms: C_1  and  C_2
REMARK    2  A    between atoms: C_7  and  C_8
REMARK    3  A    between atoms: C_8  and  O_9
REMARK    4  A    between atoms: O_9  and  C_10
REMARK    5  A    between atoms: C_13  and  C_14
REMARK                            x       y       z     vdW  Elec       q    Type
REMARK                         _______ _______ _______ _____ _____    ______ ____
ROOT
ATOM      1  C   UNL     1      49.518   8.266  16.406  0.00  0.00    +0.000 C 
ATOM      2  C   UNL     1      50.067   7.005  15.737  0.00  0.00    +0.000 C 
ATOM      3  C   UNL     1      49.637   6.879  14.254  0.00  0.00    +0.000 C 
ATOM      4  N   UNL     1      48.269   6.375  14.077  0.00  0.00    +0.000 N 
ATOM      5  C   UNL     1      47.305   7.243  13.585  0.00  0.00    +0.000 A 
ATOM      6  C   UNL     1      46.199   6.734  12.899  0.00  0.00    +0.000 A 
ATOM      7  C   UNL     1      45.231   7.591  12.357  0.00  0.00    +0.000 A 
ATOM      8  C   UNL     1      45.407   8.960  12.518  0.00  0.00    +0.000 A 
ATOM      9  C   UNL     1      46.526   9.396  13.205  0.00  0.00    +0.000 A 
ATOM     10  N   UNL     1      47.470   8.575  13.722  0.00  0.00    +0.000 NA
ATOM     11  C   UNL     1      47.849   5.274  14.952  0.00  0.00    +0.000 C 
ATOM     12  C   UNL     1      48.331   5.458  16.409  0.00  0.00    +0.000 C 
ATOM     13  N   UNL     1      49.764   5.790  16.535  0.00  0.00    +0.000 NA
ATOM     14  H   UNL     1      50.295   5.020  16.130  0.00  0.00    +0.000 HD
ENDROOT
BRANCH   7  15
ATOM     15  C   UNL     1      44.038   7.032  11.622  0.00  0.00    +0.000 C 
BRANCH  15  16
ATOM     16  O   UNL     1      43.858   5.653  11.960  0.00  0.00    +0.000 OA
BRANCH  16  17
ATOM     17  C   UNL     1      44.383   4.813  11.001  0.00  0.00    +0.000 A 
ATOM     18  C   UNL     1      44.603   3.477  11.334  0.00  0.00    +0.000 A 
ATOM     19  N   UNL     1      45.098   2.563  10.455  0.00  0.00    +0.000 NA
ATOM     20  C   UNL     1      45.362   3.059   9.211  0.00  0.00    +0.000 A 
ATOM     21  C   UNL     1      45.149   4.390   8.881  0.00  0.00    +0.000 A 
ATOM     22  N   UNL     1      44.658   5.293   9.766  0.00  0.00    +0.000 NA
BRANCH  20  23
ATOM     23  C   UNL     1      45.885   2.127   8.174  0.00  0.00    +0.000 C 
ATOM     24  N   UNL     1      46.365   2.702   7.031  0.00  0.00    +0.000 N 
ATOM     25  O   UNL     1      45.888   0.913   8.334  0.00  0.00    +0.000 OA
ATOM     26  H   UNL     1      46.360   3.710   6.923  0.00  0.00    +0.000 HD
ATOM     27  H   UNL     1      46.743   2.114   6.302  0.00  0.00    +0.000 HD
ENDBRANCH  20  23
ENDBRANCH  16  17
ENDBRANCH  15  16
ENDBRANCH   7  15
TORSDOF 4
ENDMDL
MODEL 9
REMARK VINA RESULT:    -5.113      4.044      6.837
REMARK INTER + INTRA:          -6.797
REMARK INTER:                  -6.418
REMARK INTRA:                  -0.379
REMARK UNBOUND:                -0.489
REMARK  Name = 
REMARK  5 active torsions:
REMARK  status: ('A' for Active; 'I' for Inactive)
REMARK    1  A    between atoms: C_1  and  C_2
REMARK    2  A    between atoms: C_7  and  C_8
REMARK    3  A    between atoms: C_8  and  O_9
REMARK    4  A    between atoms: O_9  and  C_10
REMARK    5  A    between atoms: C_13  and  C_14
REMARK                            x       y       z     vdW  Elec       q    Type
REMARK                         _______ _______ _______ _____ _____    ______ ____
ROOT
ATOM      1  C   UNL     1      54.202  10.758   9.191  0.00  0.00    +0.000 C 
ATOM      2  C   UNL     1      54.338   9.276   8.836  0.00  0.00    +0.000 C 
ATOM      3  C   UNL     1      52.999   8.506   8.954  0.00  0.00    +0.000 C 
ATOM      4  N   UNL     1      52.647   8.143  10.333  0.00  0.00    +0.000 N 
ATOM      5  C   UNL     1      51.564   8.776  10.926  0.00  0.00    +0.000 A 
ATOM      6  C   UNL     1      50.860   8.133  11.949  0.00  0.00    +0.000 A 
ATOM      7  C   UNL     1      49.738   8.732  12.537  0.00  0.00    +0.000 A 
ATOM      8  C   UNL     1      49.344   9.981  12.070  0.00  0.00    +0.000 A 
ATOM      9  C   UNL     1      50.083  10.558  11.053  0.00  0.00    +0.000 A 
ATOM     10  N   UNL     1      51.161   9.981  10.474  0.00  0.00    +0.000 NA
ATOM     11  C   UNL     1      53.735   7.653  11.189  0.00  0.00    +0.000 C 
ATOM     12  C   UNL     1      55.043   8.454  11.001  0.00  0.00    +0.000 C 
ATOM     13  N   UNL     1      55.445   8.636   9.593  0.00  0.00    +0.000 NA
ATOM     14  H   UNL     1      55.591   7.710   9.192  0.00  0.00    +0.000 HD
ENDROOT
BRANCH   7  15
ATOM     15  C   UNL     1      48.988   8.033  13.644  0.00  0.00    +0.000 C 
BRANCH  15  16
ATOM     16  O   UNL     1      48.985   6.621  13.416  0.00  0.00    +0.000 OA
BRANCH  16  17
ATOM     17  C   UNL     1      47.705   6.108  13.366  0.00  0.00    +0.000 A 
ATOM     18  C   UNL     1      46.655   6.969  13.048  0.00  0.00    +0.000 A 
ATOM     19  N   UNL     1      45.361   6.560  12.953  0.00  0.00    +0.000 NA
ATOM     20  C   UNL     1      45.169   5.230  13.193  0.00  0.00    +0.000 A 
ATOM     21  C   UNL     1      46.212   4.374  13.515  0.00  0.00    +0.000 A 
ATOM     22  N   UNL     1      47.499   4.793  13.610  0.00  0.00    +0.000 NA
BRANCH  20  23
ATOM     23  C   UNL     1      43.787   4.684  13.089  0.00  0.00    +0.000 C 
ATOM     24  N   UNL     1      42.815   5.568  12.712  0.00  0.00    +0.000 N 
ATOM     25  O   UNL     1      43.533   3.510  13.324  0.00  0.00    +0.000 OA
ATOM     26  H   UNL     1      43.049   6.535  12.515  0.00  0.00    +0.000 HD
ATOM     27  H   UNL     1      41.863   5.245  12.615  0.00  0.00    +0.000 HD
ENDBRANCH  20  23
ENDBRANCH  16  17
ENDBRANCH  15  16
ENDBRANCH   7  15
TORSDOF 4
ENDMDL
