MODEL 1
REMARK VINA RESULT:    -7.097      0.000      0.000
REMARK INTER + INTRA:         -10.238
REMARK INTER:                  -9.587
REMARK INTRA:                  -0.651
REMARK UNBOUND:                -0.651
REMARK  Name = 
REMARK  10 active torsions:
REMARK  status: ('A' for Active; 'I' for Inactive)
REMARK    1  A    between atoms: C_1  and  C_2
REMARK    2  A    between atoms: C_2  and  N_3
REMARK    3  A    between atoms: N_3  and  C_4
REMARK    4  A    between atoms: C_5  and  C_7
REMARK    5  A    between atoms: N_11  and  C_12
REMARK    6  A    between atoms: C_12  and  C_13
REMARK    7  A    between atoms: C_13  and  C_14
REMARK    8  A    between atoms: C_13  and  C_15
REMARK    9  A    between atoms: C_13  and  C_16
REMARK   10  A    between atoms: C_20  and  C_21
REMARK                            x       y       z     vdW  Elec       q    Type
REMARK                         _______ _______ _______ _____ _____    ______ ____
ROOT
ATOM      1  C   UNL     1      48.112   5.262  16.390  0.00  0.00    +0.000 A 
ATOM      2  C   UNL     1      48.302   6.194  15.378  0.00  0.00    +0.000 A 
ATOM      3  C   UNL     1      47.720   5.971  14.132  0.00  0.00    +0.000 A 
ATOM      4  C   UNL     1      46.997   4.802  13.902  0.00  0.00    +0.000 A 
ATOM      5  N   UNL     1      46.351   4.692  12.667  0.00  0.00    +0.000 N 
ATOM      6  N   UNL     1      46.903   3.839  14.838  0.00  0.00    +0.000 NA
ATOM      7  C   UNL     1      47.475   4.075  16.052  0.00  0.00    +0.000 A 
ATOM      8  H   UNL     1      47.047   4.741  11.931  0.00  0.00    +0.000 HD
ENDROOT
BRANCH   1  11
ATOM      9  N   UNL     1      49.699   4.853  18.275  0.00  0.00    +0.000 N 
ATOM     10  C   UNL     1      50.667   4.129  17.459  0.00  0.00    +0.000 C 
ATOM     11  C   UNL     1      48.540   5.482  17.792  0.00  0.00    +0.000 C 
ATOM     12  O   UNL     1      47.861   6.244  18.478  0.00  0.00    +0.000 OA
BRANCH   9  14
ATOM     13  C   UNL     1      51.557   4.878  19.913  0.00  0.00    +0.000 C 
ATOM     14  C   UNL     1      50.065   5.064  19.675  0.00  0.00    +0.000 C 
ENDBRANCH   9  14
ENDBRANCH   1  11
BRANCH   5  15
ATOM     15  C   UNL     1      45.391   3.595  12.514  0.00  0.00    +0.000 C 
BRANCH  15  16
ATOM     16  C   UNL     1      44.398   3.859  11.328  0.00  0.00    +0.000 C 
ATOM     17  C   UNL     1      43.135   2.980  11.513  0.00  0.00    +0.000 C 
ATOM     18  C   UNL     1      43.935   5.337  11.353  0.00  0.00    +0.000 C 
BRANCH  16  19
ATOM     19  C   UNL     1      45.111   3.595   9.979  0.00  0.00    +0.000 A 
ATOM     20  C   UNL     1      45.416   4.669   9.119  0.00  0.00    +0.000 A 
ATOM     21  C   UNL     1      46.045   4.464   7.887  0.00  0.00    +0.000 A 
ATOM     22  C   UNL     1      46.388   3.178   7.483  0.00  0.00    +0.000 A 
ATOM     23  C   UNL     1      46.099   2.094   8.313  0.00  0.00    +0.000 A 
ATOM     24  C   UNL     1      45.470   2.305   9.548  0.00  0.00    +0.000 A 
BRANCH  23  25
ATOM     25  C   UNL     1      46.449   0.767   7.896  0.00  0.00    +0.000 C 
ATOM     26  N   UNL     1      46.738  -0.313   7.563  0.00  0.00    +0.000 NA
ENDBRANCH  23  25
ENDBRANCH  16  19
ENDBRANCH  15  16
ENDBRANCH   5  15
TORSDOF 6
ENDMDL
MODEL 2
REMARK VINA RESULT:    -6.630      1.623      2.213
REMARK INTER + INTRA:          -9.607
REMARK INTER:                  -8.959
REMARK INTRA:                  -0.649
REMARK UNBOUND:                -0.651
REMARK  Name = 
REMARK  10 active torsions:
REMARK  status: ('A' for Active; 'I' for Inactive)
REMARK    1  A    between atoms: C_1  and  C_2
REMARK    2  A    between atoms: C_2  and  N_3
REMARK    3  A    between atoms: N_3  and  C_4
REMARK    4  A    between atoms: C_5  and  C_7
REMARK    5  A    between atoms: N_11  and  C_12
REMARK    6  A    between atoms: C_12  and  C_13
REMARK    7  A    between atoms: C_13  and  C_14
REMARK    8  A    between atoms: C_13  and  C_15
REMARK    9  A    between atoms: C_13  and  C_16
REMARK   10  A    between atoms: C_20  and  C_21
REMARK                            x       y       z     vdW  Elec       q    Type
REMARK                         _______ _______ _______ _____ _____    ______ ____
ROOT
ATOM      1  C   UNL     1      48.312   4.655  16.789  0.00  0.00    +0.000 A 
ATOM      2  C   UNL     1      48.687   5.799  16.097  0.00  0.00    +0.000 A 
ATOM      3  C   UNL     1      48.047   6.106  14.898  0.00  0.00    +0.000 A 
ATOM      4  C   UNL     1      47.076   5.247  14.388  0.00  0.00    +0.000 A 
ATOM      5  N   UNL     1      46.399   5.670  13.240  0.00  0.00    +0.000 N 
ATOM      6  N   UNL     1      46.785   4.079  14.991  0.00  0.00    +0.000 NA
ATOM      7  C   UNL     1      47.418   3.795  16.164  0.00  0.00    +0.000 A 
ATOM      8  H   UNL     1      47.074   5.804  12.495  0.00  0.00    +0.000 HD
ENDROOT
BRANCH   1  11
ATOM      9  N   UNL     1      48.292   5.009  19.262  0.00  0.00    +0.000 N 
ATOM     10  C   UNL     1      47.146   5.912  19.242  0.00  0.00    +0.000 C 
ATOM     11  C   UNL     1      48.805   4.326  18.148  0.00  0.00    +0.000 C 
ATOM     12  O   UNL     1      49.641   3.429  18.244  0.00  0.00    +0.000 OA
BRANCH   9  14
ATOM     13  C   UNL     1      49.778   5.761  21.095  0.00  0.00    +0.000 C 
ATOM     14  C   UNL     1      48.833   4.684  20.580  0.00  0.00    +0.000 C 
ENDBRANCH   9  14
ENDBRANCH   1  11
BRANCH   5  15
ATOM     15  C   UNL     1      45.215   4.901  12.846  0.00  0.00    +0.000 C 
BRANCH  15  16
ATOM     16  C   UNL     1      44.627   5.406  11.482  0.00  0.00    +0.000 C 
ATOM     17  C   UNL     1      43.161   5.861  11.693  0.00  0.00    +0.000 C 
ATOM     18  C   UNL     1      45.424   6.643  10.995  0.00  0.00    +0.000 C 
BRANCH  16  19
ATOM     19  C   UNL     1      44.754   4.293  10.412  0.00  0.00    +0.000 A 
ATOM     20  C   UNL     1      44.175   3.028  10.636  0.00  0.00    +0.000 A 
ATOM     21  C   UNL     1      44.285   1.998   9.697  0.00  0.00    +0.000 A 
ATOM     22  C   UNL     1      44.976   2.205   8.507  0.00  0.00    +0.000 A 
ATOM     23  C   UNL     1      45.560   3.448   8.258  0.00  0.00    +0.000 A 
ATOM     24  C   UNL     1      45.446   4.479   9.201  0.00  0.00    +0.000 A 
BRANCH  23  25
ATOM     25  C   UNL     1      46.277   3.663   7.034  0.00  0.00    +0.000 C 
ATOM     26  N   UNL     1      46.863   3.844   6.041  0.00  0.00    +0.000 NA
ENDBRANCH  23  25
ENDBRANCH  16  19
ENDBRANCH  15  16
ENDBRANCH   5  15
TORSDOF 6
ENDMDL
MODEL 3
REMARK VINA RESULT:    -6.335      3.152      8.452
REMARK INTER + INTRA:          -9.209
REMARK INTER:                  -8.213
REMARK INTRA:                  -0.996
REMARK UNBOUND:                -0.651
REMARK  Name = 
REMARK  10 active torsions:
REMARK  status: ('A' for Active; 'I' for Inactive)
REMARK    1  A    between atoms: C_1  and  C_2
REMARK    2  A    between atoms: C_2  and  N_3
REMARK    3  A    between atoms: N_3  and  C_4
REMARK    4  A    between atoms: C_5  and  C_7
REMARK    5  A    between atoms: N_11  and  C_12
REMARK    6  A    between atoms: C_12  and  C_13
REMARK    7  A    between atoms: C_13  and  C_14
REMARK    8  A    between atoms: C_13  and  C_15
REMARK    9  A    between atoms: C_13  and  C_16
REMARK   10  A    between atoms: C_20  and  C_21
REMARK                            x       y       z     vdW  Elec       q    Type
REMARK                         _______ _______ _______ _____ _____    ______ ____
ROOT
ATOM      1  C   UNL     1      46.458   6.426  12.268  0.00  0.00    +0.000 A 
ATOM      2  C   UNL     1      46.269   7.742  12.670  0.00  0.00    +0.000 A 
ATOM      3  C   UNL     1      47.196   8.329  13.527  0.00  0.00    +0.000 A 
ATOM      4  C   UNL     1      48.272   7.582  14.004  0.00  0.00    +0.000 A 
ATOM      5  N   UNL     1      49.221   8.263  14.773  0.00  0.00    +0.000 N 
ATOM      6  N   UNL     1      48.403   6.274  13.713  0.00  0.00    +0.000 NA
ATOM      7  C   UNL     1      47.489   5.717  12.871  0.00  0.00    +0.000 A 
ATOM      8  H   UNL     1      48.762   8.648  15.591  0.00  0.00    +0.000 HD
ENDROOT
BRANCH   1  11
ATOM      9  N   UNL     1      44.472   5.064  11.604  0.00  0.00    +0.000 N 
ATOM     10  C   UNL     1      43.869   5.079  12.932  0.00  0.00    +0.000 C 
ATOM     11  C   UNL     1      45.631   5.763  11.231  0.00  0.00    +0.000 C 
ATOM     12  O   UNL     1      45.991   5.880  10.061  0.00  0.00    +0.000 OA
BRANCH   9  14
ATOM     13  C   UNL     1      44.139   2.943  10.369  0.00  0.00    +0.000 C 
ATOM     14  C   UNL     1      43.706   4.390  10.557  0.00  0.00    +0.000 C 
ENDBRANCH   9  14
ENDBRANCH   1  11
BRANCH   5  15
ATOM     15  C   UNL     1      50.472   7.556  15.063  0.00  0.00    +0.000 C 
BRANCH  15  16
ATOM     16  C   UNL     1      50.684   7.370  16.607  0.00  0.00    +0.000 C 
ATOM     17  C   UNL     1      52.107   7.849  16.990  0.00  0.00    +0.000 C 
ATOM     18  C   UNL     1      49.677   8.256  17.384  0.00  0.00    +0.000 C 
BRANCH  16  19
ATOM     19  C   UNL     1      50.431   5.892  16.996  0.00  0.00    +0.000 A 
ATOM     20  C   UNL     1      51.515   5.049  17.312  0.00  0.00    +0.000 A 
ATOM     21  C   UNL     1      51.322   3.707  17.652  0.00  0.00    +0.000 A 
ATOM     22  C   UNL     1      50.039   3.171  17.687  0.00  0.00    +0.000 A 
ATOM     23  C   UNL     1      48.946   3.981  17.378  0.00  0.00    +0.000 A 
ATOM     24  C   UNL     1      49.144   5.327  17.039  0.00  0.00    +0.000 A 
BRANCH  23  25
ATOM     25  C   UNL     1      47.622   3.429  17.408  0.00  0.00    +0.000 C 
ATOM     26  N   UNL     1      46.548   2.975  17.438  0.00  0.00    +0.000 NA
ENDBRANCH  23  25
ENDBRANCH  16  19
ENDBRANCH  15  16
ENDBRANCH   5  15
TORSDOF 6
ENDMDL
MODEL 4
REMARK VINA RESULT:    -6.248      1.611      2.350
REMARK INTER + INTRA:          -9.090
REMARK INTER:                  -8.586
REMARK INTRA:                  -0.504
REMARK UNBOUND:                -0.651
REMARK  Name = 
REMARK  10 active torsions:
REMARK  status: ('A' for Active; 'I' for Inactive)
REMARK    1  A    between atoms: C_1  and  C_2
REMARK    2  A    between atoms: C_2  and  N_3
REMARK    3  A    between atoms: N_3  and  C_4
REMARK    4  A    between atoms: C_5  and  C_7
REMARK    5  A    between atoms: N_11  and  C_12
REMARK    6  A    between atoms: C_12  and  C_13
REMARK    7  A    between atoms: C_13  and  C_14
REMARK    8  A    between atoms: C_13  and  C_15
REMARK    9  A    between atoms: C_13  and  C_16
REMARK   10  A    between atoms: C_20  and  C_21
REMARK                            x       y       z     vdW  Elec       q    Type
REMARK                         _______ _______ _______ _____ _____    ______ ____
ROOT
ATOM      1  C   UNL     1      48.965   5.073  17.084  0.00  0.00    +0.000 A 
ATOM      2  C   UNL     1      47.964   4.116  17.191  0.00  0.00    +0.000 A 
ATOM      3  C   UNL     1      47.043   3.979  16.155  0.00  0.00    +0.000 A 
ATOM      4  C   UNL     1      47.108   4.827  15.050  0.00  0.00    +0.000 A 
ATOM      5  N   UNL     1      46.222   4.564  14.001  0.00  0.00    +0.000 N 
ATOM      6  N   UNL     1      48.002   5.831  14.988  0.00  0.00    +0.000 NA
ATOM      7  C   UNL     1      48.897   5.949  16.009  0.00  0.00    +0.000 A 
ATOM      8  H   UNL     1      45.273   4.633  14.352  0.00  0.00    +0.000 HD
ENDROOT
BRANCH   1  11
ATOM      9  N   UNL     1      50.958   4.100  18.235  0.00  0.00    +0.000 N 
ATOM     10  C   UNL     1      50.984   2.890  17.422  0.00  0.00    +0.000 C 
ATOM     11  C   UNL     1      50.089   5.187  18.043  0.00  0.00    +0.000 C 
ATOM     12  O   UNL     1      50.231   6.263  18.622  0.00  0.00    +0.000 OA
BRANCH   9  14
ATOM     13  C   UNL     1      53.405   4.289  18.568  0.00  0.00    +0.000 C 
ATOM     14  C   UNL     1      52.030   4.240  19.219  0.00  0.00    +0.000 C 
ENDBRANCH   9  14
ENDBRANCH   1  11
BRANCH   5  15
ATOM     15  C   UNL     1      46.451   5.282  12.744  0.00  0.00    +0.000 C 
BRANCH  15  16
ATOM     16  C   UNL     1      45.111   5.517  11.961  0.00  0.00    +0.000 C 
ATOM     17  C   UNL     1      43.930   5.538  12.963  0.00  0.00    +0.000 C 
ATOM     18  C   UNL     1      45.147   6.901  11.265  0.00  0.00    +0.000 C 
BRANCH  16  19
ATOM     19  C   UNL     1      44.944   4.429  10.871  0.00  0.00    +0.000 A 
ATOM     20  C   UNL     1      44.179   3.275  11.135  0.00  0.00    +0.000 A 
ATOM     21  C   UNL     1      44.022   2.268  10.178  0.00  0.00    +0.000 A 
ATOM     22  C   UNL     1      44.624   2.388   8.929  0.00  0.00    +0.000 A 
ATOM     23  C   UNL     1      45.388   3.520   8.639  0.00  0.00    +0.000 A 
ATOM     24  C   UNL     1      45.542   4.528   9.601  0.00  0.00    +0.000 A 
BRANCH  23  25
ATOM     25  C   UNL     1      46.014   3.643   7.355  0.00  0.00    +0.000 C 
ATOM     26  N   UNL     1      46.529   3.748   6.312  0.00  0.00    +0.000 NA
ENDBRANCH  23  25
ENDBRANCH  16  19
ENDBRANCH  15  16
ENDBRANCH   5  15
TORSDOF 6
ENDMDL
MODEL 5
REMARK VINA RESULT:    -5.977      2.249      3.044
REMARK INTER + INTRA:          -8.725
REMARK INTER:                  -8.128
REMARK INTRA:                  -0.597
REMARK UNBOUND:                -0.651
REMARK  Name = 
REMARK  10 active torsions:
REMARK  status: ('A' for Active; 'I' for Inactive)
REMARK    1  A    between atoms: C_1  and  C_2
REMARK    2  A    between atoms: C_2  and  N_3
REMARK    3  A    between atoms: N_3  and  C_4
REMARK    4  A    between atoms: C_5  and  C_7
REMARK    5  A    between atoms: N_11  and  C_12
REMARK    6  A    between atoms: C_12  and  C_13
REMARK    7  A    between atoms: C_13  and  C_14
REMARK    8  A    between atoms: C_13  and  C_15
REMARK    9  A    between atoms: C_13  and  C_16
REMARK   10  A    between atoms: C_20  and  C_21
REMARK                            x       y       z     vdW  Elec       q    Type
REMARK                         _______ _______ _______ _____ _____    ______ ____
ROOT
ATOM      1  C   UNL     1      49.100   7.618  14.503  0.00  0.00    +0.000 A 
ATOM      2  C   UNL     1      48.090   8.526  14.792  0.00  0.00    +0.000 A 
ATOM      3  C   UNL     1      46.983   8.600  13.950  0.00  0.00    +0.000 A 
ATOM      4  C   UNL     1      46.921   7.800  12.811  0.00  0.00    +0.000 A 
ATOM      5  N   UNL     1      45.736   7.846  12.071  0.00  0.00    +0.000 N 
ATOM      6  N   UNL     1      47.945   7.000  12.459  0.00  0.00    +0.000 NA
ATOM      7  C   UNL     1      49.018   6.938  13.295  0.00  0.00    +0.000 A 
ATOM      8  H   UNL     1      45.587   8.798  11.753  0.00  0.00    +0.000 HD
ENDROOT
BRANCH   1  11
ATOM      9  N   UNL     1      50.046   6.497  16.525  0.00  0.00    +0.000 N 
ATOM     10  C   UNL     1      48.860   5.686  16.775  0.00  0.00    +0.000 C 
ATOM     11  C   UNL     1      50.233   7.340  15.418  0.00  0.00    +0.000 C 
ATOM     12  O   UNL     1      51.318   7.850  15.144  0.00  0.00    +0.000 OA
BRANCH   9  14
ATOM     13  C   UNL     1      51.681   4.844  17.379  0.00  0.00    +0.000 C 
ATOM     14  C   UNL     1      51.177   6.280  17.425  0.00  0.00    +0.000 C 
ENDBRANCH   9  14
ENDBRANCH   1  11
BRANCH   5  15
ATOM     15  C   UNL     1      45.564   6.832  11.027  0.00  0.00    +0.000 C 
BRANCH  15  16
ATOM     16  C   UNL     1      44.525   5.736  11.452  0.00  0.00    +0.000 C 
ATOM     17  C   UNL     1      44.762   5.354  12.935  0.00  0.00    +0.000 C 
ATOM     18  C   UNL     1      43.089   6.309  11.350  0.00  0.00    +0.000 C 
BRANCH  16  19
ATOM     19  C   UNL     1      44.630   4.517  10.502  0.00  0.00    +0.000 A 
ATOM     20  C   UNL     1      44.066   3.280  10.873  0.00  0.00    +0.000 A 
ATOM     21  C   UNL     1      44.157   2.158  10.045  0.00  0.00    +0.000 A 
ATOM     22  C   UNL     1      44.814   2.241   8.822  0.00  0.00    +0.000 A 
ATOM     23  C   UNL     1      45.383   3.453   8.427  0.00  0.00    +0.000 A 
ATOM     24  C   UNL     1      45.288   4.577   9.260  0.00  0.00    +0.000 A 
BRANCH  23  25
ATOM     25  C   UNL     1      46.065   3.540   7.168  0.00  0.00    +0.000 C 
ATOM     26  N   UNL     1      46.627   3.614   6.148  0.00  0.00    +0.000 NA
ENDBRANCH  23  25
ENDBRANCH  16  19
ENDBRANCH  15  16
ENDBRANCH   5  15
TORSDOF 6
ENDMDL
MODEL 6
REMARK VINA RESULT:    -5.774      2.665      4.736
REMARK INTER + INTRA:          -8.451
REMARK INTER:                  -7.625
REMARK INTRA:                  -0.826
REMARK UNBOUND:                -0.651
REMARK  Name = 
REMARK  10 active torsions:
REMARK  status: ('A' for Active; 'I' for Inactive)
REMARK    1  A    between atoms: C_1  and  C_2
REMARK    2  A    between atoms: C_2  and  N_3
REMARK    3  A    between atoms: N_3  and  C_4
REMARK    4  A    between atoms: C_5  and  C_7
REMARK    5  A    between atoms: N_11  and  C_12
REMARK    6  A    between atoms: C_12  and  C_13
REMARK    7  A    between atoms: C_13  and  C_14
REMARK    8  A    between atoms: C_13  and  C_15
REMARK    9  A    between atoms: C_13  and  C_16
REMARK   10  A    between atoms: C_20  and  C_21
REMARK                            x       y       z     vdW  Elec       q    Type
REMARK                         _______ _______ _______ _____ _____    ______ ____
ROOT
ATOM      1  C   UNL     1      48.785   5.407  17.534  0.00  0.00    +0.000 A 
ATOM      2  C   UNL     1      47.808   4.451  17.783  0.00  0.00    +0.000 A 
ATOM      3  C   UNL     1      47.023   3.993  16.727  0.00  0.00    +0.000 A 
ATOM      4  C   UNL     1      47.196   4.525  15.451  0.00  0.00    +0.000 A 
ATOM      5  N   UNL     1      46.451   3.944  14.419  0.00  0.00    +0.000 N 
ATOM      6  N   UNL     1      48.059   5.532  15.220  0.00  0.00    +0.000 NA
ATOM      7  C   UNL     1      48.820   5.966  16.263  0.00  0.00    +0.000 A 
ATOM      8  H   UNL     1      45.465   4.043  14.634  0.00  0.00    +0.000 HD
ENDROOT
BRANCH   1  11
ATOM      9  N   UNL     1      50.987   5.130  18.680  0.00  0.00    +0.000 N 
ATOM     10  C   UNL     1      51.463   4.094  17.772  0.00  0.00    +0.000 C 
ATOM     11  C   UNL     1      49.782   5.836  18.544  0.00  0.00    +0.000 C 
ATOM     12  O   UNL     1      49.513   6.832  19.214  0.00  0.00    +0.000 OA
BRANCH   9  14
ATOM     13  C   UNL     1      52.444   4.394  20.543  0.00  0.00    +0.000 C 
ATOM     14  C   UNL     1      51.926   5.561  19.715  0.00  0.00    +0.000 C 
ENDBRANCH   9  14
ENDBRANCH   1  11
BRANCH   5  15
ATOM     15  C   UNL     1      46.808   4.322  13.049  0.00  0.00    +0.000 C 
BRANCH  15  16
ATOM     16  C   UNL     1      45.676   5.172  12.372  0.00  0.00    +0.000 C 
ATOM     17  C   UNL     1      45.309   4.540  11.005  0.00  0.00    +0.000 C 
ATOM     18  C   UNL     1      44.400   5.137  13.250  0.00  0.00    +0.000 C 
BRANCH  16  19
ATOM     19  C   UNL     1      46.135   6.645  12.239  0.00  0.00    +0.000 A 
ATOM     20  C   UNL     1      47.509   6.956  12.191  0.00  0.00    +0.000 A 
ATOM     21  C   UNL     1      47.956   8.276  12.088  0.00  0.00    +0.000 A 
ATOM     22  C   UNL     1      47.042   9.323  12.028  0.00  0.00    +0.000 A 
ATOM     23  C   UNL     1      45.675   9.046  12.074  0.00  0.00    +0.000 A 
ATOM     24  C   UNL     1      45.230   7.720  12.176  0.00  0.00    +0.000 A 
BRANCH  23  25
ATOM     25  C   UNL     1      44.730  10.124  12.016  0.00  0.00    +0.000 C 
ATOM     26  N   UNL     1      43.966  11.004  11.964  0.00  0.00    +0.000 NA
ENDBRANCH  23  25
ENDBRANCH  16  19
ENDBRANCH  15  16
ENDBRANCH   5  15
TORSDOF 6
ENDMDL
MODEL 7
REMARK VINA RESULT:    -5.687      3.744      8.695
REMARK INTER + INTRA:          -8.333
REMARK INTER:                  -7.362
REMARK INTRA:                  -0.971
REMARK UNBOUND:                -0.651
REMARK  Name = 
REMARK  10 active torsions:
REMARK  status: ('A' for Active; 'I' for Inactive)
REMARK    1  A    between atoms: C_1  and  C_2
REMARK    2  A    between atoms: C_2  and  N_3
REMARK    3  A    between atoms: N_3  and  C_4
REMARK    4  A    between atoms: C_5  and  C_7
REMARK    5  A    between atoms: N_11  and  C_12
REMARK    6  A    between atoms: C_12  and  C_13
REMARK    7  A    between atoms: C_13  and  C_14
REMARK    8  A    between atoms: C_13  and  C_15
REMARK    9  A    between atoms: C_13  and  C_16
REMARK   10  A    between atoms: C_20  and  C_21
REMARK                            x       y       z     vdW  Elec       q    Type
REMARK                         _______ _______ _______ _____ _____    ______ ____
ROOT
ATOM      1  C   UNL     1      46.419   7.524  12.330  0.00  0.00    +0.000 A 
ATOM      2  C   UNL     1      47.615   7.003  11.854  0.00  0.00    +0.000 A 
ATOM      3  C   UNL     1      48.794   7.267  12.548  0.00  0.00    +0.000 A 
ATOM      4  C   UNL     1      48.767   8.080  13.679  0.00  0.00    +0.000 A 
ATOM      5  N   UNL     1      49.965   8.215  14.388  0.00  0.00    +0.000 N 
ATOM      6  N   UNL     1      47.634   8.684  14.083  0.00  0.00    +0.000 NA
ATOM      7  C   UNL     1      46.490   8.413  13.395  0.00  0.00    +0.000 A 
ATOM      8  H   UNL     1      50.665   8.614  13.771  0.00  0.00    +0.000 HD
ENDROOT
BRANCH   1  11
ATOM      9  N   UNL     1      44.529   5.914  12.051  0.00  0.00    +0.000 N 
ATOM     10  C   UNL     1      45.043   4.960  13.027  0.00  0.00    +0.000 C 
ATOM     11  C   UNL     1      45.094   7.168  11.769  0.00  0.00    +0.000 C 
ATOM     12  O   UNL     1      44.522   8.018  11.087  0.00  0.00    +0.000 OA
BRANCH   9  14
ATOM     13  C   UNL     1      43.003   4.084  11.376  0.00  0.00    +0.000 C 
ATOM     14  C   UNL     1      43.240   5.586  11.446  0.00  0.00    +0.000 C 
ENDBRANCH   9  14
ENDBRANCH   1  11
BRANCH   5  15
ATOM     15  C   UNL     1      49.890   8.855  15.704  0.00  0.00    +0.000 C 
BRANCH  15  16
ATOM     16  C   UNL     1      50.477   7.932  16.829  0.00  0.00    +0.000 C 
ATOM     17  C   UNL     1      51.438   6.896  16.192  0.00  0.00    +0.000 C 
ATOM     18  C   UNL     1      51.311   8.782  17.820  0.00  0.00    +0.000 C 
BRANCH  16  19
ATOM     19  C   UNL     1      49.321   7.263  17.614  0.00  0.00    +0.000 A 
ATOM     20  C   UNL     1      48.800   7.882  18.768  0.00  0.00    +0.000 A 
ATOM     21  C   UNL     1      47.768   7.298  19.508  0.00  0.00    +0.000 A 
ATOM     22  C   UNL     1      47.228   6.078  19.113  0.00  0.00    +0.000 A 
ATOM     23  C   UNL     1      47.724   5.441  17.975  0.00  0.00    +0.000 A 
ATOM     24  C   UNL     1      48.758   6.031  17.235  0.00  0.00    +0.000 A 
BRANCH  23  25
ATOM     25  C   UNL     1      47.172   4.181  17.569  0.00  0.00    +0.000 C 
ATOM     26  N   UNL     1      46.729   3.154  17.235  0.00  0.00    +0.000 NA
ENDBRANCH  23  25
ENDBRANCH  16  19
ENDBRANCH  15  16
ENDBRANCH   5  15
TORSDOF 6
ENDMDL
MODEL 8
REMARK VINA RESULT:    -5.552      2.819      4.683
REMARK INTER + INTRA:          -8.151
REMARK INTER:                  -7.170
REMARK INTRA:                  -0.982
REMARK UNBOUND:                -0.651
REMARK  Name = 
REMARK  10 active torsions:
REMARK  status: ('A' for Active; 'I' for Inactive)
REMARK    1  A    between atoms: C_1  and  C_2
REMARK    2  A    between atoms: C_2  and  N_3
REMARK    3  A    between atoms: N_3  and  C_4
REMARK    4  A    between atoms: C_5  and  C_7
REMARK    5  A    between atoms: N_11  and  C_12
REMARK    6  A    between atoms: C_12  and  C_13
REMARK    7  A    between atoms: C_13  and  C_14
REMARK    8  A    between atoms: C_13  and  C_15
REMARK    9  A    between atoms: C_13  and  C_16
REMARK   10  A    between atoms: C_20  and  C_21
REMARK                            x       y       z     vdW  Elec       q    Type
REMARK                         _______ _______ _______ _____ _____    ______ ____
ROOT
ATOM      1  C   UNL     1      48.786   5.374  17.458  0.00  0.00    +0.000 A 
ATOM      2  C   UNL     1      47.830   4.398  17.705  0.00  0.00    +0.000 A 
ATOM      3  C   UNL     1      47.038   3.942  16.654  0.00  0.00    +0.000 A 
ATOM      4  C   UNL     1      47.182   4.497  15.384  0.00  0.00    +0.000 A 
ATOM      5  N   UNL     1      46.433   3.919  14.354  0.00  0.00    +0.000 N 
ATOM      6  N   UNL     1      48.025   5.522  15.157  0.00  0.00    +0.000 NA
ATOM      7  C   UNL     1      48.794   5.953  16.196  0.00  0.00    +0.000 A 
ATOM      8  H   UNL     1      45.449   3.998  14.584  0.00  0.00    +0.000 HD
ENDROOT
BRANCH   1  11
ATOM      9  N   UNL     1      49.517   6.899  19.297  0.00  0.00    +0.000 N 
ATOM     10  C   UNL     1      48.225   7.566  19.417  0.00  0.00    +0.000 C 
ATOM     11  C   UNL     1      49.790   5.805  18.460  0.00  0.00    +0.000 C 
ATOM     12  O   UNL     1      50.830   5.153  18.535  0.00  0.00    +0.000 OA
BRANCH   9  14
ATOM     13  C   UNL     1      51.376   8.481  19.715  0.00  0.00    +0.000 C 
ATOM     14  C   UNL     1      50.549   7.318  20.244  0.00  0.00    +0.000 C 
ENDBRANCH   9  14
ENDBRANCH   1  11
BRANCH   5  15
ATOM     15  C   UNL     1      46.764   4.325  12.985  0.00  0.00    +0.000 C 
BRANCH  15  16
ATOM     16  C   UNL     1      45.647   5.239  12.369  0.00  0.00    +0.000 C 
ATOM     17  C   UNL     1      45.277   4.716  10.958  0.00  0.00    +0.000 C 
ATOM     18  C   UNL     1      44.367   5.160  13.238  0.00  0.00    +0.000 C 
BRANCH  16  19
ATOM     19  C   UNL     1      46.129   6.711  12.346  0.00  0.00    +0.000 A 
ATOM     20  C   UNL     1      45.225   7.756  12.624  0.00  0.00    +0.000 A 
ATOM     21  C   UNL     1      45.625   9.095  12.597  0.00  0.00    +0.000 A 
ATOM     22  C   UNL     1      46.941   9.427  12.293  0.00  0.00    +0.000 A 
ATOM     23  C   UNL     1      47.860   8.414  12.013  0.00  0.00    +0.000 A 
ATOM     24  C   UNL     1      47.455   7.072  12.043  0.00  0.00    +0.000 A 
BRANCH  23  25
ATOM     25  C   UNL     1      49.216   8.754  11.695  0.00  0.00    +0.000 C 
ATOM     26  N   UNL     1      50.321   9.024  11.433  0.00  0.00    +0.000 NA
ENDBRANCH  23  25
ENDBRANCH  16  19
ENDBRANCH  15  16
ENDBRANCH   5  15
TORSDOF 6
ENDMDL
MODEL 9
REMARK VINA RESULT:    -5.256      2.254      3.540
REMARK INTER + INTRA:          -7.751
REMARK INTER:                  -7.159
REMARK INTRA:                  -0.592
REMARK UNBOUND:                -0.651
REMARK  Name = 
REMARK  10 active torsions:
REMARK  status: ('A' for Active; 'I' for Inactive)
REMARK    1  A    between atoms: C_1  and  C_2
REMARK    2  A    between atoms: C_2  and  N_3
REMARK    3  A    between atoms: N_3  and  C_4
REMARK    4  A    between atoms: C_5  and  C_7
REMARK    5  A    between atoms: N_11  and  C_12
REMARK    6  A    between atoms: C_12  and  C_13
REMARK    7  A    between atoms: C_13  and  C_14
REMARK    8  A    between atoms: C_13  and  C_15
REMARK    9  A    between atoms: C_13  and  C_16
REMARK   10  A    between atoms: C_20  and  C_21
REMARK                            x       y       z     vdW  Elec       q    Type
REMARK                         _______ _______ _______ _____ _____    ______ ____
ROOT
ATOM      1  C   UNL     1      50.433   6.139  17.620  0.00  0.00    +0.000 A 
ATOM      2  C   UNL     1      50.920   7.119  16.765  0.00  0.00    +0.000 A 
ATOM      3  C   UNL     1      50.242   7.380  15.577  0.00  0.00    +0.000 A 
ATOM      4  C   UNL     1      49.116   6.632  15.240  0.00  0.00    +0.000 A 
ATOM      5  N   UNL     1      48.423   7.018  14.088  0.00  0.00    +0.000 N 
ATOM      6  N   UNL     1      48.702   5.604  16.004  0.00  0.00    +0.000 NA
ATOM      7  C   UNL     1      49.374   5.364  17.164  0.00  0.00    +0.000 A 
ATOM      8  H   UNL     1      49.051   6.954  13.294  0.00  0.00    +0.000 HD
ENDROOT
BRANCH   1  11
ATOM      9  N   UNL     1      51.991   4.948  19.168  0.00  0.00    +0.000 N 
ATOM     10  C   UNL     1      52.728   4.281  18.102  0.00  0.00    +0.000 C 
ATOM     11  C   UNL     1      50.975   5.899  18.979  0.00  0.00    +0.000 C 
ATOM     12  O   UNL     1      50.519   6.578  19.897  0.00  0.00    +0.000 OA
BRANCH   9  14
ATOM     13  C   UNL     1      53.520   3.612  20.586  0.00  0.00    +0.000 C 
ATOM     14  C   UNL     1      52.470   4.713  20.529  0.00  0.00    +0.000 C 
ENDBRANCH   9  14
ENDBRANCH   1  11
BRANCH   5  15
ATOM     15  C   UNL     1      47.110   6.406  13.867  0.00  0.00    +0.000 C 
BRANCH  15  16
ATOM     16  C   UNL     1      46.419   6.974  12.577  0.00  0.00    +0.000 C 
ATOM     17  C   UNL     1      45.702   8.303  12.924  0.00  0.00    +0.000 C 
ATOM     18  C   UNL     1      47.493   7.298  11.508  0.00  0.00    +0.000 C 
BRANCH  16  19
ATOM     19  C   UNL     1      45.452   5.915  11.991  0.00  0.00    +0.000 A 
ATOM     20  C   UNL     1      44.474   5.319  12.812  0.00  0.00    +0.000 A 
ATOM     21  C   UNL     1      43.597   4.350  12.317  0.00  0.00    +0.000 A 
ATOM     22  C   UNL     1      43.673   3.950  10.987  0.00  0.00    +0.000 A 
ATOM     23  C   UNL     1      44.632   4.522  10.150  0.00  0.00    +0.000 A 
ATOM     24  C   UNL     1      45.509   5.496  10.650  0.00  0.00    +0.000 A 
BRANCH  23  25
ATOM     25  C   UNL     1      44.716   4.108   8.779  0.00  0.00    +0.000 C 
ATOM     26  N   UNL     1      44.783   3.764   7.666  0.00  0.00    +0.000 NA
ENDBRANCH  23  25
ENDBRANCH  16  19
ENDBRANCH  15  16
ENDBRANCH   5  15
TORSDOF 6
ENDMDL
