MODEL 1
REMARK VINA RESULT:    -8.242      0.000      0.000
REMARK INTER + INTRA:         -11.133
REMARK INTER:                 -10.651
REMARK INTRA:                  -0.482
REMARK UNBOUND:                -0.482
REMARK  Name = 
REMARK  6 active torsions:
REMARK  status: ('A' for Active; 'I' for Inactive)
REMARK    1  A    between atoms: C_1  and  C_2
REMARK    2  A    between atoms: C_2  and  C_3
REMARK    3  A    between atoms: C_7  and  C_8
REMARK    4  A    between atoms: C_8  and  C_9
REMARK    5  A    between atoms: C_9  and  N_10
REMARK    6  A    between atoms: C_14  and  C_15
REMARK                            x       y       z     vdW  Elec       q    Type
REMARK                         _______ _______ _______ _____ _____    ______ ____
ROOT
ATOM      1  C   UNL     1      43.611   5.688  12.054  0.00  0.00    +0.000 C 
ENDROOT
BRANCH   1   6
ATOM      2  C   UNL     1      47.270   6.260  13.052  0.00  0.00    +0.000 A 
ATOM      3  C   UNL     1      47.534   5.038  13.701  0.00  0.00    +0.000 A 
ATOM      4  C   UNL     1      46.564   4.037  13.798  0.00  0.00    +0.000 A 
ATOM      5  C   UNL     1      45.303   4.230  13.244  0.00  0.00    +0.000 A 
ATOM      6  C   UNL     1      45.004   5.424  12.583  0.00  0.00    +0.000 A 
ATOM      7  C   UNL     1      45.989   6.426  12.495  0.00  0.00    +0.000 A 
BRANCH   2   9
ATOM      8  C   UNL     1      48.653   7.764  11.603  0.00  0.00    +0.000 C 
ATOM      9  C   UNL     1      48.341   7.364  13.056  0.00  0.00    +0.000 C 
ATOM     10  C   UNL     1      47.925   8.588  13.897  0.00  0.00    +0.000 C 
ATOM     11  C   UNL     1      48.615   8.424  15.249  0.00  0.00    +0.000 C 
ATOM     12  C   UNL     1      49.453   7.168  15.126  0.00  0.00    +0.000 C 
ATOM     13  N   UNL     1      49.622   7.005  13.690  0.00  0.00    +0.000 NA
ATOM     14  H   UNL     1      49.936   6.076  13.427  0.00  0.00    +0.000 HD
ENDBRANCH   2   9
ENDBRANCH   1   6
BRANCH   1  15
ATOM     15  C   UNL     1      43.493   5.200  10.607  0.00  0.00    +0.000 C 
BRANCH  15  16
ATOM     16  N   UNL     1      43.710   3.751  10.508  0.00  0.00    +0.000 N 
ATOM     17  C   UNL     1      44.647   3.422   9.507  0.00  0.00    +0.000 A 
ATOM     18  C   UNL     1      44.956   2.084   9.283  0.00  0.00    +0.000 A 
ATOM     19  C   UNL     1      45.891   1.749   8.296  0.00  0.00    +0.000 A 
ATOM     20  C   UNL     1      46.504   2.758   7.551  0.00  0.00    +0.000 A 
ATOM     21  C   UNL     1      46.149   4.059   7.851  0.00  0.00    +0.000 A 
ATOM     22  N   UNL     1      45.249   4.402   8.803  0.00  0.00    +0.000 NA
ATOM     23  H   UNL     1      42.850   3.243  10.323  0.00  0.00    +0.000 HD
BRANCH  20  24
ATOM     24  C   UNL     1      47.482   2.406   6.494  0.00  0.00    +0.000 C 
ATOM     25  N   UNL     1      47.416   3.045   5.288  0.00  0.00    +0.000 N 
ATOM     26  O   UNL     1      48.338   1.550   6.689  0.00  0.00    +0.000 OA
ATOM     27  H   UNL     1      46.754   3.757   5.023  0.00  0.00    +0.000 HD
ATOM     28  H   UNL     1      48.100   2.769   4.592  0.00  0.00    +0.000 HD
ENDBRANCH  20  24
ENDBRANCH  15  16
ENDBRANCH   1  15
TORSDOF 5
ENDMDL
MODEL 2
REMARK VINA RESULT:    -7.888      1.099      1.877
REMARK INTER + INTRA:         -10.676
REMARK INTER:                  -9.902
REMARK INTRA:                  -0.773
REMARK UNBOUND:                -0.482
REMARK  Name = 
REMARK  6 active torsions:
REMARK  status: ('A' for Active; 'I' for Inactive)
REMARK    1  A    between atoms: C_1  and  C_2
REMARK    2  A    between atoms: C_2  and  C_3
REMARK    3  A    between atoms: C_7  and  C_8
REMARK    4  A    between atoms: C_8  and  C_9
REMARK    5  A    between atoms: C_9  and  N_10
REMARK    6  A    between atoms: C_14  and  C_15
REMARK                            x       y       z     vdW  Elec       q    Type
REMARK                         _______ _______ _______ _____ _____    ______ ____
ROOT
ATOM      1  C   UNL     1      44.178   5.811  12.297  0.00  0.00    +0.000 C 
ENDROOT
BRANCH   1   6
ATOM      2  C   UNL     1      47.354   7.947  12.540  0.00  0.00    +0.000 A 
ATOM      3  C   UNL     1      46.838   9.190  12.123  0.00  0.00    +0.000 A 
ATOM      4  C   UNL     1      45.490   9.348  11.792  0.00  0.00    +0.000 A 
ATOM      5  C   UNL     1      44.620   8.266  11.871  0.00  0.00    +0.000 A 
ATOM      6  C   UNL     1      45.090   7.019  12.291  0.00  0.00    +0.000 A 
ATOM      7  C   UNL     1      46.451   6.872  12.618  0.00  0.00    +0.000 A 
BRANCH   2   9
ATOM      8  C   UNL     1      49.599   7.698  11.456  0.00  0.00    +0.000 C 
ATOM      9  C   UNL     1      48.863   7.807  12.803  0.00  0.00    +0.000 C 
ATOM     10  C   UNL     1      49.424   8.963  13.655  0.00  0.00    +0.000 C 
ATOM     11  C   UNL     1      49.498   8.434  15.086  0.00  0.00    +0.000 C 
ATOM     12  C   UNL     1      49.054   6.988  15.006  0.00  0.00    +0.000 C 
ATOM     13  N   UNL     1      49.262   6.639  13.609  0.00  0.00    +0.000 NA
ATOM     14  H   UNL     1      48.776   5.793  13.330  0.00  0.00    +0.000 HD
ENDBRANCH   2   9
ENDBRANCH   1   6
BRANCH   1  15
ATOM     15  C   UNL     1      43.827   5.405  10.863  0.00  0.00    +0.000 C 
BRANCH  15  16
ATOM     16  N   UNL     1      43.885   3.948  10.686  0.00  0.00    +0.000 N 
ATOM     17  C   UNL     1      44.750   3.573   9.638  0.00  0.00    +0.000 A 
ATOM     18  C   UNL     1      44.907   2.224   9.340  0.00  0.00    +0.000 A 
ATOM     19  C   UNL     1      45.771   1.844   8.305  0.00  0.00    +0.000 A 
ATOM     20  C   UNL     1      46.466   2.819   7.589  0.00  0.00    +0.000 A 
ATOM     21  C   UNL     1      46.262   4.133   7.963  0.00  0.00    +0.000 A 
ATOM     22  N   UNL     1      45.433   4.520   8.962  0.00  0.00    +0.000 NA
ATOM     23  H   UNL     1      42.970   3.544  10.507  0.00  0.00    +0.000 HD
BRANCH  20  24
ATOM     24  C   UNL     1      47.369   2.420   6.482  0.00  0.00    +0.000 C 
ATOM     25  N   UNL     1      47.258   3.050   5.274  0.00  0.00    +0.000 N 
ATOM     26  O   UNL     1      48.203   1.535   6.638  0.00  0.00    +0.000 OA
ATOM     27  H   UNL     1      46.608   3.783   5.039  0.00  0.00    +0.000 HD
ATOM     28  H   UNL     1      47.891   2.741   4.545  0.00  0.00    +0.000 HD
ENDBRANCH  20  24
ENDBRANCH  15  16
ENDBRANCH   1  15
TORSDOF 5
ENDMDL
MODEL 3
REMARK VINA RESULT:    -7.177      1.276      2.086
REMARK INTER + INTRA:          -9.757
REMARK INTER:                  -9.077
REMARK INTRA:                  -0.680
REMARK UNBOUND:                -0.482
REMARK  Name = 
REMARK  6 active torsions:
REMARK  status: ('A' for Active; 'I' for Inactive)
REMARK    1  A    between atoms: C_1  and  C_2
REMARK    2  A    between atoms: C_2  and  C_3
REMARK    3  A    between atoms: C_7  and  C_8
REMARK    4  A    between atoms: C_8  and  C_9
REMARK    5  A    between atoms: C_9  and  N_10
REMARK    6  A    between atoms: C_14  and  C_15
REMARK                            x       y       z     vdW  Elec       q    Type
REMARK                         _______ _______ _______ _____ _____    ______ ____
ROOT
ATOM      1  C   UNL     1      44.579   5.446  12.540  0.00  0.00    +0.000 C 
ENDROOT
BRANCH   1   6
ATOM      2  C   UNL     1      47.881   6.843  13.902  0.00  0.00    +0.000 A 
ATOM      3  C   UNL     1      48.489   7.239  12.694  0.00  0.00    +0.000 A 
ATOM      4  C   UNL     1      47.843   7.083  11.465  0.00  0.00    +0.000 A 
ATOM      5  C   UNL     1      46.569   6.528  11.411  0.00  0.00    +0.000 A 
ATOM      6  C   UNL     1      45.927   6.133  12.588  0.00  0.00    +0.000 A 
ATOM      7  C   UNL     1      46.590   6.293  13.819  0.00  0.00    +0.000 A 
BRANCH   2   9
ATOM      8  C   UNL     1      48.548   5.627  15.988  0.00  0.00    +0.000 C 
ATOM      9  C   UNL     1      48.673   6.952  15.216  0.00  0.00    +0.000 C 
ATOM     10  C   UNL     1      50.151   7.328  14.986  0.00  0.00    +0.000 C 
ATOM     11  C   UNL     1      50.246   8.833  15.232  0.00  0.00    +0.000 C 
ATOM     12  C   UNL     1      48.858   9.260  15.662  0.00  0.00    +0.000 C 
ATOM     13  N   UNL     1      48.245   8.027  16.130  0.00  0.00    +0.000 NA
ATOM     14  H   UNL     1      47.235   8.086  16.209  0.00  0.00    +0.000 HD
ENDBRANCH   2   9
ENDBRANCH   1   6
BRANCH   1  15
ATOM     15  C   UNL     1      44.196   5.131  11.092  0.00  0.00    +0.000 C 
BRANCH  15  16
ATOM     16  N   UNL     1      44.322   3.698  10.800  0.00  0.00    +0.000 N 
ATOM     17  C   UNL     1      45.062   3.457   9.624  0.00  0.00    +0.000 A 
ATOM     18  C   UNL     1      45.263   2.145   9.208  0.00  0.00    +0.000 A 
ATOM     19  C   UNL     1      46.002   1.898   8.046  0.00  0.00    +0.000 A 
ATOM     20  C   UNL     1      46.531   2.966   7.320  0.00  0.00    +0.000 A 
ATOM     21  C   UNL     1      46.296   4.235   7.815  0.00  0.00    +0.000 A 
ATOM     22  N   UNL     1      45.586   4.493   8.938  0.00  0.00    +0.000 NA
ATOM     23  H   UNL     1      43.419   3.240  10.712  0.00  0.00    +0.000 HD
BRANCH  20  24
ATOM     24  C   UNL     1      47.302   2.708   6.079  0.00  0.00    +0.000 C 
ATOM     25  N   UNL     1      48.631   2.405   6.174  0.00  0.00    +0.000 N 
ATOM     26  O   UNL     1      46.763   2.769   4.980  0.00  0.00    +0.000 OA
ATOM     27  H   UNL     1      49.170   2.333   7.022  0.00  0.00    +0.000 HD
ATOM     28  H   UNL     1      49.120   2.243   5.301  0.00  0.00    +0.000 HD
ENDBRANCH  20  24
ENDBRANCH  15  16
ENDBRANCH   1  15
TORSDOF 5
ENDMDL
MODEL 4
REMARK VINA RESULT:    -7.058      3.477      7.708
REMARK INTER + INTRA:          -9.603
REMARK INTER:                  -8.847
REMARK INTRA:                  -0.756
REMARK UNBOUND:                -0.482
REMARK  Name = 
REMARK  6 active torsions:
REMARK  status: ('A' for Active; 'I' for Inactive)
REMARK    1  A    between atoms: C_1  and  C_2
REMARK    2  A    between atoms: C_2  and  C_3
REMARK    3  A    between atoms: C_7  and  C_8
REMARK    4  A    between atoms: C_8  and  C_9
REMARK    5  A    between atoms: C_9  and  N_10
REMARK    6  A    between atoms: C_14  and  C_15
REMARK                            x       y       z     vdW  Elec       q    Type
REMARK                         _______ _______ _______ _____ _____    ______ ____
ROOT
ATOM      1  C   UNL     1      47.701   8.681  13.729  0.00  0.00    +0.000 C 
ENDROOT
BRANCH   1   6
ATOM      2  C   UNL     1      45.064   7.032  11.485  0.00  0.00    +0.000 A 
ATOM      3  C   UNL     1      44.344   8.175  11.084  0.00  0.00    +0.000 A 
ATOM      4  C   UNL     1      44.710   9.455  11.507  0.00  0.00    +0.000 A 
ATOM      5  C   UNL     1      45.810   9.628  12.341  0.00  0.00    +0.000 A 
ATOM      6  C   UNL     1      46.557   8.522  12.752  0.00  0.00    +0.000 A 
ATOM      7  C   UNL     1      46.176   7.237  12.322  0.00  0.00    +0.000 A 
BRANCH   2   9
ATOM      8  C   UNL     1      45.410   5.136   9.885  0.00  0.00    +0.000 C 
ATOM      9  C   UNL     1      44.563   5.639  11.067  0.00  0.00    +0.000 C 
ATOM     10  C   UNL     1      44.578   4.632  12.235  0.00  0.00    +0.000 C 
ATOM     11  C   UNL     1      43.147   4.583  12.766  0.00  0.00    +0.000 C 
ATOM     12  C   UNL     1      42.347   5.494  11.857  0.00  0.00    +0.000 C 
ATOM     13  N   UNL     1      43.152   5.570  10.648  0.00  0.00    +0.000 NA
ATOM     14  H   UNL     1      42.892   6.340  10.041  0.00  0.00    +0.000 HD
ENDBRANCH   2   9
ENDBRANCH   1   6
BRANCH   1  15
ATOM     15  C   UNL     1      48.733   7.569  13.523  0.00  0.00    +0.000 C 
BRANCH  15  16
ATOM     16  N   UNL     1      49.570   7.383  14.716  0.00  0.00    +0.000 N 
ATOM     17  C   UNL     1      49.097   6.340  15.539  0.00  0.00    +0.000 A 
ATOM     18  C   UNL     1      49.780   6.045  16.715  0.00  0.00    +0.000 A 
ATOM     19  C   UNL     1      49.321   5.006  17.534  0.00  0.00    +0.000 A 
ATOM     20  C   UNL     1      48.189   4.278  17.162  0.00  0.00    +0.000 A 
ATOM     21  C   UNL     1      47.584   4.629  15.971  0.00  0.00    +0.000 A 
ATOM     22  N   UNL     1      48.014   5.629  15.165  0.00  0.00    +0.000 NA
ATOM     23  H   UNL     1      49.640   8.228  15.275  0.00  0.00    +0.000 HD
BRANCH  20  24
ATOM     24  C   UNL     1      47.692   3.188  18.036  0.00  0.00    +0.000 C 
ATOM     25  N   UNL     1      48.309   2.963  19.235  0.00  0.00    +0.000 N 
ATOM     26  O   UNL     1      46.745   2.489  17.693  0.00  0.00    +0.000 OA
ATOM     27  H   UNL     1      49.094   3.473  19.609  0.00  0.00    +0.000 HD
ATOM     28  H   UNL     1      47.941   2.204  19.796  0.00  0.00    +0.000 HD
ENDBRANCH  20  24
ENDBRANCH  15  16
ENDBRANCH   1  15
TORSDOF 5
ENDMDL
MODEL 5
REMARK VINA RESULT:    -6.995      3.321      5.464
REMARK INTER + INTRA:          -9.522
REMARK INTER:                  -8.659
REMARK INTRA:                  -0.863
REMARK UNBOUND:                -0.482
REMARK  Name = 
REMARK  6 active torsions:
REMARK  status: ('A' for Active; 'I' for Inactive)
REMARK    1  A    between atoms: C_1  and  C_2
REMARK    2  A    between atoms: C_2  and  C_3
REMARK    3  A    between atoms: C_7  and  C_8
REMARK    4  A    between atoms: C_8  and  C_9
REMARK    5  A    between atoms: C_9  and  N_10
REMARK    6  A    between atoms: C_14  and  C_15
REMARK                            x       y       z     vdW  Elec       q    Type
REMARK                         _______ _______ _______ _____ _____    ______ ____
ROOT
ATOM      1  C   UNL     1      49.030   7.739  13.918  0.00  0.00    +0.000 C 
ENDROOT
BRANCH   1   6
ATOM      2  C   UNL     1      49.040   5.542  17.062  0.00  0.00    +0.000 A 
ATOM      3  C   UNL     1      50.406   5.617  17.401  0.00  0.00    +0.000 A 
ATOM      4  C   UNL     1      51.305   6.378  16.649  0.00  0.00    +0.000 A 
ATOM      5  C   UNL     1      50.861   7.087  15.538  0.00  0.00    +0.000 A 
ATOM      6  C   UNL     1      49.513   7.048  15.175  0.00  0.00    +0.000 A 
ATOM      7  C   UNL     1      48.618   6.275  15.938  0.00  0.00    +0.000 A 
BRANCH   2   9
ATOM      8  C   UNL     1      47.762   3.388  17.011  0.00  0.00    +0.000 C 
ATOM      9  C   UNL     1      48.113   4.617  17.868  0.00  0.00    +0.000 C 
ATOM     10  C   UNL     1      48.725   4.200  19.221  0.00  0.00    +0.000 C 
ATOM     11  C   UNL     1      48.105   5.124  20.266  0.00  0.00    +0.000 C 
ATOM     12  C   UNL     1      47.114   5.985  19.509  0.00  0.00    +0.000 C 
ATOM     13  N   UNL     1      46.839   5.216  18.305  0.00  0.00    +0.000 NA
ATOM     14  H   UNL     1      46.400   5.764  17.572  0.00  0.00    +0.000 HD
ENDBRANCH   2   9
ENDBRANCH   1   6
BRANCH   1  15
ATOM     15  C   UNL     1      47.535   7.479  13.711  0.00  0.00    +0.000 C 
BRANCH  15  16
ATOM     16  N   UNL     1      47.182   7.473  12.286  0.00  0.00    +0.000 N 
ATOM     17  C   UNL     1      46.407   6.349  11.934  0.00  0.00    +0.000 A 
ATOM     18  C   UNL     1      45.998   6.195  10.614  0.00  0.00    +0.000 A 
ATOM     19  C   UNL     1      45.222   5.085  10.259  0.00  0.00    +0.000 A 
ATOM     20  C   UNL     1      44.866   4.149  11.230  0.00  0.00    +0.000 A 
ATOM     21  C   UNL     1      45.302   4.389  12.519  0.00  0.00    +0.000 A 
ATOM     22  N   UNL     1      46.050   5.458  12.882  0.00  0.00    +0.000 NA
ATOM     23  H   UNL     1      48.000   7.501  11.685  0.00  0.00    +0.000 HD
BRANCH  20  24
ATOM     24  C   UNL     1      44.058   2.964  10.854  0.00  0.00    +0.000 C 
ATOM     25  N   UNL     1      44.527   2.120   9.886  0.00  0.00    +0.000 N 
ATOM     26  O   UNL     1      42.980   2.740  11.393  0.00  0.00    +0.000 OA
ATOM     27  H   UNL     1      45.393   2.213   9.380  0.00  0.00    +0.000 HD
ATOM     28  H   UNL     1      43.939   1.327   9.656  0.00  0.00    +0.000 HD
ENDBRANCH  20  24
ENDBRANCH  15  16
ENDBRANCH   1  15
TORSDOF 5
ENDMDL
MODEL 6
REMARK VINA RESULT:    -6.935      4.454      8.947
REMARK INTER + INTRA:          -9.444
REMARK INTER:                  -8.745
REMARK INTRA:                  -0.698
REMARK UNBOUND:                -0.482
REMARK  Name = 
REMARK  6 active torsions:
REMARK  status: ('A' for Active; 'I' for Inactive)
REMARK    1  A    between atoms: C_1  and  C_2
REMARK    2  A    between atoms: C_2  and  C_3
REMARK    3  A    between atoms: C_7  and  C_8
REMARK    4  A    between atoms: C_8  and  C_9
REMARK    5  A    between atoms: C_9  and  N_10
REMARK    6  A    between atoms: C_14  and  C_15
REMARK                            x       y       z     vdW  Elec       q    Type
REMARK                         _______ _______ _______ _____ _____    ______ ____
ROOT
ATOM      1  C   UNL     1      47.107   4.486  14.863  0.00  0.00    +0.000 C 
ENDROOT
BRANCH   1   6
ATOM      2  C   UNL     1      45.286   4.693  11.493  0.00  0.00    +0.000 A 
ATOM      3  C   UNL     1      45.860   5.875  10.984  0.00  0.00    +0.000 A 
ATOM      4  C   UNL     1      46.830   6.582  11.697  0.00  0.00    +0.000 A 
ATOM      5  C   UNL     1      47.257   6.124  12.940  0.00  0.00    +0.000 A 
ATOM      6  C   UNL     1      46.721   4.950  13.475  0.00  0.00    +0.000 A 
ATOM      7  C   UNL     1      45.741   4.248  12.748  0.00  0.00    +0.000 A 
BRANCH   2   9
ATOM      8  C   UNL     1      42.817   4.275  11.420  0.00  0.00    +0.000 C 
ATOM      9  C   UNL     1      44.155   4.004  10.710  0.00  0.00    +0.000 C 
ATOM     10  C   UNL     1      44.105   4.447   9.233  0.00  0.00    +0.000 C 
ATOM     11  C   UNL     1      44.821   3.355   8.442  0.00  0.00    +0.000 C 
ATOM     12  C   UNL     1      45.193   2.296   9.459  0.00  0.00    +0.000 C 
ATOM     13  N   UNL     1      44.280   2.543  10.564  0.00  0.00    +0.000 NA
ATOM     14  H   UNL     1      44.565   2.093  11.428  0.00  0.00    +0.000 HD
ENDBRANCH   2   9
ENDBRANCH   1   6
BRANCH   1  15
ATOM     15  C   UNL     1      48.017   5.519  15.532  0.00  0.00    +0.000 C 
BRANCH  15  16
ATOM     16  N   UNL     1      47.877   5.493  16.994  0.00  0.00    +0.000 N 
ATOM     17  C   UNL     1      49.081   5.140  17.638  0.00  0.00    +0.000 A 
ATOM     18  C   UNL     1      49.109   5.064  19.026  0.00  0.00    +0.000 A 
ATOM     19  C   UNL     1      50.302   4.721  19.673  0.00  0.00    +0.000 A 
ATOM     20  C   UNL     1      51.449   4.463  18.920  0.00  0.00    +0.000 A 
ATOM     21  C   UNL     1      51.335   4.577  17.548  0.00  0.00    +0.000 A 
ATOM     22  N   UNL     1      50.190   4.910  16.905  0.00  0.00    +0.000 NA
ATOM     23  H   UNL     1      47.149   4.856  17.302  0.00  0.00    +0.000 HD
BRANCH  20  24
ATOM     24  C   UNL     1      52.710   4.084  19.601  0.00  0.00    +0.000 C 
ATOM     25  N   UNL     1      53.176   2.805  19.474  0.00  0.00    +0.000 N 
ATOM     26  O   UNL     1      53.331   4.898  20.276  0.00  0.00    +0.000 OA
ATOM     27  H   UNL     1      52.744   2.060  18.950  0.00  0.00    +0.000 HD
ATOM     28  H   UNL     1      54.038   2.588  19.962  0.00  0.00    +0.000 HD
ENDBRANCH  20  24
ENDBRANCH  15  16
ENDBRANCH   1  15
TORSDOF 5
ENDMDL
MODEL 7
REMARK VINA RESULT:    -6.776      3.758      8.153
REMARK INTER + INTRA:          -9.238
REMARK INTER:                  -8.640
REMARK INTRA:                  -0.598
REMARK UNBOUND:                -0.482
REMARK  Name = 
REMARK  6 active torsions:
REMARK  status: ('A' for Active; 'I' for Inactive)
REMARK    1  A    between atoms: C_1  and  C_2
REMARK    2  A    between atoms: C_2  and  C_3
REMARK    3  A    between atoms: C_7  and  C_8
REMARK    4  A    between atoms: C_8  and  C_9
REMARK    5  A    between atoms: C_9  and  N_10
REMARK    6  A    between atoms: C_14  and  C_15
REMARK                            x       y       z     vdW  Elec       q    Type
REMARK                         _______ _______ _______ _____ _____    ______ ____
ROOT
ATOM      1  C   UNL     1      48.643   7.173  13.235  0.00  0.00    +0.000 C 
ENDROOT
BRANCH   1   6
ATOM      2  C   UNL     1      45.482   6.279  11.255  0.00  0.00    +0.000 A 
ATOM      3  C   UNL     1      44.751   7.473  11.421  0.00  0.00    +0.000 A 
ATOM      4  C   UNL     1      45.271   8.555  12.135  0.00  0.00    +0.000 A 
ATOM      5  C   UNL     1      46.539   8.474  12.702  0.00  0.00    +0.000 A 
ATOM      6  C   UNL     1      47.300   7.312  12.551  0.00  0.00    +0.000 A 
ATOM      7  C   UNL     1      46.764   6.228  11.832  0.00  0.00    +0.000 A 
BRANCH   2   9
ATOM      8  C   UNL     1      45.502   4.888   9.172  0.00  0.00    +0.000 C 
ATOM      9  C   UNL     1      44.826   5.086  10.540  0.00  0.00    +0.000 C 
ATOM     10  C   UNL     1      44.876   3.794  11.380  0.00  0.00    +0.000 C 
ATOM     11  C   UNL     1      43.508   3.673  12.049  0.00  0.00    +0.000 C 
ATOM     12  C   UNL     1      42.698   4.841  11.525  0.00  0.00    +0.000 C 
ATOM     13  N   UNL     1      43.378   5.209  10.293  0.00  0.00    +0.000 NA
ATOM     14  H   UNL     1      43.122   6.131   9.954  0.00  0.00    +0.000 HD
ENDBRANCH   2   9
ENDBRANCH   1   6
BRANCH   1  15
ATOM     15  C   UNL     1      48.510   7.479  14.729  0.00  0.00    +0.000 C 
BRANCH  15  16
ATOM     16  N   UNL     1      47.952   6.337  15.465  0.00  0.00    +0.000 N 
ATOM     17  C   UNL     1      48.927   5.674  16.238  0.00  0.00    +0.000 A 
ATOM     18  C   UNL     1      48.556   4.564  16.989  0.00  0.00    +0.000 A 
ATOM     19  C   UNL     1      49.517   3.906  17.766  0.00  0.00    +0.000 A 
ATOM     20  C   UNL     1      50.833   4.371  17.781  0.00  0.00    +0.000 A 
ATOM     21  C   UNL     1      51.110   5.489  17.018  0.00  0.00    +0.000 A 
ATOM     22  N   UNL     1      50.193   6.140  16.263  0.00  0.00    +0.000 NA
ATOM     23  H   UNL     1      47.513   5.657  14.850  0.00  0.00    +0.000 HD
BRANCH  20  24
ATOM     24  C   UNL     1      51.857   3.666  18.590  0.00  0.00    +0.000 C 
ATOM     25  N   UNL     1      52.070   4.060  19.881  0.00  0.00    +0.000 N 
ATOM     26  O   UNL     1      52.511   2.746  18.114  0.00  0.00    +0.000 OA
ATOM     27  H   UNL     1      51.593   4.803  20.367  0.00  0.00    +0.000 HD
ATOM     28  H   UNL     1      52.784   3.556  20.395  0.00  0.00    +0.000 HD
ENDBRANCH  20  24
ENDBRANCH  15  16
ENDBRANCH   1  15
TORSDOF 5
ENDMDL
MODEL 8
REMARK VINA RESULT:    -6.649      3.808      8.454
REMARK INTER + INTRA:          -9.075
REMARK INTER:                  -8.485
REMARK INTRA:                  -0.590
REMARK UNBOUND:                -0.482
REMARK  Name = 
REMARK  6 active torsions:
REMARK  status: ('A' for Active; 'I' for Inactive)
REMARK    1  A    between atoms: C_1  and  C_2
REMARK    2  A    between atoms: C_2  and  C_3
REMARK    3  A    between atoms: C_7  and  C_8
REMARK    4  A    between atoms: C_8  and  C_9
REMARK    5  A    between atoms: C_9  and  N_10
REMARK    6  A    between atoms: C_14  and  C_15
REMARK                            x       y       z     vdW  Elec       q    Type
REMARK                         _______ _______ _______ _____ _____    ______ ____
ROOT
ATOM      1  C   UNL     1      47.849   7.060  12.694  0.00  0.00    +0.000 C 
ENDROOT
BRANCH   1   6
ATOM      2  C   UNL     1      45.207   4.444  11.752  0.00  0.00    +0.000 A 
ATOM      3  C   UNL     1      45.551   3.421  12.658  0.00  0.00    +0.000 A 
ATOM      4  C   UNL     1      46.596   3.574  13.572  0.00  0.00    +0.000 A 
ATOM      5  C   UNL     1      47.326   4.758  13.607  0.00  0.00    +0.000 A 
ATOM      6  C   UNL     1      47.010   5.801  12.732  0.00  0.00    +0.000 A 
ATOM      7  C   UNL     1      45.957   5.633  11.814  0.00  0.00    +0.000 A 
BRANCH   2   9
ATOM      8  C   UNL     1      42.790   4.806  11.201  0.00  0.00    +0.000 C 
ATOM      9  C   UNL     1      44.109   4.188  10.706  0.00  0.00    +0.000 C 
ATOM     10  C   UNL     1      44.488   4.723   9.309  0.00  0.00    +0.000 C 
ATOM     11  C   UNL     1      45.006   3.520   8.524  0.00  0.00    +0.000 C 
ATOM     12  C   UNL     1      44.844   2.332   9.450  0.00  0.00    +0.000 C 
ATOM     13  N   UNL     1      43.837   2.771  10.403  0.00  0.00    +0.000 NA
ATOM     14  H   UNL     1      43.800   2.199  11.240  0.00  0.00    +0.000 HD
ENDBRANCH   2   9
ENDBRANCH   1   6
BRANCH   1  15
ATOM     15  C   UNL     1      48.988   6.968  13.714  0.00  0.00    +0.000 C 
BRANCH  15  16
ATOM     16  N   UNL     1      48.694   7.751  14.921  0.00  0.00    +0.000 N 
ATOM     17  C   UNL     1      48.819   6.983  16.097  0.00  0.00    +0.000 A 
ATOM     18  C   UNL     1      48.565   7.581  17.326  0.00  0.00    +0.000 A 
ATOM     19  C   UNL     1      48.695   6.827  18.499  0.00  0.00    +0.000 A 
ATOM     20  C   UNL     1      49.080   5.487  18.422  0.00  0.00    +0.000 A 
ATOM     21  C   UNL     1      49.328   4.979  17.161  0.00  0.00    +0.000 A 
ATOM     22  N   UNL     1      49.210   5.694  16.017  0.00  0.00    +0.000 NA
ATOM     23  H   UNL     1      47.763   8.158  14.901  0.00  0.00    +0.000 HD
BRANCH  20  24
ATOM     24  C   UNL     1      49.203   4.681  19.661  0.00  0.00    +0.000 C 
ATOM     25  N   UNL     1      48.418   3.572  19.813  0.00  0.00    +0.000 N 
ATOM     26  O   UNL     1      49.990   5.001  20.544  0.00  0.00    +0.000 OA
ATOM     27  H   UNL     1      47.740   3.225  19.154  0.00  0.00    +0.000 HD
ATOM     28  H   UNL     1      48.530   3.055  20.677  0.00  0.00    +0.000 HD
ENDBRANCH  20  24
ENDBRANCH  15  16
ENDBRANCH   1  15
TORSDOF 5
ENDMDL
MODEL 9
REMARK VINA RESULT:    -6.426      3.944      5.948
REMARK INTER + INTRA:          -8.787
REMARK INTER:                  -7.584
REMARK INTRA:                  -1.202
REMARK UNBOUND:                -0.482
REMARK  Name = 
REMARK  6 active torsions:
REMARK  status: ('A' for Active; 'I' for Inactive)
REMARK    1  A    between atoms: C_1  and  C_2
REMARK    2  A    between atoms: C_2  and  C_3
REMARK    3  A    between atoms: C_7  and  C_8
REMARK    4  A    between atoms: C_8  and  C_9
REMARK    5  A    between atoms: C_9  and  N_10
REMARK    6  A    between atoms: C_14  and  C_15
REMARK                            x       y       z     vdW  Elec       q    Type
REMARK                         _______ _______ _______ _____ _____    ______ ____
ROOT
ATOM      1  C   UNL     1      49.939   8.379  13.304  0.00  0.00    +0.000 C 
ENDROOT
BRANCH   1   6
ATOM      2  C   UNL     1      49.106   6.633  16.615  0.00  0.00    +0.000 A 
ATOM      3  C   UNL     1      48.611   7.732  17.346  0.00  0.00    +0.000 A 
ATOM      4  C   UNL     1      48.523   9.006  16.781  0.00  0.00    +0.000 A 
ATOM      5  C   UNL     1      48.927   9.217  15.466  0.00  0.00    +0.000 A 
ATOM      6  C   UNL     1      49.413   8.151  14.704  0.00  0.00    +0.000 A 
ATOM      7  C   UNL     1      49.499   6.873  15.286  0.00  0.00    +0.000 A 
BRANCH   2   9
ATOM      8  C   UNL     1      50.713   5.140  17.824  0.00  0.00    +0.000 C 
ATOM      9  C   UNL     1      49.268   5.273  17.315  0.00  0.00    +0.000 C 
ATOM     10  C   UNL     1      48.251   5.072  18.457  0.00  0.00    +0.000 C 
ATOM     11  C   UNL     1      47.123   4.224  17.873  0.00  0.00    +0.000 C 
ATOM     12  C   UNL     1      47.550   3.904  16.455  0.00  0.00    +0.000 C 
ATOM     13  N   UNL     1      48.993   4.091  16.478  0.00  0.00    +0.000 NA
ATOM     14  H   UNL     1      49.402   4.170  15.553  0.00  0.00    +0.000 HD
ENDBRANCH   2   9
ENDBRANCH   1   6
BRANCH   1  15
ATOM     15  C   UNL     1      49.324   7.366  12.335  0.00  0.00    +0.000 C 
BRANCH  15  16
ATOM     16  N   UNL     1      48.030   7.830  11.820  0.00  0.00    +0.000 N 
ATOM     17  C   UNL     1      46.989   6.920  12.096  0.00  0.00    +0.000 A 
ATOM     18  C   UNL     1      45.700   7.214  11.665  0.00  0.00    +0.000 A 
ATOM     19  C   UNL     1      44.661   6.318  11.942  0.00  0.00    +0.000 A 
ATOM     20  C   UNL     1      44.927   5.144  12.650  0.00  0.00    +0.000 A 
ATOM     21  C   UNL     1      46.232   4.941  13.053  0.00  0.00    +0.000 A 
ATOM     22  N   UNL     1      47.250   5.797  12.797  0.00  0.00    +0.000 NA
ATOM     23  H   UNL     1      48.051   8.000  10.818  0.00  0.00    +0.000 HD
BRANCH  20  24
ATOM     24  C   UNL     1      43.831   4.186  12.931  0.00  0.00    +0.000 C 
ATOM     25  N   UNL     1      44.038   2.854  12.705  0.00  0.00    +0.000 N 
ATOM     26  O   UNL     1      42.748   4.575  13.355  0.00  0.00    +0.000 OA
ATOM     27  H   UNL     1      44.883   2.431  12.355  0.00  0.00    +0.000 HD
ATOM     28  H   UNL     1      43.260   2.236  12.904  0.00  0.00    +0.000 HD
ENDBRANCH  20  24
ENDBRANCH  15  16
ENDBRANCH   1  15
TORSDOF 5
ENDMDL
