MODEL 1
REMARK VINA RESULT:    -8.768      0.000      0.000
REMARK INTER + INTRA:         -11.028
REMARK INTER:                 -12.100
REMARK INTRA:                   1.073
REMARK UNBOUND:                 1.073
REMARK  Name = 
REMARK  7 active torsions:
REMARK  status: ('A' for Active; 'I' for Inactive)
REMARK    1  A    between atoms: C_2  and  N_3
REMARK    2  A    between atoms: C_4  and  C_6
REMARK    3  A    between atoms: C_9  and  C_10
REMARK    4  A    between atoms: C_10  and  C_11
REMARK    5  A    between atoms: C_11  and  C_12
REMARK    6  A    between atoms: C_15  and  C_16
REMARK    7  A    between atoms: C_22  and  O_23
REMARK                            x       y       z     vdW  Elec       q    Type
REMARK                         _______ _______ _______ _____ _____    ______ ____
ROOT
ATOM      1  C   UNL     1      44.575   4.896  10.725  0.00  0.00    +0.000 C 
ATOM      2  C   UNL     1      43.146   5.397  10.878  0.00  0.00    +0.000 C 
ATOM      3  C   UNL     1      43.573   4.205  11.680  0.00  0.00    +0.000 C 
ENDROOT
BRANCH   1   4
ATOM      4  C   UNL     1      44.989   3.951   9.589  0.00  0.00    +0.000 A 
ATOM      5  C   UNL     1      45.605   4.491   8.442  0.00  0.00    +0.000 A 
ATOM      6  C   UNL     1      46.272   3.681   7.527  0.00  0.00    +0.000 A 
ATOM      7  C   UNL     1      46.329   2.305   7.746  0.00  0.00    +0.000 A 
ATOM      8  C   UNL     1      45.602   1.737   8.799  0.00  0.00    +0.000 A 
ATOM      9  C   UNL     1      44.925   2.555   9.706  0.00  0.00    +0.000 A 
BRANCH   7  10
ATOM     10  C   UNL     1      47.207   1.432   6.930  0.00  0.00    +0.000 C 
ATOM     11  N   UNL     1      48.258   2.040   6.298  0.00  0.00    +0.000 N 
ATOM     12  O   UNL     1      47.051   0.219   6.885  0.00  0.00    +0.000 OA
ATOM     13  H   UNL     1      48.564   2.973   6.538  0.00  0.00    +0.000 HD
ATOM     14  H   UNL     1      48.940   1.427   5.871  0.00  0.00    +0.000 HD
ENDBRANCH   7  10
ENDBRANCH   1   4
BRANCH   3  15
ATOM     15  O   UNL     1      42.954   2.967  11.266  0.00  0.00    +0.000 OA
ATOM     16  H   UNL     1      42.575   2.473  12.015  0.00  0.00    +0.000 HD
ENDBRANCH   3  15
BRANCH   1  17
ATOM     17  C   UNL     1      45.728   5.803  11.171  0.00  0.00    +0.000 C 
BRANCH  17  21
ATOM     18  C   UNL     1      47.496   5.171  15.082  0.00  0.00    +0.000 A 
ATOM     19  C   UNL     1      47.751   6.357  14.398  0.00  0.00    +0.000 A 
ATOM     20  C   UNL     1      47.199   6.571  13.136  0.00  0.00    +0.000 A 
ATOM     21  C   UNL     1      46.429   5.590  12.499  0.00  0.00    +0.000 A 
ATOM     22  C   UNL     1      46.167   4.407  13.212  0.00  0.00    +0.000 A 
ATOM     23  C   UNL     1      46.691   4.195  14.493  0.00  0.00    +0.000 A 
BRANCH  18  25
ATOM     24  N   UNL     1      49.368   4.765  16.497  0.00  0.00    +0.000 NA
ATOM     25  C   UNL     1      48.083   4.960  16.451  0.00  0.00    +0.000 C 
ATOM     26  N   UNL     1      47.214   4.958  17.517  0.00  0.00    +0.000 N 
ATOM     27  H   UNL     1      47.562   4.566  18.384  0.00  0.00    +0.000 HD
ATOM     28  H   UNL     1      46.262   4.684  17.324  0.00  0.00    +0.000 HD
BRANCH  24  30
ATOM     29  N   UNL     1      50.413   4.483  18.739  0.00  0.00    +0.000 NA
ATOM     30  C   UNL     1      49.950   4.600  17.683  0.00  0.00    +0.000 C 
ENDBRANCH  24  30
ENDBRANCH  18  25
ENDBRANCH  17  21
ENDBRANCH   1  17
TORSDOF 7
ENDMDL
MODEL 2
REMARK VINA RESULT:    -8.477      2.879      3.125
REMARK INTER + INTRA:         -10.626
REMARK INTER:                 -10.992
REMARK INTRA:                   0.366
REMARK UNBOUND:                 1.073
REMARK  Name = 
REMARK  7 active torsions:
REMARK  status: ('A' for Active; 'I' for Inactive)
REMARK    1  A    between atoms: C_2  and  N_3
REMARK    2  A    between atoms: C_4  and  C_6
REMARK    3  A    between atoms: C_9  and  C_10
REMARK    4  A    between atoms: C_10  and  C_11
REMARK    5  A    between atoms: C_11  and  C_12
REMARK    6  A    between atoms: C_15  and  C_16
REMARK    7  A    between atoms: C_22  and  O_23
REMARK                            x       y       z     vdW  Elec       q    Type
REMARK                         _______ _______ _______ _____ _____    ______ ____
ROOT
ATOM      1  C   UNL     1      44.383   4.653  10.973  0.00  0.00    +0.000 C 
ATOM      2  C   UNL     1      43.310   4.082  11.890  0.00  0.00    +0.000 C 
ATOM      3  C   UNL     1      44.747   3.908  12.279  0.00  0.00    +0.000 C 
ENDROOT
BRANCH   1   4
ATOM      4  C   UNL     1      44.896   3.890   9.745  0.00  0.00    +0.000 A 
ATOM      5  C   UNL     1      45.624   4.589   8.761  0.00  0.00    +0.000 A 
ATOM      6  C   UNL     1      46.368   3.918   7.796  0.00  0.00    +0.000 A 
ATOM      7  C   UNL     1      46.391   2.523   7.797  0.00  0.00    +0.000 A 
ATOM      8  C   UNL     1      45.561   1.814   8.672  0.00  0.00    +0.000 A 
ATOM      9  C   UNL     1      44.808   2.495   9.631  0.00  0.00    +0.000 A 
BRANCH   7  10
ATOM     10  C   UNL     1      47.336   1.770   6.938  0.00  0.00    +0.000 C 
ATOM     11  N   UNL     1      48.437   2.450   6.492  0.00  0.00    +0.000 N 
ATOM     12  O   UNL     1      47.185   0.578   6.701  0.00  0.00    +0.000 OA
ATOM     13  H   UNL     1      48.721   3.335   6.892  0.00  0.00    +0.000 HD
ATOM     14  H   UNL     1      49.153   1.898   6.038  0.00  0.00    +0.000 HD
ENDBRANCH   7  10
ENDBRANCH   1   4
BRANCH   3  15
ATOM     15  O   UNL     1      45.217   2.544  12.196  0.00  0.00    +0.000 OA
ATOM     16  H   UNL     1      45.942   2.439  11.554  0.00  0.00    +0.000 HD
ENDBRANCH   3  15
BRANCH   1  17
ATOM     17  C   UNL     1      44.458   6.173  10.782  0.00  0.00    +0.000 C 
BRANCH  17  21
ATOM     18  C   UNL     1      47.398   8.362  13.103  0.00  0.00    +0.000 A 
ATOM     19  C   UNL     1      46.053   8.712  13.196  0.00  0.00    +0.000 A 
ATOM     20  C   UNL     1      45.097   8.025  12.449  0.00  0.00    +0.000 A 
ATOM     21  C   UNL     1      45.459   7.015  11.549  0.00  0.00    +0.000 A 
ATOM     22  C   UNL     1      46.820   6.663  11.483  0.00  0.00    +0.000 A 
ATOM     23  C   UNL     1      47.783   7.325  12.253  0.00  0.00    +0.000 A 
BRANCH  18  25
ATOM     24  N   UNL     1      49.629   9.115  13.457  0.00  0.00    +0.000 NA
ATOM     25  C   UNL     1      48.417   9.099  13.929  0.00  0.00    +0.000 C 
ATOM     26  N   UNL     1      47.989   9.653  15.112  0.00  0.00    +0.000 N 
ATOM     27  H   UNL     1      48.709   9.914  15.776  0.00  0.00    +0.000 HD
ATOM     28  H   UNL     1      47.196   9.215  15.556  0.00  0.00    +0.000 HD
BRANCH  24  30
ATOM     29  N   UNL     1      51.359  10.342  14.763  0.00  0.00    +0.000 NA
ATOM     30  C   UNL     1      50.571   9.773  14.130  0.00  0.00    +0.000 C 
ENDBRANCH  24  30
ENDBRANCH  18  25
ENDBRANCH  17  21
ENDBRANCH   1  17
TORSDOF 7
ENDMDL
MODEL 3
REMARK VINA RESULT:    -8.060      1.988      2.308
REMARK INTER + INTRA:         -10.050
REMARK INTER:                  -9.278
REMARK INTRA:                  -0.771
REMARK UNBOUND:                 1.073
REMARK  Name = 
REMARK  7 active torsions:
REMARK  status: ('A' for Active; 'I' for Inactive)
REMARK    1  A    between atoms: C_2  and  N_3
REMARK    2  A    between atoms: C_4  and  C_6
REMARK    3  A    between atoms: C_9  and  C_10
REMARK    4  A    between atoms: C_10  and  C_11
REMARK    5  A    between atoms: C_11  and  C_12
REMARK    6  A    between atoms: C_15  and  C_16
REMARK    7  A    between atoms: C_22  and  O_23
REMARK                            x       y       z     vdW  Elec       q    Type
REMARK                         _______ _______ _______ _____ _____    ______ ____
ROOT
ATOM      1  C   UNL     1      44.727   4.415  12.035  0.00  0.00    +0.000 C 
ATOM      2  C   UNL     1      44.143   5.781  12.364  0.00  0.00    +0.000 C 
ATOM      3  C   UNL     1      43.226   4.596  12.360  0.00  0.00    +0.000 C 
ENDROOT
BRANCH   1   4
ATOM      4  C   UNL     1      44.921   3.939  10.589  0.00  0.00    +0.000 A 
ATOM      5  C   UNL     1      45.368   4.860   9.620  0.00  0.00    +0.000 A 
ATOM      6  C   UNL     1      45.852   4.437   8.386  0.00  0.00    +0.000 A 
ATOM      7  C   UNL     1      45.890   3.074   8.096  0.00  0.00    +0.000 A 
ATOM      8  C   UNL     1      45.316   2.157   8.985  0.00  0.00    +0.000 A 
ATOM      9  C   UNL     1      44.822   2.590  10.217  0.00  0.00    +0.000 A 
BRANCH   7  10
ATOM     10  C   UNL     1      46.594   2.562   6.896  0.00  0.00    +0.000 C 
ATOM     11  N   UNL     1      47.324   1.415   7.056  0.00  0.00    +0.000 N 
ATOM     12  O   UNL     1      46.469   3.090   5.799  0.00  0.00    +0.000 OA
ATOM     13  H   UNL     1      47.221   0.820   7.867  0.00  0.00    +0.000 HD
ATOM     14  H   UNL     1      47.676   0.985   6.211  0.00  0.00    +0.000 HD
ENDBRANCH   7  10
ENDBRANCH   1   4
BRANCH   3  15
ATOM     15  O   UNL     1      42.271   4.595  11.275  0.00  0.00    +0.000 OA
ATOM     16  H   UNL     1      41.891   5.478  11.116  0.00  0.00    +0.000 HD
ENDBRANCH   3  15
BRANCH   1  17
ATOM     17  C   UNL     1      45.763   3.805  12.987  0.00  0.00    +0.000 C 
BRANCH  17  21
ATOM     18  C   UNL     1      48.509   6.352  15.178  0.00  0.00    +0.000 A 
ATOM     19  C   UNL     1      48.261   6.610  13.832  0.00  0.00    +0.000 A 
ATOM     20  C   UNL     1      47.389   5.795  13.111  0.00  0.00    +0.000 A 
ATOM     21  C   UNL     1      46.789   4.671  13.693  0.00  0.00    +0.000 A 
ATOM     22  C   UNL     1      47.038   4.437  15.058  0.00  0.00    +0.000 A 
ATOM     23  C   UNL     1      47.886   5.268  15.798  0.00  0.00    +0.000 A 
BRANCH  18  25
ATOM     24  N   UNL     1      48.879   8.014  16.842  0.00  0.00    +0.000 NA
ATOM     25  C   UNL     1      49.437   7.251  15.948  0.00  0.00    +0.000 C 
ATOM     26  N   UNL     1      50.771   7.212  15.620  0.00  0.00    +0.000 N 
ATOM     27  H   UNL     1      51.340   7.984  15.947  0.00  0.00    +0.000 HD
ATOM     28  H   UNL     1      50.997   6.939  14.675  0.00  0.00    +0.000 HD
BRANCH  24  30
ATOM     29  N   UNL     1      50.280   9.545  18.218  0.00  0.00    +0.000 NA
ATOM     30  C   UNL     1      49.651   8.813  17.576  0.00  0.00    +0.000 C 
ENDBRANCH  24  30
ENDBRANCH  18  25
ENDBRANCH  17  21
ENDBRANCH   1  17
TORSDOF 7
ENDMDL
MODEL 4
REMARK VINA RESULT:    -7.988      2.635      3.251
REMARK INTER + INTRA:          -9.950
REMARK INTER:                  -9.086
REMARK INTRA:                  -0.864
REMARK UNBOUND:                 1.073
REMARK  Name = 
REMARK  7 active torsions:
REMARK  status: ('A' for Active; 'I' for Inactive)
REMARK    1  A    between atoms: C_2  and  N_3
REMARK    2  A    between atoms: C_4  and  C_6
REMARK    3  A    between atoms: C_9  and  C_10
REMARK    4  A    between atoms: C_10  and  C_11
REMARK    5  A    between atoms: C_11  and  C_12
REMARK    6  A    between atoms: C_15  and  C_16
REMARK    7  A    between atoms: C_22  and  O_23
REMARK                            x       y       z     vdW  Elec       q    Type
REMARK                         _______ _______ _______ _____ _____    ______ ____
ROOT
ATOM      1  C   UNL     1      44.699   4.876  11.631  0.00  0.00    +0.000 C 
ATOM      2  C   UNL     1      43.850   6.135  11.730  0.00  0.00    +0.000 C 
ATOM      3  C   UNL     1      43.203   4.815  12.018  0.00  0.00    +0.000 C 
ENDROOT
BRANCH   1   4
ATOM      4  C   UNL     1      44.949   4.165  10.294  0.00  0.00    +0.000 A 
ATOM      5  C   UNL     1      45.379   4.923   9.187  0.00  0.00    +0.000 A 
ATOM      6  C   UNL     1      45.911   4.315   8.053  0.00  0.00    +0.000 A 
ATOM      7  C   UNL     1      46.015   2.925   8.008  0.00  0.00    +0.000 A 
ATOM      8  C   UNL     1      45.460   2.152   9.034  0.00  0.00    +0.000 A 
ATOM      9  C   UNL     1      44.918   2.769  10.163  0.00  0.00    +0.000 A 
BRANCH   7  10
ATOM     10  C   UNL     1      46.770   2.246   6.928  0.00  0.00    +0.000 C 
ATOM     11  N   UNL     1      47.110   3.009   5.843  0.00  0.00    +0.000 N 
ATOM     12  O   UNL     1      47.142   1.085   7.031  0.00  0.00    +0.000 OA
ATOM     13  H   UNL     1      47.057   4.019   5.858  0.00  0.00    +0.000 HD
ATOM     14  H   UNL     1      47.753   2.591   5.183  0.00  0.00    +0.000 HD
ENDBRANCH   7  10
ENDBRANCH   1   4
BRANCH   3  15
ATOM     15  O   UNL     1      42.240   4.403  11.022  0.00  0.00    +0.000 OA
ATOM     16  H   UNL     1      41.449   3.996  11.418  0.00  0.00    +0.000 HD
ENDBRANCH   3  15
BRANCH   1  17
ATOM     17  C   UNL     1      45.866   4.693  12.609  0.00  0.00    +0.000 C 
BRANCH  17  21
ATOM     18  C   UNL     1      48.827   7.808  13.201  0.00  0.00    +0.000 A 
ATOM     19  C   UNL     1      48.188   7.695  11.969  0.00  0.00    +0.000 A 
ATOM     20  C   UNL     1      47.242   6.693  11.759  0.00  0.00    +0.000 A 
ATOM     21  C   UNL     1      46.950   5.744  12.747  0.00  0.00    +0.000 A 
ATOM     22  C   UNL     1      47.591   5.886  13.992  0.00  0.00    +0.000 A 
ATOM     23  C   UNL     1      48.519   6.909  14.222  0.00  0.00    +0.000 A 
BRANCH  18  25
ATOM     24  N   UNL     1      49.927   9.357  14.637  0.00  0.00    +0.000 NA
ATOM     25  C   UNL     1      49.832   8.906  13.420  0.00  0.00    +0.000 C 
ATOM     26  N   UNL     1      50.527   9.354  12.322  0.00  0.00    +0.000 N 
ATOM     27  H   UNL     1      50.999  10.246  12.418  0.00  0.00    +0.000 HD
ATOM     28  H   UNL     1      50.073   9.252  11.427  0.00  0.00    +0.000 HD
BRANCH  24  30
ATOM     29  N   UNL     1      51.633  11.110  15.102  0.00  0.00    +0.000 NA
ATOM     30  C   UNL     1      50.818  10.311  14.900  0.00  0.00    +0.000 C 
ENDBRANCH  24  30
ENDBRANCH  18  25
ENDBRANCH  17  21
ENDBRANCH   1  17
TORSDOF 7
ENDMDL
MODEL 5
REMARK VINA RESULT:    -7.528      1.778      2.395
REMARK INTER + INTRA:          -9.316
REMARK INTER:                  -8.893
REMARK INTRA:                  -0.423
REMARK UNBOUND:                 1.073
REMARK  Name = 
REMARK  7 active torsions:
REMARK  status: ('A' for Active; 'I' for Inactive)
REMARK    1  A    between atoms: C_2  and  N_3
REMARK    2  A    between atoms: C_4  and  C_6
REMARK    3  A    between atoms: C_9  and  C_10
REMARK    4  A    between atoms: C_10  and  C_11
REMARK    5  A    between atoms: C_11  and  C_12
REMARK    6  A    between atoms: C_15  and  C_16
REMARK    7  A    between atoms: C_22  and  O_23
REMARK                            x       y       z     vdW  Elec       q    Type
REMARK                         _______ _______ _______ _____ _____    ______ ____
ROOT
ATOM      1  C   UNL     1      46.092   6.649  11.778  0.00  0.00    +0.000 C 
ATOM      2  C   UNL     1      45.636   8.075  11.507  0.00  0.00    +0.000 C 
ATOM      3  C   UNL     1      44.926   7.289  12.568  0.00  0.00    +0.000 C 
ENDROOT
BRANCH   1   4
ATOM      4  C   UNL     1      45.599   5.463  10.939  0.00  0.00    +0.000 A 
ATOM      5  C   UNL     1      45.793   5.486   9.543  0.00  0.00    +0.000 A 
ATOM      6  C   UNL     1      45.654   4.336   8.772  0.00  0.00    +0.000 A 
ATOM      7  C   UNL     1      45.309   3.135   9.391  0.00  0.00    +0.000 A 
ATOM      8  C   UNL     1      44.971   3.123  10.749  0.00  0.00    +0.000 A 
ATOM      9  C   UNL     1      45.101   4.284  11.514  0.00  0.00    +0.000 A 
BRANCH   7  10
ATOM     10  C   UNL     1      45.365   1.848   8.656  0.00  0.00    +0.000 C 
ATOM     11  N   UNL     1      46.491   1.614   7.914  0.00  0.00    +0.000 N 
ATOM     12  O   UNL     1      44.488   1.001   8.768  0.00  0.00    +0.000 OA
ATOM     13  H   UNL     1      47.332   2.164   8.024  0.00  0.00    +0.000 HD
ATOM     14  H   UNL     1      46.597   0.679   7.541  0.00  0.00    +0.000 HD
ENDBRANCH   7  10
ENDBRANCH   1   4
BRANCH   3  15
ATOM     15  O   UNL     1      43.569   6.930  12.224  0.00  0.00    +0.000 OA
ATOM     16  H   UNL     1      43.298   6.083  12.620  0.00  0.00    +0.000 HD
ENDBRANCH   3  15
BRANCH   1  17
ATOM     17  C   UNL     1      47.503   6.417  12.332  0.00  0.00    +0.000 C 
BRANCH  17  21
ATOM     18  C   UNL     1      47.865   4.924  16.390  0.00  0.00    +0.000 A 
ATOM     19  C   UNL     1      48.517   6.102  16.032  0.00  0.00    +0.000 A 
ATOM     20  C   UNL     1      48.419   6.589  14.729  0.00  0.00    +0.000 A 
ATOM     21  C   UNL     1      47.721   5.890  13.737  0.00  0.00    +0.000 A 
ATOM     22  C   UNL     1      47.053   4.713  14.122  0.00  0.00    +0.000 A 
ATOM     23  C   UNL     1      47.119   4.232  15.435  0.00  0.00    +0.000 A 
BRANCH  18  25
ATOM     24  N   UNL     1      48.631   5.169  18.631  0.00  0.00    +0.000 NA
ATOM     25  C   UNL     1      47.963   4.419  17.803  0.00  0.00    +0.000 C 
ATOM     26  N   UNL     1      47.374   3.209  18.084  0.00  0.00    +0.000 N 
ATOM     27  H   UNL     1      47.658   2.757  18.946  0.00  0.00    +0.000 HD
ATOM     28  H   UNL     1      47.289   2.559  17.317  0.00  0.00    +0.000 HD
BRANCH  24  30
ATOM     29  N   UNL     1      48.864   4.430  20.997  0.00  0.00    +0.000 NA
ATOM     30  C   UNL     1      48.730   4.789  19.903  0.00  0.00    +0.000 C 
ENDBRANCH  24  30
ENDBRANCH  18  25
ENDBRANCH  17  21
ENDBRANCH   1  17
TORSDOF 7
ENDMDL
MODEL 6
REMARK VINA RESULT:    -7.293      4.957      8.910
REMARK INTER + INTRA:          -8.992
REMARK INTER:                  -8.658
REMARK INTRA:                  -0.334
REMARK UNBOUND:                 1.073
REMARK  Name = 
REMARK  7 active torsions:
REMARK  status: ('A' for Active; 'I' for Inactive)
REMARK    1  A    between atoms: C_2  and  N_3
REMARK    2  A    between atoms: C_4  and  C_6
REMARK    3  A    between atoms: C_9  and  C_10
REMARK    4  A    between atoms: C_10  and  C_11
REMARK    5  A    between atoms: C_11  and  C_12
REMARK    6  A    between atoms: C_15  and  C_16
REMARK    7  A    between atoms: C_22  and  O_23
REMARK                            x       y       z     vdW  Elec       q    Type
REMARK                         _______ _______ _______ _____ _____    ______ ____
ROOT
ATOM      1  C   UNL     1      49.696   4.840  18.118  0.00  0.00    +0.000 C 
ATOM      2  C   UNL     1      48.582   4.609  19.129  0.00  0.00    +0.000 C 
ATOM      3  C   UNL     1      49.868   5.211  19.609  0.00  0.00    +0.000 C 
ENDROOT
BRANCH   1   4
ATOM      4  C   UNL     1      50.672   3.728  17.714  0.00  0.00    +0.000 A 
ATOM      5  C   UNL     1      52.058   3.970  17.798  0.00  0.00    +0.000 A 
ATOM      6  C   UNL     1      52.981   2.930  17.745  0.00  0.00    +0.000 A 
ATOM      7  C   UNL     1      52.528   1.619  17.599  0.00  0.00    +0.000 A 
ATOM      8  C   UNL     1      51.170   1.374  17.368  0.00  0.00    +0.000 A 
ATOM      9  C   UNL     1      50.250   2.425  17.411  0.00  0.00    +0.000 A 
BRANCH   7  10
ATOM     10  C   UNL     1      53.446   0.466  17.759  0.00  0.00    +0.000 C 
ATOM     11  N   UNL     1      52.973  -0.600  18.477  0.00  0.00    +0.000 N 
ATOM     12  O   UNL     1      54.541   0.432  17.214  0.00  0.00    +0.000 OA
ATOM     13  H   UNL     1      51.993  -0.706  18.698  0.00  0.00    +0.000 HD
ATOM     14  H   UNL     1      53.536  -1.440  18.456  0.00  0.00    +0.000 HD
ENDBRANCH   7  10
ENDBRANCH   1   4
BRANCH   3  15
ATOM     15  O   UNL     1      50.643   4.338  20.461  0.00  0.00    +0.000 OA
ATOM     16  H   UNL     1      50.432   3.398  20.319  0.00  0.00    +0.000 HD
ENDBRANCH   3  15
BRANCH   1  17
ATOM     17  C   UNL     1      49.467   5.848  16.984  0.00  0.00    +0.000 C 
BRANCH  17  21
ATOM     18  C   UNL     1      46.605   4.921  13.859  0.00  0.00    +0.000 A 
ATOM     19  C   UNL     1      47.361   6.088  13.772  0.00  0.00    +0.000 A 
ATOM     20  C   UNL     1      48.278   6.405  14.773  0.00  0.00    +0.000 A 
ATOM     21  C   UNL     1      48.424   5.603  15.912  0.00  0.00    +0.000 A 
ATOM     22  C   UNL     1      47.665   4.420  15.973  0.00  0.00    +0.000 A 
ATOM     23  C   UNL     1      46.765   4.076  14.957  0.00  0.00    +0.000 A 
BRANCH  18  25
ATOM     24  N   UNL     1      44.772   3.645  13.033  0.00  0.00    +0.000 NA
ATOM     25  C   UNL     1      45.633   4.581  12.762  0.00  0.00    +0.000 C 
ATOM     26  N   UNL     1      45.763   5.257  11.571  0.00  0.00    +0.000 N 
ATOM     27  H   UNL     1      45.293   4.854  10.769  0.00  0.00    +0.000 HD
ATOM     28  H   UNL     1      46.684   5.603  11.345  0.00  0.00    +0.000 HD
BRANCH  24  30
ATOM     29  N   UNL     1      43.068   3.087  11.306  0.00  0.00    +0.000 NA
ATOM     30  C   UNL     1      43.868   3.317  12.112  0.00  0.00    +0.000 C 
ENDBRANCH  24  30
ENDBRANCH  18  25
ENDBRANCH  17  21
ENDBRANCH   1  17
TORSDOF 7
ENDMDL
MODEL 7
REMARK VINA RESULT:    -7.190      4.312      8.507
REMARK INTER + INTRA:          -8.849
REMARK INTER:                  -7.533
REMARK INTRA:                  -1.316
REMARK UNBOUND:                 1.073
REMARK  Name = 
REMARK  7 active torsions:
REMARK  status: ('A' for Active; 'I' for Inactive)
REMARK    1  A    between atoms: C_2  and  N_3
REMARK    2  A    between atoms: C_4  and  C_6
REMARK    3  A    between atoms: C_9  and  C_10
REMARK    4  A    between atoms: C_10  and  C_11
REMARK    5  A    between atoms: C_11  and  C_12
REMARK    6  A    between atoms: C_15  and  C_16
REMARK    7  A    between atoms: C_22  and  O_23
REMARK                            x       y       z     vdW  Elec       q    Type
REMARK                         _______ _______ _______ _____ _____    ______ ____
ROOT
ATOM      1  C   UNL     1      48.991   8.691  16.410  0.00  0.00    +0.000 C 
ATOM      2  C   UNL     1      47.924   9.491  17.144  0.00  0.00    +0.000 C 
ATOM      3  C   UNL     1      49.361   9.872  17.337  0.00  0.00    +0.000 C 
ENDROOT
BRANCH   1   4
ATOM      4  C   UNL     1      49.540   7.369  16.962  0.00  0.00    +0.000 A 
ATOM      5  C   UNL     1      48.647   6.449  17.547  0.00  0.00    +0.000 A 
ATOM      6  C   UNL     1      49.018   5.128  17.783  0.00  0.00    +0.000 A 
ATOM      7  C   UNL     1      50.302   4.706  17.440  0.00  0.00    +0.000 A 
ATOM      8  C   UNL     1      51.246   5.638  16.995  0.00  0.00    +0.000 A 
ATOM      9  C   UNL     1      50.870   6.964  16.771  0.00  0.00    +0.000 A 
BRANCH   7  10
ATOM     10  C   UNL     1      50.671   3.270  17.465  0.00  0.00    +0.000 C 
ATOM     11  N   UNL     1      51.632   2.899  18.366  0.00  0.00    +0.000 N 
ATOM     12  O   UNL     1      50.092   2.442  16.773  0.00  0.00    +0.000 OA
ATOM     13  H   UNL     1      51.921   3.503  19.124  0.00  0.00    +0.000 HD
ATOM     14  H   UNL     1      51.772   1.905  18.489  0.00  0.00    +0.000 HD
ENDBRANCH   7  10
ENDBRANCH   1   4
BRANCH   3  15
ATOM     15  O   UNL     1      49.870   9.589  18.660  0.00  0.00    +0.000 OA
ATOM     16  H   UNL     1      49.317   8.948  19.141  0.00  0.00    +0.000 HD
ENDBRANCH   3  15
BRANCH   1  17
ATOM     17  C   UNL     1      49.025   8.736  14.877  0.00  0.00    +0.000 C 
BRANCH  17  21
ATOM     18  C   UNL     1      46.118   6.386  12.675  0.00  0.00    +0.000 A 
ATOM     19  C   UNL     1      47.294   5.783  13.116  0.00  0.00    +0.000 A 
ATOM     20  C   UNL     1      48.242   6.527  13.817  0.00  0.00    +0.000 A 
ATOM     21  C   UNL     1      48.074   7.899  14.044  0.00  0.00    +0.000 A 
ATOM     22  C   UNL     1      46.872   8.486  13.607  0.00  0.00    +0.000 A 
ATOM     23  C   UNL     1      45.899   7.740  12.932  0.00  0.00    +0.000 A 
BRANCH  18  25
ATOM     24  N   UNL     1      44.821   4.402  12.449  0.00  0.00    +0.000 NA
ATOM     25  C   UNL     1      45.093   5.567  11.938  0.00  0.00    +0.000 C 
ATOM     26  N   UNL     1      44.569   6.101  10.785  0.00  0.00    +0.000 N 
ATOM     27  H   UNL     1      44.089   5.458  10.166  0.00  0.00    +0.000 HD
ATOM     28  H   UNL     1      45.150   6.758  10.285  0.00  0.00    +0.000 HD
BRANCH  24  30
ATOM     29  N   UNL     1      43.139   2.972  11.298  0.00  0.00    +0.000 NA
ATOM     30  C   UNL     1      43.902   3.641  11.857  0.00  0.00    +0.000 C 
ENDBRANCH  24  30
ENDBRANCH  18  25
ENDBRANCH  17  21
ENDBRANCH   1  17
TORSDOF 7
ENDMDL
MODEL 8
REMARK VINA RESULT:    -6.944      4.378      8.515
REMARK INTER + INTRA:          -8.509
REMARK INTER:                  -7.515
REMARK INTRA:                  -0.995
REMARK UNBOUND:                 1.073
REMARK  Name = 
REMARK  7 active torsions:
REMARK  status: ('A' for Active; 'I' for Inactive)
REMARK    1  A    between atoms: C_2  and  N_3
REMARK    2  A    between atoms: C_4  and  C_6
REMARK    3  A    between atoms: C_9  and  C_10
REMARK    4  A    between atoms: C_10  and  C_11
REMARK    5  A    between atoms: C_11  and  C_12
REMARK    6  A    between atoms: C_15  and  C_16
REMARK    7  A    between atoms: C_22  and  O_23
REMARK                            x       y       z     vdW  Elec       q    Type
REMARK                         _______ _______ _______ _____ _____    ______ ____
ROOT
ATOM      1  C   UNL     1      49.647   9.055  13.972  0.00  0.00    +0.000 C 
ATOM      2  C   UNL     1      50.827  10.011  13.869  0.00  0.00    +0.000 C 
ATOM      3  C   UNL     1      50.936   8.670  13.208  0.00  0.00    +0.000 C 
ENDROOT
BRANCH   1   4
ATOM      4  C   UNL     1      49.441   8.145  15.190  0.00  0.00    +0.000 A 
ATOM      5  C   UNL     1      49.502   8.707  16.482  0.00  0.00    +0.000 A 
ATOM      6  C   UNL     1      49.029   8.020  17.596  0.00  0.00    +0.000 A 
ATOM      7  C   UNL     1      48.488   6.745  17.434  0.00  0.00    +0.000 A 
ATOM      8  C   UNL     1      48.553   6.115  16.186  0.00  0.00    +0.000 A 
ATOM      9  C   UNL     1      49.039   6.806  15.075  0.00  0.00    +0.000 A 
BRANCH   7  10
ATOM     10  C   UNL     1      47.774   6.067  18.543  0.00  0.00    +0.000 C 
ATOM     11  N   UNL     1      46.839   5.132  18.189  0.00  0.00    +0.000 N 
ATOM     12  O   UNL     1      48.059   6.271  19.715  0.00  0.00    +0.000 OA
ATOM     13  H   UNL     1      46.783   4.754  17.253  0.00  0.00    +0.000 HD
ATOM     14  H   UNL     1      46.466   4.564  18.938  0.00  0.00    +0.000 HD
ENDBRANCH   7  10
ENDBRANCH   1   4
BRANCH   3  15
ATOM     15  O   UNL     1      51.882   7.779  13.839  0.00  0.00    +0.000 OA
ATOM     16  H   UNL     1      52.157   8.093  14.719  0.00  0.00    +0.000 HD
ENDBRANCH   3  15
BRANCH   1  17
ATOM     17  C   UNL     1      48.319   9.446  13.311  0.00  0.00    +0.000 C 
BRANCH  17  21
ATOM     18  C   UNL     1      45.611   6.350  11.932  0.00  0.00    +0.000 A 
ATOM     19  C   UNL     1      46.912   6.394  11.436  0.00  0.00    +0.000 A 
ATOM     20  C   UNL     1      47.791   7.388  11.861  0.00  0.00    +0.000 A 
ATOM     21  C   UNL     1      47.384   8.396  12.744  0.00  0.00    +0.000 A 
ATOM     22  C   UNL     1      46.072   8.325  13.248  0.00  0.00    +0.000 A 
ATOM     23  C   UNL     1      45.192   7.312  12.852  0.00  0.00    +0.000 A 
BRANCH  18  25
ATOM     24  N   UNL     1      44.598   4.220  12.257  0.00  0.00    +0.000 NA
ATOM     25  C   UNL     1      44.679   5.260  11.479  0.00  0.00    +0.000 C 
ATOM     26  N   UNL     1      44.029   5.441  10.281  0.00  0.00    +0.000 N 
ATOM     27  H   UNL     1      43.616   4.617   9.861  0.00  0.00    +0.000 HD
ATOM     28  H   UNL     1      44.487   6.032   9.603  0.00  0.00    +0.000 HD
BRANCH  24  30
ATOM     29  N   UNL     1      43.070   2.373  11.582  0.00  0.00    +0.000 NA
ATOM     30  C   UNL     1      43.768   3.233  11.924  0.00  0.00    +0.000 C 
ENDBRANCH  24  30
ENDBRANCH  18  25
ENDBRANCH  17  21
ENDBRANCH   1  17
TORSDOF 7
ENDMDL
MODEL 9
REMARK VINA RESULT:    -6.908      2.847      4.595
REMARK INTER + INTRA:          -8.461
REMARK INTER:                  -7.698
REMARK INTRA:                  -0.762
REMARK UNBOUND:                 1.073
REMARK  Name = 
REMARK  7 active torsions:
REMARK  status: ('A' for Active; 'I' for Inactive)
REMARK    1  A    between atoms: C_2  and  N_3
REMARK    2  A    between atoms: C_4  and  C_6
REMARK    3  A    between atoms: C_9  and  C_10
REMARK    4  A    between atoms: C_10  and  C_11
REMARK    5  A    between atoms: C_11  and  C_12
REMARK    6  A    between atoms: C_15  and  C_16
REMARK    7  A    between atoms: C_22  and  O_23
REMARK                            x       y       z     vdW  Elec       q    Type
REMARK                         _______ _______ _______ _____ _____    ______ ____
ROOT
ATOM      1  C   UNL     1      47.297   7.348  12.727  0.00  0.00    +0.000 C 
ATOM      2  C   UNL     1      47.463   8.700  12.050  0.00  0.00    +0.000 C 
ATOM      3  C   UNL     1      46.721   8.641  13.350  0.00  0.00    +0.000 C 
ENDROOT
BRANCH   1   4
ATOM      4  C   UNL     1      46.173   6.377  12.343  0.00  0.00    +0.000 A 
ATOM      5  C   UNL     1      45.817   6.247  10.985  0.00  0.00    +0.000 A 
ATOM      6  C   UNL     1      45.038   5.184  10.538  0.00  0.00    +0.000 A 
ATOM      7  C   UNL     1      44.595   4.228  11.451  0.00  0.00    +0.000 A 
ATOM      8  C   UNL     1      44.816   4.419  12.820  0.00  0.00    +0.000 A 
ATOM      9  C   UNL     1      45.589   5.494  13.263  0.00  0.00    +0.000 A 
BRANCH   7  10
ATOM     10  C   UNL     1      43.956   2.970  10.997  0.00  0.00    +0.000 C 
ATOM     11  N   UNL     1      44.587   2.290   9.990  0.00  0.00    +0.000 N 
ATOM     12  O   UNL     1      42.960   2.516  11.545  0.00  0.00    +0.000 OA
ATOM     13  H   UNL     1      45.538   2.495   9.717  0.00  0.00    +0.000 HD
ATOM     14  H   UNL     1      44.239   1.362   9.788  0.00  0.00    +0.000 HD
ENDBRANCH   7  10
ENDBRANCH   1   4
BRANCH   3  15
ATOM     15  O   UNL     1      45.304   8.902  13.231  0.00  0.00    +0.000 OA
ATOM     16  H   UNL     1      45.078   9.340  12.391  0.00  0.00    +0.000 HD
ENDBRANCH   3  15
BRANCH   1  17
ATOM     17  C   UNL     1      48.548   6.615  13.229  0.00  0.00    +0.000 C 
BRANCH  17  21
ATOM     18  C   UNL     1      50.046   6.791  17.297  0.00  0.00    +0.000 A 
ATOM     19  C   UNL     1      48.884   6.073  17.025  0.00  0.00    +0.000 A 
ATOM     20  C   UNL     1      48.384   6.015  15.725  0.00  0.00    +0.000 A 
ATOM     21  C   UNL     1      48.992   6.716  14.676  0.00  0.00    +0.000 A 
ATOM     22  C   UNL     1      50.175   7.419  14.966  0.00  0.00    +0.000 A 
ATOM     23  C   UNL     1      50.703   7.457  16.261  0.00  0.00    +0.000 A 
BRANCH  18  25
ATOM     24  N   UNL     1      51.796   7.289  18.833  0.00  0.00    +0.000 NA
ATOM     25  C   UNL     1      50.586   6.829  18.700  0.00  0.00    +0.000 C 
ATOM     26  N   UNL     1      49.777   6.347  19.702  0.00  0.00    +0.000 N 
ATOM     27  H   UNL     1      50.226   6.135  20.585  0.00  0.00    +0.000 HD
ATOM     28  H   UNL     1      49.096   5.650  19.437  0.00  0.00    +0.000 HD
BRANCH  24  30
ATOM     29  N   UNL     1      52.725   7.430  21.139  0.00  0.00    +0.000 NA
ATOM     30  C   UNL     1      52.320   7.372  20.055  0.00  0.00    +0.000 C 
ENDBRANCH  24  30
ENDBRANCH  18  25
ENDBRANCH  17  21
ENDBRANCH   1  17
TORSDOF 7
ENDMDL
