MODEL 1
REMARK VINA RESULT:    -8.026      0.000      0.000
REMARK INTER + INTRA:         -11.815
REMARK INTER:                 -10.841
REMARK INTRA:                  -0.974
REMARK UNBOUND:                -0.974
REMARK  Name = 
REMARK  7 active torsions:
REMARK  status: ('A' for Active; 'I' for Inactive)
REMARK    1  A    between atoms: C_1  and  N_2
REMARK    2  A    between atoms: N_2  and  C_3
REMARK    3  A    between atoms: C_3  and  C_4
REMARK    4  A    between atoms: C_7  and  C_8
REMARK    5  A    between atoms: C_8  and  N_9
REMARK    6  A    between atoms: C_10  and  C_12
REMARK    7  A    between atoms: C_24  and  C_26
REMARK                            x       y       z     vdW  Elec       q    Type
REMARK                         _______ _______ _______ _____ _____    ______ ____
ROOT
ATOM      1  C   UNL     1      46.254   4.503  13.272  0.00  0.00    +0.000 A 
ATOM      2  C   UNL     1      46.739   5.746  12.839  0.00  0.00    +0.000 A 
ATOM      3  C   UNL     1      47.598   6.495  13.646  0.00  0.00    +0.000 A 
ATOM      4  C   UNL     1      47.997   6.009  14.898  0.00  0.00    +0.000 A 
ATOM      5  C   UNL     1      47.506   4.771  15.333  0.00  0.00    +0.000 A 
ATOM      6  C   UNL     1      46.652   4.019  14.524  0.00  0.00    +0.000 A 
ENDROOT
BRANCH   1   7
ATOM      7  C   UNL     1      45.291   3.718  12.419  0.00  0.00    +0.000 C 
BRANCH   7   9
ATOM      8  C   UNL     1      43.098   4.762  13.165  0.00  0.00    +0.000 C 
ATOM      9  N   UNL     1      43.991   4.315  12.101  0.00  0.00    +0.000 N 
ATOM     10  C   UNL     1      43.657   4.750  10.809  0.00  0.00    +0.000 C 
ATOM     11  O   UNL     1      42.689   5.492  10.627  0.00  0.00    +0.000 OA
BRANCH  10  12
ATOM     12  C   UNL     1      44.471   4.382   9.682  0.00  0.00    +0.000 A 
ATOM     13  C   UNL     1      44.558   3.301   8.830  0.00  0.00    +0.000 A 
ATOM     14  N   UNL     1      45.552   3.501   7.916  0.00  0.00    +0.000 NA
ATOM     15  N   UNL     1      46.067   4.702   8.132  0.00  0.00    +0.000 NA
ATOM     16  N   UNL     1      45.393   5.247   9.153  0.00  0.00    +0.000 N 
ATOM     17  H   UNL     1      45.610   6.193   9.451  0.00  0.00    +0.000 HD
ENDBRANCH  10  12
ENDBRANCH   7   9
ENDBRANCH   1   7
BRANCH   4  18
ATOM     18  C   UNL     1      48.869   6.838  15.804  0.00  0.00    +0.000 C 
BRANCH  18  19
ATOM     19  N   UNL     1      49.967   6.046  16.296  0.00  0.00    +0.000 N 
ATOM     20  C   UNL     1      49.964   5.505  17.555  0.00  0.00    +0.000 C 
ATOM     21  O   UNL     1      49.007   5.624  18.313  0.00  0.00    +0.000 OA
ATOM     22  H   UNL     1      50.844   6.127  15.793  0.00  0.00    +0.000 HD
BRANCH  20  23
ATOM     23  C   UNL     1      51.147   4.717  17.921  0.00  0.00    +0.000 A 
ATOM     24  C   UNL     1      52.237   5.341  18.512  0.00  0.00    +0.000 A 
ATOM     25  S   UNL     1      53.486   4.265  18.950  0.00  0.00    +0.000 S 
ATOM     26  C   UNL     1      52.639   2.934  18.316  0.00  0.00    +0.000 A 
ATOM     27  N   UNL     1      53.166   1.680  18.361  0.00  0.00    +0.000 NA
ATOM     28  C   UNL     1      52.432   0.771  17.813  0.00  0.00    +0.000 A 
ATOM     29  N   UNL     1      51.216   1.001  17.225  0.00  0.00    +0.000 N 
ATOM     30  C   UNL     1      50.633   2.246  17.176  0.00  0.00    +0.000 A 
ATOM     31  O   UNL     1      49.530   2.409  16.665  0.00  0.00    +0.000 OA
ATOM     32  C   UNL     1      51.418   3.305  17.781  0.00  0.00    +0.000 A 
ATOM     33  H   UNL     1      50.690   0.245  16.811  0.00  0.00    +0.000 HD
ENDBRANCH  20  23
ENDBRANCH  18  19
ENDBRANCH   4  18
TORSDOF 6
ENDMDL
MODEL 2
REMARK VINA RESULT:    -7.839      3.212      8.486
REMARK INTER + INTRA:         -11.563
REMARK INTER:                 -10.592
REMARK INTRA:                  -0.971
REMARK UNBOUND:                -0.974
REMARK  Name = 
REMARK  7 active torsions:
REMARK  status: ('A' for Active; 'I' for Inactive)
REMARK    1  A    between atoms: C_1  and  N_2
REMARK    2  A    between atoms: N_2  and  C_3
REMARK    3  A    between atoms: C_3  and  C_4
REMARK    4  A    between atoms: C_7  and  C_8
REMARK    5  A    between atoms: C_8  and  N_9
REMARK    6  A    between atoms: C_10  and  C_12
REMARK    7  A    between atoms: C_24  and  C_26
REMARK                            x       y       z     vdW  Elec       q    Type
REMARK                         _______ _______ _______ _____ _____    ______ ____
ROOT
ATOM      1  C   UNL     1      49.967   6.643  15.934  0.00  0.00    +0.000 A 
ATOM      2  C   UNL     1      50.699   7.492  15.090  0.00  0.00    +0.000 A 
ATOM      3  C   UNL     1      50.152   7.945  13.888  0.00  0.00    +0.000 A 
ATOM      4  C   UNL     1      48.857   7.566  13.513  0.00  0.00    +0.000 A 
ATOM      5  C   UNL     1      48.129   6.713  14.353  0.00  0.00    +0.000 A 
ATOM      6  C   UNL     1      48.674   6.264  15.557  0.00  0.00    +0.000 A 
ENDROOT
BRANCH   1   7
ATOM      7  C   UNL     1      50.579   6.118  17.208  0.00  0.00    +0.000 C 
BRANCH   7   9
ATOM      8  C   UNL     1      49.155   6.839  19.184  0.00  0.00    +0.000 C 
ATOM      9  N   UNL     1      49.691   5.788  18.326  0.00  0.00    +0.000 N 
ATOM     10  C   UNL     1      49.087   4.528  18.462  0.00  0.00    +0.000 C 
ATOM     11  O   UNL     1      48.142   4.366  19.237  0.00  0.00    +0.000 OA
BRANCH  10  12
ATOM     12  C   UNL     1      49.524   3.418  17.659  0.00  0.00    +0.000 A 
ATOM     13  C   UNL     1      50.683   2.683  17.528  0.00  0.00    +0.000 A 
ATOM     14  N   UNL     1      50.523   1.717  16.576  0.00  0.00    +0.000 NA
ATOM     15  N   UNL     1      49.277   1.787  16.133  0.00  0.00    +0.000 NA
ATOM     16  N   UNL     1      48.666   2.768  16.811  0.00  0.00    +0.000 N 
ATOM     17  H   UNL     1      47.683   2.956  16.646  0.00  0.00    +0.000 HD
ENDBRANCH  10  12
ENDBRANCH   7   9
ENDBRANCH   1   7
BRANCH   4  18
ATOM     18  C   UNL     1      48.281   7.995  12.188  0.00  0.00    +0.000 C 
BRANCH  18  19
ATOM     19  N   UNL     1      47.564   6.903  11.582  0.00  0.00    +0.000 N 
ATOM     20  C   UNL     1      46.206   6.937  11.406  0.00  0.00    +0.000 C 
ATOM     21  O   UNL     1      45.533   7.918  11.709  0.00  0.00    +0.000 OA
ATOM     22  H   UNL     1      48.047   6.012  11.541  0.00  0.00    +0.000 HD
BRANCH  20  23
ATOM     23  C   UNL     1      45.607   5.757  10.771  0.00  0.00    +0.000 A 
ATOM     24  C   UNL     1      45.788   5.538   9.412  0.00  0.00    +0.000 A 
ATOM     25  S   UNL     1      45.101   4.079   8.858  0.00  0.00    +0.000 S 
ATOM     26  C   UNL     1      44.489   3.714  10.403  0.00  0.00    +0.000 A 
ATOM     27  N   UNL     1      43.773   2.577  10.624  0.00  0.00    +0.000 NA
ATOM     28  C   UNL     1      43.341   2.444  11.832  0.00  0.00    +0.000 A 
ATOM     29  N   UNL     1      43.562   3.344  12.843  0.00  0.00    +0.000 N 
ATOM     30  C   UNL     1      44.298   4.494  12.672  0.00  0.00    +0.000 A 
ATOM     31  O   UNL     1      44.497   5.262  13.607  0.00  0.00    +0.000 OA
ATOM     32  C   UNL     1      44.809   4.691  11.329  0.00  0.00    +0.000 A 
ATOM     33  H   UNL     1      43.194   3.182  13.769  0.00  0.00    +0.000 HD
ENDBRANCH  20  23
ENDBRANCH  18  19
ENDBRANCH   4  18
TORSDOF 6
ENDMDL
MODEL 3
REMARK VINA RESULT:    -7.663      2.596      3.096
REMARK INTER + INTRA:         -11.325
REMARK INTER:                 -10.362
REMARK INTRA:                  -0.963
REMARK UNBOUND:                -0.974
REMARK  Name = 
REMARK  7 active torsions:
REMARK  status: ('A' for Active; 'I' for Inactive)
REMARK    1  A    between atoms: C_1  and  N_2
REMARK    2  A    between atoms: N_2  and  C_3
REMARK    3  A    between atoms: C_3  and  C_4
REMARK    4  A    between atoms: C_7  and  C_8
REMARK    5  A    between atoms: C_8  and  N_9
REMARK    6  A    between atoms: C_10  and  C_12
REMARK    7  A    between atoms: C_24  and  C_26
REMARK                            x       y       z     vdW  Elec       q    Type
REMARK                         _______ _______ _______ _____ _____    ______ ____
ROOT
ATOM      1  C   UNL     1      45.477   6.784  11.764  0.00  0.00    +0.000 A 
ATOM      2  C   UNL     1      45.315   7.945  12.534  0.00  0.00    +0.000 A 
ATOM      3  C   UNL     1      46.410   8.539  13.164  0.00  0.00    +0.000 A 
ATOM      4  C   UNL     1      47.691   7.989  13.026  0.00  0.00    +0.000 A 
ATOM      5  C   UNL     1      47.851   6.825  12.263  0.00  0.00    +0.000 A 
ATOM      6  C   UNL     1      46.757   6.233  11.628  0.00  0.00    +0.000 A 
ENDROOT
BRANCH   1   7
ATOM      7  C   UNL     1      44.286   6.118  11.124  0.00  0.00    +0.000 C 
BRANCH   7   9
ATOM      8  C   UNL     1      42.968   5.007  12.990  0.00  0.00    +0.000 C 
ATOM      9  N   UNL     1      43.735   4.914  11.752  0.00  0.00    +0.000 N 
ATOM     10  C   UNL     1      43.658   3.683  11.084  0.00  0.00    +0.000 C 
ATOM     11  O   UNL     1      42.948   2.775  11.521  0.00  0.00    +0.000 OA
BRANCH  10  12
ATOM     12  C   UNL     1      44.363   3.478   9.847  0.00  0.00    +0.000 A 
ATOM     13  C   UNL     1      45.260   2.553   9.357  0.00  0.00    +0.000 A 
ATOM     14  N   UNL     1      45.609   2.868   8.075  0.00  0.00    +0.000 NA
ATOM     15  N   UNL     1      44.919   3.942   7.719  0.00  0.00    +0.000 NA
ATOM     16  N   UNL     1      44.141   4.278   8.757  0.00  0.00    +0.000 N 
ATOM     17  H   UNL     1      43.499   5.059   8.671  0.00  0.00    +0.000 HD
ENDBRANCH  10  12
ENDBRANCH   7   9
ENDBRANCH   1   7
BRANCH   4  18
ATOM     18  C   UNL     1      48.868   8.583  13.755  0.00  0.00    +0.000 C 
BRANCH  18  19
ATOM     19  N   UNL     1      49.134   7.839  14.959  0.00  0.00    +0.000 N 
ATOM     20  C   UNL     1      48.672   8.249  16.181  0.00  0.00    +0.000 C 
ATOM     21  O   UNL     1      47.966   9.245  16.311  0.00  0.00    +0.000 OA
ATOM     22  H   UNL     1      49.889   7.163  14.915  0.00  0.00    +0.000 HD
BRANCH  20  23
ATOM     23  C   UNL     1      49.014   7.391  17.322  0.00  0.00    +0.000 A 
ATOM     24  C   UNL     1      49.613   7.943  18.446  0.00  0.00    +0.000 A 
ATOM     25  S   UNL     1      49.862   6.823  19.707  0.00  0.00    +0.000 S 
ATOM     26  C   UNL     1      49.230   5.548  18.775  0.00  0.00    +0.000 A 
ATOM     27  N   UNL     1      49.161   4.282  19.273  0.00  0.00    +0.000 NA
ATOM     28  C   UNL     1      48.693   3.408  18.447  0.00  0.00    +0.000 A 
ATOM     29  N   UNL     1      48.283   3.685  17.168  0.00  0.00    +0.000 N 
ATOM     30  C   UNL     1      48.312   4.951  16.632  0.00  0.00    +0.000 A 
ATOM     31  O   UNL     1      47.912   5.164  15.492  0.00  0.00    +0.000 OA
ATOM     32  C   UNL     1      48.830   5.973  17.521  0.00  0.00    +0.000 A 
ATOM     33  H   UNL     1      47.926   2.954  16.570  0.00  0.00    +0.000 HD
ENDBRANCH  20  23
ENDBRANCH  18  19
ENDBRANCH   4  18
TORSDOF 6
ENDMDL
MODEL 4
REMARK VINA RESULT:    -7.314      3.137      9.866
REMARK INTER + INTRA:         -10.854
REMARK INTER:                  -9.866
REMARK INTRA:                  -0.988
REMARK UNBOUND:                -0.974
REMARK  Name = 
REMARK  7 active torsions:
REMARK  status: ('A' for Active; 'I' for Inactive)
REMARK    1  A    between atoms: C_1  and  N_2
REMARK    2  A    between atoms: N_2  and  C_3
REMARK    3  A    between atoms: C_3  and  C_4
REMARK    4  A    between atoms: C_7  and  C_8
REMARK    5  A    between atoms: C_8  and  N_9
REMARK    6  A    between atoms: C_10  and  C_12
REMARK    7  A    between atoms: C_24  and  C_26
REMARK                            x       y       z     vdW  Elec       q    Type
REMARK                         _______ _______ _______ _____ _____    ______ ____
ROOT
ATOM      1  C   UNL     1      51.522   4.085  17.577  0.00  0.00    +0.000 A 
ATOM      2  C   UNL     1      50.987   2.793  17.461  0.00  0.00    +0.000 A 
ATOM      3  C   UNL     1      49.630   2.607  17.186  0.00  0.00    +0.000 A 
ATOM      4  C   UNL     1      48.786   3.710  17.011  0.00  0.00    +0.000 A 
ATOM      5  C   UNL     1      49.319   5.000  17.134  0.00  0.00    +0.000 A 
ATOM      6  C   UNL     1      50.676   5.187  17.403  0.00  0.00    +0.000 A 
ENDROOT
BRANCH   1   7
ATOM      7  C   UNL     1      52.976   4.283  17.920  0.00  0.00    +0.000 C 
BRANCH   7   9
ATOM      8  C   UNL     1      53.003   4.933  20.375  0.00  0.00    +0.000 C 
ATOM      9  N   UNL     1      53.410   4.038  19.297  0.00  0.00    +0.000 N 
ATOM     10  C   UNL     1      53.975   2.819  19.704  0.00  0.00    +0.000 C 
ATOM     11  O   UNL     1      54.069   2.540  20.902  0.00  0.00    +0.000 OA
BRANCH  10  12
ATOM     12  C   UNL     1      54.403   1.851  18.731  0.00  0.00    +0.000 A 
ATOM     13  C   UNL     1      55.461   1.723  17.857  0.00  0.00    +0.000 A 
ATOM     14  N   UNL     1      55.349   0.562  17.148  0.00  0.00    +0.000 NA
ATOM     15  N   UNL     1      54.273  -0.077  17.583  0.00  0.00    +0.000 NA
ATOM     16  N   UNL     1      53.735   0.667  18.558  0.00  0.00    +0.000 N 
ATOM     17  H   UNL     1      52.917   0.329  19.055  0.00  0.00    +0.000 HD
ENDBRANCH  10  12
ENDBRANCH   7   9
ENDBRANCH   1   7
BRANCH   4  18
ATOM     18  C   UNL     1      47.309   3.521  16.780  0.00  0.00    +0.000 C 
BRANCH  18  19
ATOM     19  N   UNL     1      46.833   4.473  15.810  0.00  0.00    +0.000 N 
ATOM     20  C   UNL     1      46.876   4.220  14.464  0.00  0.00    +0.000 C 
ATOM     21  O   UNL     1      47.275   3.150  14.014  0.00  0.00    +0.000 OA
ATOM     22  H   UNL     1      46.721   5.429  16.131  0.00  0.00    +0.000 HD
BRANCH  20  23
ATOM     23  C   UNL     1      46.353   5.278  13.591  0.00  0.00    +0.000 A 
ATOM     24  C   UNL     1      47.136   6.389  13.308  0.00  0.00    +0.000 A 
ATOM     25  S   UNL     1      46.409   7.475  12.211  0.00  0.00    +0.000 S 
ATOM     26  C   UNL     1      44.999   6.527  12.119  0.00  0.00    +0.000 A 
ATOM     27  N   UNL     1      43.950   6.905  11.339  0.00  0.00    +0.000 NA
ATOM     28  C   UNL     1      42.933   6.112  11.390  0.00  0.00    +0.000 A 
ATOM     29  N   UNL     1      42.872   4.972  12.149  0.00  0.00    +0.000 N 
ATOM     30  C   UNL     1      43.915   4.539  12.934  0.00  0.00    +0.000 A 
ATOM     31  O   UNL     1      43.832   3.499  13.579  0.00  0.00    +0.000 OA
ATOM     32  C   UNL     1      45.084   5.395  12.911  0.00  0.00    +0.000 A 
ATOM     33  H   UNL     1      42.044   4.393  12.147  0.00  0.00    +0.000 HD
ENDBRANCH  20  23
ENDBRANCH  18  19
ENDBRANCH   4  18
TORSDOF 6
ENDMDL
MODEL 5
REMARK VINA RESULT:    -7.310      3.454      8.071
REMARK INTER + INTRA:         -10.848
REMARK INTER:                  -9.282
REMARK INTRA:                  -1.566
REMARK UNBOUND:                -0.974
REMARK  Name = 
REMARK  7 active torsions:
REMARK  status: ('A' for Active; 'I' for Inactive)
REMARK    1  A    between atoms: C_1  and  N_2
REMARK    2  A    between atoms: N_2  and  C_3
REMARK    3  A    between atoms: C_3  and  C_4
REMARK    4  A    between atoms: C_7  and  C_8
REMARK    5  A    between atoms: C_8  and  N_9
REMARK    6  A    between atoms: C_10  and  C_12
REMARK    7  A    between atoms: C_24  and  C_26
REMARK                            x       y       z     vdW  Elec       q    Type
REMARK                         _______ _______ _______ _____ _____    ______ ____
ROOT
ATOM      1  C   UNL     1      50.107   5.743  18.005  0.00  0.00    +0.000 A 
ATOM      2  C   UNL     1      50.739   6.259  16.864  0.00  0.00    +0.000 A 
ATOM      3  C   UNL     1      50.246   7.403  16.233  0.00  0.00    +0.000 A 
ATOM      4  C   UNL     1      49.117   8.059  16.739  0.00  0.00    +0.000 A 
ATOM      5  C   UNL     1      48.481   7.539  17.874  0.00  0.00    +0.000 A 
ATOM      6  C   UNL     1      48.977   6.398  18.509  0.00  0.00    +0.000 A 
ENDROOT
BRANCH   1   7
ATOM      7  C   UNL     1      50.613   4.481  18.656  0.00  0.00    +0.000 C 
BRANCH   7   9
ATOM      8  C   UNL     1      52.448   2.951  17.793  0.00  0.00    +0.000 C 
ATOM      9  N   UNL     1      51.053   3.378  17.797  0.00  0.00    +0.000 N 
ATOM     10  C   UNL     1      50.150   2.505  17.170  0.00  0.00    +0.000 C 
ATOM     11  O   UNL     1      50.540   1.437  16.693  0.00  0.00    +0.000 OA
BRANCH  10  12
ATOM     12  C   UNL     1      48.747   2.816  17.123  0.00  0.00    +0.000 A 
ATOM     13  C   UNL     1      47.680   2.725  17.992  0.00  0.00    +0.000 A 
ATOM     14  N   UNL     1      46.542   3.177  17.388  0.00  0.00    +0.000 NA
ATOM     15  N   UNL     1      46.865   3.597  16.174  0.00  0.00    +0.000 NA
ATOM     16  N   UNL     1      48.186   3.428  16.032  0.00  0.00    +0.000 N 
ATOM     17  H   UNL     1      48.643   3.730  15.178  0.00  0.00    +0.000 HD
ENDBRANCH  10  12
ENDBRANCH   7   9
ENDBRANCH   1   7
BRANCH   4  18
ATOM     18  C   UNL     1      48.537   9.255  16.029  0.00  0.00    +0.000 C 
BRANCH  18  19
ATOM     19  N   UNL     1      47.510   8.837  15.110  0.00  0.00    +0.000 N 
ATOM     20  C   UNL     1      47.743   8.724  13.765  0.00  0.00    +0.000 C 
ATOM     21  O   UNL     1      48.851   8.925  13.276  0.00  0.00    +0.000 OA
ATOM     22  H   UNL     1      46.554   8.891  15.445  0.00  0.00    +0.000 HD
BRANCH  20  23
ATOM     23  C   UNL     1      46.606   8.283  12.948  0.00  0.00    +0.000 A 
ATOM     24  C   UNL     1      45.755   9.225  12.385  0.00  0.00    +0.000 A 
ATOM     25  S   UNL     1      44.542   8.544  11.397  0.00  0.00    +0.000 S 
ATOM     26  C   UNL     1      45.077   6.964  11.732  0.00  0.00    +0.000 A 
ATOM     27  N   UNL     1      44.451   5.882  11.192  0.00  0.00    +0.000 NA
ATOM     28  C   UNL     1      44.939   4.745  11.557  0.00  0.00    +0.000 A 
ATOM     29  N   UNL     1      46.001   4.591  12.411  0.00  0.00    +0.000 N 
ATOM     30  C   UNL     1      46.678   5.654  12.961  0.00  0.00    +0.000 A 
ATOM     31  O   UNL     1      47.641   5.476  13.700  0.00  0.00    +0.000 OA
ATOM     32  C   UNL     1      46.169   6.957  12.581  0.00  0.00    +0.000 A 
ATOM     33  H   UNL     1      46.335   3.671  12.659  0.00  0.00    +0.000 HD
ENDBRANCH  20  23
ENDBRANCH  18  19
ENDBRANCH   4  18
TORSDOF 6
ENDMDL
MODEL 6
REMARK VINA RESULT:    -7.282      3.446      8.684
REMARK INTER + INTRA:         -10.810
REMARK INTER:                  -9.580
REMARK INTRA:                  -1.231
REMARK UNBOUND:                -0.974
REMARK  Name = 
REMARK  7 active torsions:
REMARK  status: ('A' for Active; 'I' for Inactive)
REMARK    1  A    between atoms: C_1  and  N_2
REMARK    2  A    between atoms: N_2  and  C_3
REMARK    3  A    between atoms: C_3  and  C_4
REMARK    4  A    between atoms: C_7  and  C_8
REMARK    5  A    between atoms: C_8  and  N_9
REMARK    6  A    between atoms: C_10  and  C_12
REMARK    7  A    between atoms: C_24  and  C_26
REMARK                            x       y       z     vdW  Elec       q    Type
REMARK                         _______ _______ _______ _____ _____    ______ ____
ROOT
ATOM      1  C   UNL     1      49.224   7.985  15.673  0.00  0.00    +0.000 A 
ATOM      2  C   UNL     1      49.590   7.041  14.701  0.00  0.00    +0.000 A 
ATOM      3  C   UNL     1      48.987   7.046  13.442  0.00  0.00    +0.000 A 
ATOM      4  C   UNL     1      48.014   8.002  13.126  0.00  0.00    +0.000 A 
ATOM      5  C   UNL     1      47.643   8.939  14.100  0.00  0.00    +0.000 A 
ATOM      6  C   UNL     1      48.249   8.938  15.357  0.00  0.00    +0.000 A 
ENDROOT
BRANCH   1   7
ATOM      7  C   UNL     1      49.842   7.948  17.047  0.00  0.00    +0.000 C 
BRANCH   7   9
ATOM      8  C   UNL     1      48.604   8.963  19.019  0.00  0.00    +0.000 C 
ATOM      9  N   UNL     1      48.960   7.803  18.208  0.00  0.00    +0.000 N 
ATOM     10  C   UNL     1      48.196   6.648  18.435  0.00  0.00    +0.000 C 
ATOM     11  O   UNL     1      47.267   6.660  19.246  0.00  0.00    +0.000 OA
BRANCH  10  12
ATOM     12  C   UNL     1      48.448   5.446  17.686  0.00  0.00    +0.000 A 
ATOM     13  C   UNL     1      49.437   4.486  17.653  0.00  0.00    +0.000 A 
ATOM     14  N   UNL     1      49.147   3.544  16.708  0.00  0.00    +0.000 NA
ATOM     15  N   UNL     1      47.975   3.853  16.174  0.00  0.00    +0.000 NA
ATOM     16  N   UNL     1      47.535   4.959  16.788  0.00  0.00    +0.000 N 
ATOM     17  H   UNL     1      46.625   5.339  16.548  0.00  0.00    +0.000 HD
ENDBRANCH  10  12
ENDBRANCH   7   9
ENDBRANCH   1   7
BRANCH   4  18
ATOM     18  C   UNL     1      47.310   7.976  11.794  0.00  0.00    +0.000 C 
BRANCH  18  19
ATOM     19  N   UNL     1      46.683   6.695  11.590  0.00  0.00    +0.000 N 
ATOM     20  C   UNL     1      45.322   6.543  11.607  0.00  0.00    +0.000 C 
ATOM     21  O   UNL     1      44.561   7.496  11.748  0.00  0.00    +0.000 OA
ATOM     22  H   UNL     1      47.275   5.879  11.703  0.00  0.00    +0.000 HD
BRANCH  20  23
ATOM     23  C   UNL     1      44.822   5.182  11.379  0.00  0.00    +0.000 A 
ATOM     24  C   UNL     1      44.116   4.530  12.381  0.00  0.00    +0.000 A 
ATOM     25  S   UNL     1      43.534   2.995  11.918  0.00  0.00    +0.000 S 
ATOM     26  C   UNL     1      44.254   3.123  10.382  0.00  0.00    +0.000 A 
ATOM     27  N   UNL     1      44.144   2.119   9.469  0.00  0.00    +0.000 NA
ATOM     28  C   UNL     1      44.766   2.334   8.360  0.00  0.00    +0.000 A 
ATOM     29  N   UNL     1      45.488   3.465   8.078  0.00  0.00    +0.000 N 
ATOM     30  C   UNL     1      45.608   4.514   8.959  0.00  0.00    +0.000 A 
ATOM     31  O   UNL     1      46.240   5.522   8.660  0.00  0.00    +0.000 OA
ATOM     32  C   UNL     1      44.924   4.323  10.223  0.00  0.00    +0.000 A 
ATOM     33  H   UNL     1      45.955   3.572   7.189  0.00  0.00    +0.000 HD
ENDBRANCH  20  23
ENDBRANCH  18  19
ENDBRANCH   4  18
TORSDOF 6
ENDMDL
MODEL 7
REMARK VINA RESULT:    -6.841      3.958      5.099
REMARK INTER + INTRA:         -10.215
REMARK INTER:                  -8.967
REMARK INTRA:                  -1.248
REMARK UNBOUND:                -0.974
REMARK  Name = 
REMARK  7 active torsions:
REMARK  status: ('A' for Active; 'I' for Inactive)
REMARK    1  A    between atoms: C_1  and  N_2
REMARK    2  A    between atoms: N_2  and  C_3
REMARK    3  A    between atoms: C_3  and  C_4
REMARK    4  A    between atoms: C_7  and  C_8
REMARK    5  A    between atoms: C_8  and  N_9
REMARK    6  A    between atoms: C_10  and  C_12
REMARK    7  A    between atoms: C_24  and  C_26
REMARK                            x       y       z     vdW  Elec       q    Type
REMARK                         _______ _______ _______ _____ _____    ______ ____
ROOT
ATOM      1  C   UNL     1      46.308   4.665  13.162  0.00  0.00    +0.000 A 
ATOM      2  C   UNL     1      46.774   5.814  12.505  0.00  0.00    +0.000 A 
ATOM      3  C   UNL     1      47.708   6.653  13.116  0.00  0.00    +0.000 A 
ATOM      4  C   UNL     1      48.201   6.354  14.392  0.00  0.00    +0.000 A 
ATOM      5  C   UNL     1      47.729   5.210  15.051  0.00  0.00    +0.000 A 
ATOM      6  C   UNL     1      46.800   4.367  14.438  0.00  0.00    +0.000 A 
ENDROOT
BRANCH   1   7
ATOM      7  C   UNL     1      45.266   3.786  12.519  0.00  0.00    +0.000 C 
BRANCH   7   9
ATOM      8  C   UNL     1      43.074   4.853  13.234  0.00  0.00    +0.000 C 
ATOM      9  N   UNL     1      43.966   4.372  12.183  0.00  0.00    +0.000 N 
ATOM     10  C   UNL     1      43.630   4.765  10.878  0.00  0.00    +0.000 C 
ATOM     11  O   UNL     1      42.662   5.500  10.674  0.00  0.00    +0.000 OA
BRANCH  10  12
ATOM     12  C   UNL     1      44.443   4.361   9.762  0.00  0.00    +0.000 A 
ATOM     13  C   UNL     1      44.557   3.237   8.973  0.00  0.00    +0.000 A 
ATOM     14  N   UNL     1      45.532   3.418   8.034  0.00  0.00    +0.000 NA
ATOM     15  N   UNL     1      46.008   4.646   8.174  0.00  0.00    +0.000 NA
ATOM     16  N   UNL     1      45.327   5.226   9.172  0.00  0.00    +0.000 N 
ATOM     17  H   UNL     1      45.515   6.194   9.412  0.00  0.00    +0.000 HD
ENDBRANCH  10  12
ENDBRANCH   7   9
ENDBRANCH   1   7
BRANCH   4  18
ATOM     18  C   UNL     1      49.157   7.286  15.088  0.00  0.00    +0.000 C 
BRANCH  18  19
ATOM     19  N   UNL     1      50.359   7.438  14.309  0.00  0.00    +0.000 N 
ATOM     20  C   UNL     1      50.983   8.649  14.167  0.00  0.00    +0.000 C 
ATOM     21  O   UNL     1      50.583   9.660  14.737  0.00  0.00    +0.000 OA
ATOM     22  H   UNL     1      50.571   6.691  13.656  0.00  0.00    +0.000 HD
BRANCH  20  23
ATOM     23  C   UNL     1      52.201   8.655  13.348  0.00  0.00    +0.000 A 
ATOM     24  C   UNL     1      53.397   9.104  13.892  0.00  0.00    +0.000 A 
ATOM     25  S   UNL     1      54.726   8.962  12.833  0.00  0.00    +0.000 S 
ATOM     26  C   UNL     1      53.741   8.347  11.590  0.00  0.00    +0.000 A 
ATOM     27  N   UNL     1      54.266   8.018  10.377  0.00  0.00    +0.000 NA
ATOM     28  C   UNL     1      53.400   7.597   9.517  0.00  0.00    +0.000 A 
ATOM     29  N   UNL     1      52.057   7.472   9.761  0.00  0.00    +0.000 N 
ATOM     30  C   UNL     1      51.486   7.770  10.976  0.00  0.00    +0.000 A 
ATOM     31  O   UNL     1      50.283   7.621  11.164  0.00  0.00    +0.000 OA
ATOM     32  C   UNL     1      52.417   8.248  11.980  0.00  0.00    +0.000 A 
ATOM     33  H   UNL     1      51.431   7.137   9.043  0.00  0.00    +0.000 HD
ENDBRANCH  20  23
ENDBRANCH  18  19
ENDBRANCH   4  18
TORSDOF 6
ENDMDL
MODEL 8
REMARK VINA RESULT:    -6.754      2.225      2.777
REMARK INTER + INTRA:         -10.098
REMARK INTER:                  -8.919
REMARK INTRA:                  -1.179
REMARK UNBOUND:                -0.974
REMARK  Name = 
REMARK  7 active torsions:
REMARK  status: ('A' for Active; 'I' for Inactive)
REMARK    1  A    between atoms: C_1  and  N_2
REMARK    2  A    between atoms: N_2  and  C_3
REMARK    3  A    between atoms: C_3  and  C_4
REMARK    4  A    between atoms: C_7  and  C_8
REMARK    5  A    between atoms: C_8  and  N_9
REMARK    6  A    between atoms: C_10  and  C_12
REMARK    7  A    between atoms: C_24  and  C_26
REMARK                            x       y       z     vdW  Elec       q    Type
REMARK                         _______ _______ _______ _____ _____    ______ ____
ROOT
ATOM      1  C   UNL     1      46.328   4.830  12.989  0.00  0.00    +0.000 A 
ATOM      2  C   UNL     1      46.760   5.868  12.150  0.00  0.00    +0.000 A 
ATOM      3  C   UNL     1      47.716   6.786  12.588  0.00  0.00    +0.000 A 
ATOM      4  C   UNL     1      48.267   6.677  13.870  0.00  0.00    +0.000 A 
ATOM      5  C   UNL     1      47.830   5.645  14.711  0.00  0.00    +0.000 A 
ATOM      6  C   UNL     1      46.878   4.723  14.272  0.00  0.00    +0.000 A 
ENDROOT
BRANCH   1   7
ATOM      7  C   UNL     1      45.262   3.868  12.531  0.00  0.00    +0.000 C 
BRANCH   7   9
ATOM      8  C   UNL     1      43.061   4.959  13.179  0.00  0.00    +0.000 C 
ATOM      9  N   UNL     1      43.949   4.402  12.163  0.00  0.00    +0.000 N 
ATOM     10  C   UNL     1      43.591   4.674  10.833  0.00  0.00    +0.000 C 
ATOM     11  O   UNL     1      42.608   5.373  10.578  0.00  0.00    +0.000 OA
BRANCH  10  12
ATOM     12  C   UNL     1      44.396   4.186   9.746  0.00  0.00    +0.000 A 
ATOM     13  C   UNL     1      44.567   2.981   9.100  0.00  0.00    +0.000 A 
ATOM     14  N   UNL     1      45.499   3.106   8.109  0.00  0.00    +0.000 NA
ATOM     15  N   UNL     1      45.889   4.371   8.075  0.00  0.00    +0.000 NA
ATOM     16  N   UNL     1      45.199   5.026   9.018  0.00  0.00    +0.000 N 
ATOM     17  H   UNL     1      45.323   6.027   9.128  0.00  0.00    +0.000 HD
ENDBRANCH  10  12
ENDBRANCH   7   9
ENDBRANCH   1   7
BRANCH   4  18
ATOM     18  C   UNL     1      49.249   7.701  14.377  0.00  0.00    +0.000 C 
BRANCH  18  19
ATOM     19  N   UNL     1      49.373   7.603  15.809  0.00  0.00    +0.000 N 
ATOM     20  C   UNL     1      50.557   7.847  16.452  0.00  0.00    +0.000 C 
ATOM     21  O   UNL     1      51.563   8.211  15.851  0.00  0.00    +0.000 OA
ATOM     22  H   UNL     1      48.642   7.091  16.292  0.00  0.00    +0.000 HD
BRANCH  20  23
ATOM     23  C   UNL     1      50.537   7.715  17.914  0.00  0.00    +0.000 A 
ATOM     24  C   UNL     1      50.821   8.816  18.711  0.00  0.00    +0.000 A 
ATOM     25  S   UNL     1      50.667   8.507  20.382  0.00  0.00    +0.000 S 
ATOM     26  C   UNL     1      50.270   6.877  20.102  0.00  0.00    +0.000 A 
ATOM     27  N   UNL     1      50.018   6.028  21.136  0.00  0.00    +0.000 NA
ATOM     28  C   UNL     1      49.765   4.814  20.782  0.00  0.00    +0.000 A 
ATOM     29  N   UNL     1      49.736   4.371  19.485  0.00  0.00    +0.000 N 
ATOM     30  C   UNL     1      49.962   5.195  18.408  0.00  0.00    +0.000 A 
ATOM     31  O   UNL     1      49.902   4.767  17.260  0.00  0.00    +0.000 OA
ATOM     32  C   UNL     1      50.251   6.574  18.752  0.00  0.00    +0.000 A 
ATOM     33  H   UNL     1      49.533   3.404  19.274  0.00  0.00    +0.000 HD
ENDBRANCH  20  23
ENDBRANCH  18  19
ENDBRANCH   4  18
TORSDOF 6
ENDMDL
MODEL 9
REMARK VINA RESULT:    -6.710      5.781      8.873
REMARK INTER + INTRA:         -10.038
REMARK INTER:                  -9.080
REMARK INTRA:                  -0.957
REMARK UNBOUND:                -0.974
REMARK  Name = 
REMARK  7 active torsions:
REMARK  status: ('A' for Active; 'I' for Inactive)
REMARK    1  A    between atoms: C_1  and  N_2
REMARK    2  A    between atoms: N_2  and  C_3
REMARK    3  A    between atoms: C_3  and  C_4
REMARK    4  A    between atoms: C_7  and  C_8
REMARK    5  A    between atoms: C_8  and  N_9
REMARK    6  A    between atoms: C_10  and  C_12
REMARK    7  A    between atoms: C_24  and  C_26
REMARK                            x       y       z     vdW  Elec       q    Type
REMARK                         _______ _______ _______ _____ _____    ______ ____
ROOT
ATOM      1  C   UNL     1      50.444   8.866  11.233  0.00  0.00    +0.000 A 
ATOM      2  C   UNL     1      49.667   9.947  11.676  0.00  0.00    +0.000 A 
ATOM      3  C   UNL     1      48.429   9.731  12.286  0.00  0.00    +0.000 A 
ATOM      4  C   UNL     1      47.950   8.428  12.474  0.00  0.00    +0.000 A 
ATOM      5  C   UNL     1      48.723   7.349  12.024  0.00  0.00    +0.000 A 
ATOM      6  C   UNL     1      49.963   7.564  11.420  0.00  0.00    +0.000 A 
ENDROOT
BRANCH   1   7
ATOM      7  C   UNL     1      51.758   9.104  10.534  0.00  0.00    +0.000 C 
BRANCH   7   9
ATOM      8  C   UNL     1      53.353   8.335  12.356  0.00  0.00    +0.000 C 
ATOM      9  N   UNL     1      52.927   8.330  10.960  0.00  0.00    +0.000 N 
ATOM     10  C   UNL     1      53.514   7.345  10.152  0.00  0.00    +0.000 C 
ATOM     11  O   UNL     1      54.304   6.528  10.632  0.00  0.00    +0.000 OA
BRANCH  10  12
ATOM     12  C   UNL     1      53.162   7.235   8.761  0.00  0.00    +0.000 A 
ATOM     13  C   UNL     1      53.277   8.032   7.643  0.00  0.00    +0.000 A 
ATOM     14  N   UNL     1      52.750   7.396   6.555  0.00  0.00    +0.000 NA
ATOM     15  N   UNL     1      52.347   6.195   6.943  0.00  0.00    +0.000 NA
ATOM     16  N   UNL     1      52.635   6.080   8.246  0.00  0.00    +0.000 N 
ATOM     17  H   UNL     1      52.441   5.208   8.729  0.00  0.00    +0.000 HD
ENDBRANCH  10  12
ENDBRANCH   7   9
ENDBRANCH   1   7
BRANCH   4  18
ATOM     18  C   UNL     1      46.588   8.186  13.070  0.00  0.00    +0.000 C 
BRANCH  18  19
ATOM     19  N   UNL     1      46.114   6.875  12.707  0.00  0.00    +0.000 N 
ATOM     20  C   UNL     1      45.053   6.697  11.858  0.00  0.00    +0.000 C 
ATOM     21  O   UNL     1      44.481   7.642  11.322  0.00  0.00    +0.000 OA
ATOM     22  H   UNL     1      46.408   6.108  13.301  0.00  0.00    +0.000 HD
BRANCH  20  23
ATOM     23  C   UNL     1      44.681   5.306  11.573  0.00  0.00    +0.000 A 
ATOM     24  C   UNL     1      43.987   4.569  12.522  0.00  0.00    +0.000 A 
ATOM     25  S   UNL     1      43.561   3.004  11.994  0.00  0.00    +0.000 S 
ATOM     26  C   UNL     1      44.338   3.236  10.498  0.00  0.00    +0.000 A 
ATOM     27  N   UNL     1      44.356   2.253   9.557  0.00  0.00    +0.000 NA
ATOM     28  C   UNL     1      45.009   2.551   8.485  0.00  0.00    +0.000 A 
ATOM     29  N   UNL     1      45.644   3.746   8.267  0.00  0.00    +0.000 N 
ATOM     30  C   UNL     1      45.633   4.776   9.178  0.00  0.00    +0.000 A 
ATOM     31  O   UNL     1      46.191   5.841   8.936  0.00  0.00    +0.000 OA
ATOM     32  C   UNL     1      44.910   4.492  10.402  0.00  0.00    +0.000 A 
ATOM     33  H   UNL     1      46.141   3.918   7.404  0.00  0.00    +0.000 HD
ENDBRANCH  20  23
ENDBRANCH  18  19
ENDBRANCH   4  18
TORSDOF 6
ENDMDL
