MODEL 1
REMARK VINA RESULT:    -9.174      0.000      0.000
REMARK INTER + INTRA:         -14.289
REMARK INTER:                 -13.196
REMARK INTRA:                  -1.093
REMARK UNBOUND:                -1.093
REMARK  Name = 
REMARK  8 active torsions:
REMARK  status: ('A' for Active; 'I' for Inactive)
REMARK    1  A    between atoms: N_1  and  C_2
REMARK    2  A    between atoms: C_2  and  C_3
REMARK    3  A    between atoms: C_2  and  C_17
REMARK    4  A    between atoms: C_3  and  N_4
REMARK    5  A    between atoms: C_5  and  C_7
REMARK    6  A    between atoms: C_20  and  C_21
REMARK    7  A    between atoms: C_21  and  N_22
REMARK    8  A    between atoms: C_23  and  C_25
REMARK                            x       y       z     vdW  Elec       q    Type
REMARK                         _______ _______ _______ _____ _____    ______ ____
ROOT
ATOM      1  C   UNL     1      46.838   4.290  15.054  0.00  0.00    +0.000 C 
ENDROOT
BRANCH   1   2
ATOM      2  C   UNL     1      46.001   4.535  13.800  0.00  0.00    +0.000 A 
ATOM      3  C   UNL     1      45.848   5.823  13.288  0.00  0.00    +0.000 A 
ATOM      4  C   UNL     1      45.096   6.016  12.133  0.00  0.00    +0.000 A 
ATOM      5  C   UNL     1      44.516   4.920  11.493  0.00  0.00    +0.000 A 
ATOM      6  C   UNL     1      44.749   3.669  12.045  0.00  0.00    +0.000 A 
ATOM      7  N   UNL     1      45.468   3.455  13.170  0.00  0.00    +0.000 NA
BRANCH   5   8
ATOM      8  C   UNL     1      43.708   5.078  10.243  0.00  0.00    +0.000 C 
BRANCH   8   9
ATOM      9  N   UNL     1      44.176   4.211   9.194  0.00  0.00    +0.000 N 
ATOM     10  C   UNL     1      45.371   4.442   8.551  0.00  0.00    +0.000 C 
ATOM     11  O   UNL     1      46.064   5.435   8.754  0.00  0.00    +0.000 OA
ATOM     12  H   UNL     1      43.744   3.305   9.024  0.00  0.00    +0.000 HD
BRANCH  10  13
ATOM     13  C   UNL     1      45.740   3.372   7.506  0.00  0.00    +0.000 C 
ATOM     14  C   UNL     1      46.335   2.151   8.214  0.00  0.00    +0.000 C 
ATOM     15  C   UNL     1      46.799   1.098   7.213  0.00  0.00    +0.000 C 
ATOM     16  C   UNL     1      47.718   1.717   6.166  0.00  0.00    +0.000 C 
ATOM     17  C   UNL     1      47.080   2.946   5.525  0.00  0.00    +0.000 C 
ATOM     18  N   UNL     1      46.709   3.944   6.531  0.00  0.00    +0.000 NA
ATOM     19  H   UNL     1      46.255   4.727   6.059  0.00  0.00    +0.000 HD
ENDBRANCH  10  13
ENDBRANCH   8   9
ENDBRANCH   5   8
ENDBRANCH   1   2
BRANCH   1  20
ATOM     20  N   UNL     1      47.555   2.990  15.022  0.00  0.00    +0.000 NA
ATOM     21  H   UNL     1      48.039   2.886  15.914  0.00  0.00    +0.000 HD
ATOM     22  H   UNL     1      48.321   3.081  14.350  0.00  0.00    +0.000 HD
ENDBRANCH   1  20
BRANCH   1  23
ATOM     23  C   UNL     1      47.826   5.461  15.308  0.00  0.00    +0.000 C 
BRANCH  23  24
ATOM     24  N   UNL     1      49.027   5.040  16.018  0.00  0.00    +0.000 N 
ATOM     25  C   UNL     1      49.085   4.862  17.375  0.00  0.00    +0.000 C 
ATOM     26  O   UNL     1      48.110   5.021  18.103  0.00  0.00    +0.000 OA
ATOM     27  H   UNL     1      49.888   5.069  15.484  0.00  0.00    +0.000 HD
BRANCH  25  28
ATOM     28  C   UNL     1      50.385   4.443  17.909  0.00  0.00    +0.000 A 
ATOM     29  C   UNL     1      51.150   5.332  18.650  0.00  0.00    +0.000 A 
ATOM     30  S   UNL     1      52.603   4.657  19.236  0.00  0.00    +0.000 S 
ATOM     31  C   UNL     1      52.285   3.169  18.472  0.00  0.00    +0.000 A 
ATOM     32  N   UNL     1      53.159   2.131  18.565  0.00  0.00    +0.000 NA
ATOM     33  C   UNL     1      52.810   1.078  17.904  0.00  0.00    +0.000 A 
ATOM     34  N   UNL     1      51.665   0.968  17.157  0.00  0.00    +0.000 N 
ATOM     35  C   UNL     1      50.731   1.972  17.071  0.00  0.00    +0.000 A 
ATOM     36  O   UNL     1      49.682   1.815  16.455  0.00  0.00    +0.000 OA
ATOM     37  C   UNL     1      51.083   3.184  17.788  0.00  0.00    +0.000 A 
ATOM     38  H   UNL     1      51.447   0.110  16.672  0.00  0.00    +0.000 HD
ENDBRANCH  25  28
ENDBRANCH  23  24
ENDBRANCH   1  23
TORSDOF 8
ENDMDL
MODEL 2
REMARK VINA RESULT:    -8.430      2.640      4.057
REMARK INTER + INTRA:         -13.219
REMARK INTER:                 -12.281
REMARK INTRA:                  -0.938
REMARK UNBOUND:                -1.093
REMARK  Name = 
REMARK  8 active torsions:
REMARK  status: ('A' for Active; 'I' for Inactive)
REMARK    1  A    between atoms: N_1  and  C_2
REMARK    2  A    between atoms: C_2  and  C_3
REMARK    3  A    between atoms: C_2  and  C_17
REMARK    4  A    between atoms: C_3  and  N_4
REMARK    5  A    between atoms: C_5  and  C_7
REMARK    6  A    between atoms: C_20  and  C_21
REMARK    7  A    between atoms: C_21  and  N_22
REMARK    8  A    between atoms: C_23  and  C_25
REMARK                            x       y       z     vdW  Elec       q    Type
REMARK                         _______ _______ _______ _____ _____    ______ ____
ROOT
ATOM      1  C   UNL     1      47.026   4.376  14.938  0.00  0.00    +0.000 C 
ENDROOT
BRANCH   1   2
ATOM      2  C   UNL     1      46.113   4.514  13.722  0.00  0.00    +0.000 A 
ATOM      3  C   UNL     1      45.802   5.771  13.205  0.00  0.00    +0.000 A 
ATOM      4  C   UNL     1      44.984   5.867  12.083  0.00  0.00    +0.000 A 
ATOM      5  C   UNL     1      44.495   4.707  11.481  0.00  0.00    +0.000 A 
ATOM      6  C   UNL     1      44.883   3.496  12.034  0.00  0.00    +0.000 A 
ATOM      7  N   UNL     1      45.670   3.375  13.127  0.00  0.00    +0.000 NA
BRANCH   5   8
ATOM      8  C   UNL     1      43.620   4.761  10.268  0.00  0.00    +0.000 C 
BRANCH   8   9
ATOM      9  N   UNL     1      44.142   3.953   9.199  0.00  0.00    +0.000 N 
ATOM     10  C   UNL     1      45.294   4.301   8.531  0.00  0.00    +0.000 C 
ATOM     11  O   UNL     1      45.895   5.354   8.729  0.00  0.00    +0.000 OA
ATOM     12  H   UNL     1      43.793   3.011   9.029  0.00  0.00    +0.000 HD
BRANCH  10  13
ATOM     13  C   UNL     1      45.737   3.280   7.466  0.00  0.00    +0.000 C 
ATOM     14  C   UNL     1      46.410   2.087   8.152  0.00  0.00    +0.000 C 
ATOM     15  C   UNL     1      46.946   1.088   7.131  0.00  0.00    +0.000 C 
ATOM     16  C   UNL     1      47.826   1.788   6.101  0.00  0.00    +0.000 C 
ATOM     17  C   UNL     1      47.109   2.986   5.483  0.00  0.00    +0.000 C 
ATOM     18  N   UNL     1      46.669   3.935   6.508  0.00  0.00    +0.000 NA
ATOM     19  H   UNL     1      46.165   4.697   6.050  0.00  0.00    +0.000 HD
ENDBRANCH  10  13
ENDBRANCH   8   9
ENDBRANCH   5   8
ENDBRANCH   1   2
BRANCH   1  20
ATOM     20  N   UNL     1      47.726   3.068  14.987  0.00  0.00    +0.000 NA
ATOM     21  H   UNL     1      47.345   2.489  14.238  0.00  0.00    +0.000 HD
ATOM     22  H   UNL     1      47.417   2.586  15.835  0.00  0.00    +0.000 HD
ENDBRANCH   1  20
BRANCH   1  23
ATOM     23  C   UNL     1      48.042   5.549  15.015  0.00  0.00    +0.000 C 
BRANCH  23  24
ATOM     24  N   UNL     1      48.167   6.098  16.359  0.00  0.00    +0.000 N 
ATOM     25  C   UNL     1      49.364   6.280  16.998  0.00  0.00    +0.000 C 
ATOM     26  O   UNL     1      50.440   6.014  16.469  0.00  0.00    +0.000 OA
ATOM     27  H   UNL     1      47.305   6.165  16.890  0.00  0.00    +0.000 HD
BRANCH  25  28
ATOM     28  C   UNL     1      49.288   6.838  18.352  0.00  0.00    +0.000 A 
ATOM     29  C   UNL     1      49.783   6.117  19.429  0.00  0.00    +0.000 A 
ATOM     30  S   UNL     1      49.660   6.944  20.916  0.00  0.00    +0.000 S 
ATOM     31  C   UNL     1      48.890   8.271  20.178  0.00  0.00    +0.000 A 
ATOM     32  N   UNL     1      48.496   9.349  20.909  0.00  0.00    +0.000 NA
ATOM     33  C   UNL     1      47.889  10.263  20.227  0.00  0.00    +0.000 A 
ATOM     34  N   UNL     1      47.641  10.198  18.880  0.00  0.00    +0.000 N 
ATOM     35  C   UNL     1      48.061   9.153  18.094  0.00  0.00    +0.000 A 
ATOM     36  O   UNL     1      47.888   9.159  16.880  0.00  0.00    +0.000 OA
ATOM     37  C   UNL     1      48.738   8.091  18.815  0.00  0.00    +0.000 A 
ATOM     38  H   UNL     1      47.169  10.954  18.406  0.00  0.00    +0.000 HD
ENDBRANCH  25  28
ENDBRANCH  23  24
ENDBRANCH   1  23
TORSDOF 8
ENDMDL
MODEL 3
REMARK VINA RESULT:    -8.272      1.620      2.097
REMARK INTER + INTRA:         -12.992
REMARK INTER:                 -11.758
REMARK INTRA:                  -1.234
REMARK UNBOUND:                -1.093
REMARK  Name = 
REMARK  8 active torsions:
REMARK  status: ('A' for Active; 'I' for Inactive)
REMARK    1  A    between atoms: N_1  and  C_2
REMARK    2  A    between atoms: C_2  and  C_3
REMARK    3  A    between atoms: C_2  and  C_17
REMARK    4  A    between atoms: C_3  and  N_4
REMARK    5  A    between atoms: C_5  and  C_7
REMARK    6  A    between atoms: C_20  and  C_21
REMARK    7  A    between atoms: C_21  and  N_22
REMARK    8  A    between atoms: C_23  and  C_25
REMARK                            x       y       z     vdW  Elec       q    Type
REMARK                         _______ _______ _______ _____ _____    ______ ____
ROOT
ATOM      1  C   UNL     1      48.830   7.656  14.352  0.00  0.00    +0.000 C 
ENDROOT
BRANCH   1   2
ATOM      2  C   UNL     1      47.700   6.763  13.844  0.00  0.00    +0.000 A 
ATOM      3  C   UNL     1      46.699   7.281  13.023  0.00  0.00    +0.000 A 
ATOM      4  C   UNL     1      45.692   6.440  12.558  0.00  0.00    +0.000 A 
ATOM      5  C   UNL     1      45.701   5.089  12.906  0.00  0.00    +0.000 A 
ATOM      6  C   UNL     1      46.753   4.646  13.694  0.00  0.00    +0.000 A 
ATOM      7  N   UNL     1      47.739   5.443  14.166  0.00  0.00    +0.000 NA
BRANCH   5   8
ATOM      8  C   UNL     1      44.645   4.146  12.422  0.00  0.00    +0.000 C 
BRANCH   8   9
ATOM      9  N   UNL     1      44.986   3.575  11.145  0.00  0.00    +0.000 N 
ATOM     10  C   UNL     1      44.400   4.017   9.981  0.00  0.00    +0.000 C 
ATOM     11  O   UNL     1      43.493   4.844   9.955  0.00  0.00    +0.000 OA
ATOM     12  H   UNL     1      45.798   2.970  11.037  0.00  0.00    +0.000 HD
BRANCH  10  13
ATOM     13  C   UNL     1      44.940   3.337   8.709  0.00  0.00    +0.000 C 
ATOM     14  C   UNL     1      45.648   2.033   9.089  0.00  0.00    +0.000 C 
ATOM     15  C   UNL     1      46.278   1.366   7.870  0.00  0.00    +0.000 C 
ATOM     16  C   UNL     1      47.160   2.352   7.112  0.00  0.00    +0.000 C 
ATOM     17  C   UNL     1      46.406   3.640   6.796  0.00  0.00    +0.000 C 
ATOM     18  N   UNL     1      45.874   4.262   8.010  0.00  0.00    +0.000 NA
ATOM     19  H   UNL     1      45.349   5.097   7.744  0.00  0.00    +0.000 HD
ENDBRANCH  10  13
ENDBRANCH   8   9
ENDBRANCH   5   8
ENDBRANCH   1   2
BRANCH   1  20
ATOM     20  N   UNL     1      48.721   9.055  13.866  0.00  0.00    +0.000 NA
ATOM     21  H   UNL     1      48.477   9.016  12.876  0.00  0.00    +0.000 HD
ATOM     22  H   UNL     1      49.665   9.450  13.859  0.00  0.00    +0.000 HD
ENDBRANCH   1  20
BRANCH   1  23
ATOM     23  C   UNL     1      48.925   7.615  15.902  0.00  0.00    +0.000 C 
BRANCH  23  24
ATOM     24  N   UNL     1      49.949   6.695  16.380  0.00  0.00    +0.000 N 
ATOM     25  C   UNL     1      49.752   5.800  17.397  0.00  0.00    +0.000 C 
ATOM     26  O   UNL     1      48.675   5.686  17.975  0.00  0.00    +0.000 OA
ATOM     27  H   UNL     1      50.892   6.877  16.053  0.00  0.00    +0.000 HD
BRANCH  25  28
ATOM     28  C   UNL     1      50.905   4.962  17.742  0.00  0.00    +0.000 A 
ATOM     29  C   UNL     1      52.048   5.540  18.276  0.00  0.00    +0.000 A 
ATOM     30  S   UNL     1      53.263   4.409  18.668  0.00  0.00    +0.000 S 
ATOM     31  C   UNL     1      52.324   3.114  18.085  0.00  0.00    +0.000 A 
ATOM     32  N   UNL     1      52.793   1.837  18.116  0.00  0.00    +0.000 NA
ATOM     33  C   UNL     1      51.992   0.962  17.604  0.00  0.00    +0.000 A 
ATOM     34  N   UNL     1      50.764   1.247  17.066  0.00  0.00    +0.000 N 
ATOM     35  C   UNL     1      50.229   2.513  17.056  0.00  0.00    +0.000 A 
ATOM     36  O   UNL     1      49.097   2.723  16.633  0.00  0.00    +0.000 OA
ATOM     37  C   UNL     1      51.097   3.537  17.608  0.00  0.00    +0.000 A 
ATOM     38  H   UNL     1      50.183   0.512  16.691  0.00  0.00    +0.000 HD
ENDBRANCH  25  28
ENDBRANCH  23  24
ENDBRANCH   1  23
TORSDOF 8
ENDMDL
MODEL 4
REMARK VINA RESULT:    -8.114      2.416      3.079
REMARK INTER + INTRA:         -12.764
REMARK INTER:                 -11.567
REMARK INTRA:                  -1.197
REMARK UNBOUND:                -1.093
REMARK  Name = 
REMARK  8 active torsions:
REMARK  status: ('A' for Active; 'I' for Inactive)
REMARK    1  A    between atoms: N_1  and  C_2
REMARK    2  A    between atoms: C_2  and  C_3
REMARK    3  A    between atoms: C_2  and  C_17
REMARK    4  A    between atoms: C_3  and  N_4
REMARK    5  A    between atoms: C_5  and  C_7
REMARK    6  A    between atoms: C_20  and  C_21
REMARK    7  A    between atoms: C_21  and  N_22
REMARK    8  A    between atoms: C_23  and  C_25
REMARK                            x       y       z     vdW  Elec       q    Type
REMARK                         _______ _______ _______ _____ _____    ______ ____
ROOT
ATOM      1  C   UNL     1      47.840   8.709  13.734  0.00  0.00    +0.000 C 
ENDROOT
BRANCH   1   2
ATOM      2  C   UNL     1      46.805   7.887  12.968  0.00  0.00    +0.000 A 
ATOM      3  C   UNL     1      45.796   8.515  12.238  0.00  0.00    +0.000 A 
ATOM      4  C   UNL     1      44.879   7.742  11.533  0.00  0.00    +0.000 A 
ATOM      5  C   UNL     1      44.986   6.351  11.551  0.00  0.00    +0.000 A 
ATOM      6  C   UNL     1      46.041   5.807  12.269  0.00  0.00    +0.000 A 
ATOM      7  N   UNL     1      46.940   6.535  12.969  0.00  0.00    +0.000 NA
BRANCH   5   8
ATOM      8  C   UNL     1      44.029   5.480  10.800  0.00  0.00    +0.000 C 
BRANCH   8   9
ATOM      9  N   UNL     1      44.662   4.836   9.679  0.00  0.00    +0.000 N 
ATOM     10  C   UNL     1      44.508   3.489   9.443  0.00  0.00    +0.000 C 
ATOM     11  O   UNL     1      43.913   2.735  10.208  0.00  0.00    +0.000 OA
ATOM     12  H   UNL     1      45.079   5.378   8.925  0.00  0.00    +0.000 HD
BRANCH  10  13
ATOM     13  C   UNL     1      45.202   2.992   8.160  0.00  0.00    +0.000 C 
ATOM     14  C   UNL     1      46.006   1.727   8.473  0.00  0.00    +0.000 C 
ATOM     15  C   UNL     1      46.784   1.246   7.252  0.00  0.00    +0.000 C 
ATOM     16  C   UNL     1      47.617   2.379   6.663  0.00  0.00    +0.000 C 
ATOM     17  C   UNL     1      46.764   3.619   6.409  0.00  0.00    +0.000 C 
ATOM     18  N   UNL     1      46.087   4.064   7.629  0.00  0.00    +0.000 NA
ATOM     19  H   UNL     1      45.503   4.871   7.401  0.00  0.00    +0.000 HD
ENDBRANCH  10  13
ENDBRANCH   8   9
ENDBRANCH   5   8
ENDBRANCH   1   2
BRANCH   1  20
ATOM     20  N   UNL     1      47.316   9.241  15.018  0.00  0.00    +0.000 NA
ATOM     21  H   UNL     1      46.571   9.901  14.794  0.00  0.00    +0.000 HD
ATOM     22  H   UNL     1      48.043   9.837  15.421  0.00  0.00    +0.000 HD
ENDBRANCH   1  20
BRANCH   1  23
ATOM     23  C   UNL     1      49.145   7.899  13.963  0.00  0.00    +0.000 C 
BRANCH  23  24
ATOM     24  N   UNL     1      49.091   7.070  15.160  0.00  0.00    +0.000 N 
ATOM     25  C   UNL     1      50.197   6.690  15.873  0.00  0.00    +0.000 C 
ATOM     26  O   UNL     1      51.331   7.045  15.567  0.00  0.00    +0.000 OA
ATOM     27  H   UNL     1      48.202   6.617  15.342  0.00  0.00    +0.000 HD
BRANCH  25  28
ATOM     28  C   UNL     1      49.942   5.848  17.046  0.00  0.00    +0.000 A 
ATOM     29  C   UNL     1      50.672   6.041  18.210  0.00  0.00    +0.000 A 
ATOM     30  S   UNL     1      50.203   5.011  19.486  0.00  0.00    +0.000 S 
ATOM     31  C   UNL     1      49.047   4.234  18.508  0.00  0.00    +0.000 A 
ATOM     32  N   UNL     1      48.283   3.219  18.996  0.00  0.00    +0.000 NA
ATOM     33  C   UNL     1      47.477   2.696  18.133  0.00  0.00    +0.000 A 
ATOM     34  N   UNL     1      47.364   3.095  16.826  0.00  0.00    +0.000 N 
ATOM     35  C   UNL     1      48.079   4.144  16.302  0.00  0.00    +0.000 A 
ATOM     36  O   UNL     1      47.902   4.524  15.150  0.00  0.00    +0.000 OA
ATOM     37  C   UNL     1      49.011   4.759  17.229  0.00  0.00    +0.000 A 
ATOM     38  H   UNL     1      46.704   2.648  16.206  0.00  0.00    +0.000 HD
ENDBRANCH  25  28
ENDBRANCH  23  24
ENDBRANCH   1  23
TORSDOF 8
ENDMDL
MODEL 5
REMARK VINA RESULT:    -7.992      2.860      9.304
REMARK INTER + INTRA:         -12.589
REMARK INTER:                 -11.746
REMARK INTRA:                  -0.842
REMARK UNBOUND:                -1.093
REMARK  Name = 
REMARK  8 active torsions:
REMARK  status: ('A' for Active; 'I' for Inactive)
REMARK    1  A    between atoms: N_1  and  C_2
REMARK    2  A    between atoms: C_2  and  C_3
REMARK    3  A    between atoms: C_2  and  C_17
REMARK    4  A    between atoms: C_3  and  N_4
REMARK    5  A    between atoms: C_5  and  C_7
REMARK    6  A    between atoms: C_20  and  C_21
REMARK    7  A    between atoms: C_21  and  N_22
REMARK    8  A    between atoms: C_23  and  C_25
REMARK                            x       y       z     vdW  Elec       q    Type
REMARK                         _______ _______ _______ _____ _____    ______ ____
ROOT
ATOM      1  C   UNL     1      48.544   7.605  12.966  0.00  0.00    +0.000 C 
ENDROOT
BRANCH   1   2
ATOM      2  C   UNL     1      48.339   6.580  14.080  0.00  0.00    +0.000 A 
ATOM      3  C   UNL     1      48.768   6.847  15.380  0.00  0.00    +0.000 A 
ATOM      4  C   UNL     1      48.550   5.903  16.380  0.00  0.00    +0.000 A 
ATOM      5  C   UNL     1      47.895   4.709  16.075  0.00  0.00    +0.000 A 
ATOM      6  C   UNL     1      47.466   4.539  14.768  0.00  0.00    +0.000 A 
ATOM      7  N   UNL     1      47.671   5.435  13.776  0.00  0.00    +0.000 NA
BRANCH   5   8
ATOM      8  C   UNL     1      47.630   3.671  17.119  0.00  0.00    +0.000 C 
BRANCH   8   9
ATOM      9  N   UNL     1      48.850   3.189  17.712  0.00  0.00    +0.000 N 
ATOM     10  C   UNL     1      49.660   2.288  17.058  0.00  0.00    +0.000 C 
ATOM     11  O   UNL     1      49.360   1.766  15.988  0.00  0.00    +0.000 OA
ATOM     12  H   UNL     1      49.249   3.634  18.536  0.00  0.00    +0.000 HD
BRANCH  10  13
ATOM     13  C   UNL     1      50.955   1.941  17.817  0.00  0.00    +0.000 C 
ATOM     14  C   UNL     1      51.834   3.191  17.922  0.00  0.00    +0.000 C 
ATOM     15  C   UNL     1      53.170   2.878  18.589  0.00  0.00    +0.000 C 
ATOM     16  C   UNL     1      53.850   1.698  17.904  0.00  0.00    +0.000 C 
ATOM     17  C   UNL     1      52.910   0.500  17.801  0.00  0.00    +0.000 C 
ATOM     18  N   UNL     1      51.671   0.849  17.103  0.00  0.00    +0.000 NA
ATOM     19  H   UNL     1      51.062   0.029  17.091  0.00  0.00    +0.000 HD
ENDBRANCH  10  13
ENDBRANCH   8   9
ENDBRANCH   5   8
ENDBRANCH   1   2
BRANCH   1  20
ATOM     20  N   UNL     1      49.677   7.262  12.070  0.00  0.00    +0.000 NA
ATOM     21  H   UNL     1      49.739   7.994  11.362  0.00  0.00    +0.000 HD
ATOM     22  H   UNL     1      49.401   6.437  11.531  0.00  0.00    +0.000 HD
ENDBRANCH   1  20
BRANCH   1  23
ATOM     23  C   UNL     1      47.239   7.818  12.151  0.00  0.00    +0.000 C 
BRANCH  23  24
ATOM     24  N   UNL     1      46.550   6.569  11.854  0.00  0.00    +0.000 N 
ATOM     25  C   UNL     1      45.206   6.481  11.608  0.00  0.00    +0.000 C 
ATOM     26  O   UNL     1      44.474   7.466  11.593  0.00  0.00    +0.000 OA
ATOM     27  H   UNL     1      47.080   5.721  12.029  0.00  0.00    +0.000 HD
BRANCH  25  28
ATOM     28  C   UNL     1      44.693   5.134  11.337  0.00  0.00    +0.000 A 
ATOM     29  C   UNL     1      43.925   4.479  12.290  0.00  0.00    +0.000 A 
ATOM     30  S   UNL     1      43.369   2.949  11.781  0.00  0.00    +0.000 S 
ATOM     31  C   UNL     1      44.182   3.086  10.292  0.00  0.00    +0.000 A 
ATOM     32  N   UNL     1      44.128   2.089   9.368  0.00  0.00    +0.000 NA
ATOM     33  C   UNL     1      44.824   2.310   8.303  0.00  0.00    +0.000 A 
ATOM     34  N   UNL     1      45.568   3.439   8.075  0.00  0.00    +0.000 N 
ATOM     35  C   UNL     1      45.615   4.492   8.957  0.00  0.00    +0.000 A 
ATOM     36  O   UNL     1      46.232   5.518   8.692  0.00  0.00    +0.000 OA
ATOM     37  C   UNL     1      44.860   4.287  10.179  0.00  0.00    +0.000 A 
ATOM     38  H   UNL     1      46.082   3.553   7.214  0.00  0.00    +0.000 HD
ENDBRANCH  25  28
ENDBRANCH  23  24
ENDBRANCH   1  23
TORSDOF 8
ENDMDL
MODEL 6
REMARK VINA RESULT:    -7.850      3.105      4.385
REMARK INTER + INTRA:         -12.384
REMARK INTER:                 -10.933
REMARK INTRA:                  -1.452
REMARK UNBOUND:                -1.093
REMARK  Name = 
REMARK  8 active torsions:
REMARK  status: ('A' for Active; 'I' for Inactive)
REMARK    1  A    between atoms: N_1  and  C_2
REMARK    2  A    between atoms: C_2  and  C_3
REMARK    3  A    between atoms: C_2  and  C_17
REMARK    4  A    between atoms: C_3  and  N_4
REMARK    5  A    between atoms: C_5  and  C_7
REMARK    6  A    between atoms: C_20  and  C_21
REMARK    7  A    between atoms: C_21  and  N_22
REMARK    8  A    between atoms: C_23  and  C_25
REMARK                            x       y       z     vdW  Elec       q    Type
REMARK                         _______ _______ _______ _____ _____    ______ ____
ROOT
ATOM      1  C   UNL     1      48.826   8.793  13.798  0.00  0.00    +0.000 C 
ENDROOT
BRANCH   1   2
ATOM      2  C   UNL     1      47.626   8.125  13.130  0.00  0.00    +0.000 A 
ATOM      3  C   UNL     1      46.349   8.670  13.252  0.00  0.00    +0.000 A 
ATOM      4  C   UNL     1      45.276   8.051  12.617  0.00  0.00    +0.000 A 
ATOM      5  C   UNL     1      45.491   6.902  11.855  0.00  0.00    +0.000 A 
ATOM      6  C   UNL     1      46.797   6.447  11.753  0.00  0.00    +0.000 A 
ATOM      7  N   UNL     1      47.856   7.024  12.366  0.00  0.00    +0.000 NA
BRANCH   5   8
ATOM      8  C   UNL     1      44.371   6.209  11.146  0.00  0.00    +0.000 C 
BRANCH   8   9
ATOM      9  N   UNL     1      44.853   5.372  10.079  0.00  0.00    +0.000 N 
ATOM     10  C   UNL     1      44.300   4.136   9.830  0.00  0.00    +0.000 C 
ATOM     11  O   UNL     1      43.440   3.626  10.543  0.00  0.00    +0.000 OA
ATOM     12  H   UNL     1      45.477   5.737   9.363  0.00  0.00    +0.000 HD
BRANCH  10  13
ATOM     13  C   UNL     1      44.898   3.416   8.606  0.00  0.00    +0.000 C 
ATOM     14  C   UNL     1      45.518   2.087   9.050  0.00  0.00    +0.000 C 
ATOM     15  C   UNL     1      46.203   1.377   7.887  0.00  0.00    +0.000 C 
ATOM     16  C   UNL     1      47.181   2.312   7.184  0.00  0.00    +0.000 C 
ATOM     17  C   UNL     1      46.509   3.628   6.801  0.00  0.00    +0.000 C 
ATOM     18  N   UNL     1      45.920   4.289   7.967  0.00  0.00    +0.000 NA
ATOM     19  H   UNL     1      45.453   5.143   7.655  0.00  0.00    +0.000 HD
ENDBRANCH  10  13
ENDBRANCH   8   9
ENDBRANCH   5   8
ENDBRANCH   1   2
BRANCH   1  20
ATOM     20  N   UNL     1      48.434   9.736  14.876  0.00  0.00    +0.000 NA
ATOM     21  H   UNL     1      48.997   9.514  15.697  0.00  0.00    +0.000 HD
ATOM     22  H   UNL     1      47.485   9.488  15.169  0.00  0.00    +0.000 HD
ENDBRANCH   1  20
BRANCH   1  23
ATOM     23  C   UNL     1      49.835   7.738  14.328  0.00  0.00    +0.000 C 
BRANCH  23  24
ATOM     24  N   UNL     1      49.590   7.371  15.716  0.00  0.00    +0.000 N 
ATOM     25  C   UNL     1      48.837   6.292  16.096  0.00  0.00    +0.000 C 
ATOM     26  O   UNL     1      48.326   5.527  15.284  0.00  0.00    +0.000 OA
ATOM     27  H   UNL     1      49.843   8.068  16.408  0.00  0.00    +0.000 HD
BRANCH  25  28
ATOM     28  C   UNL     1      48.696   6.089  17.542  0.00  0.00    +0.000 A 
ATOM     29  C   UNL     1      48.988   4.852  18.100  0.00  0.00    +0.000 A 
ATOM     30  S   UNL     1      48.821   4.816  19.798  0.00  0.00    +0.000 S 
ATOM     31  C   UNL     1      48.300   6.436  19.837  0.00  0.00    +0.000 A 
ATOM     32  N   UNL     1      47.972   7.039  21.012  0.00  0.00    +0.000 NA
ATOM     33  C   UNL     1      47.555   8.256  20.888  0.00  0.00    +0.000 A 
ATOM     34  N   UNL     1      47.436   8.924  19.697  0.00  0.00    +0.000 N 
ATOM     35  C   UNL     1      47.798   8.373  18.492  0.00  0.00    +0.000 A 
ATOM     36  O   UNL     1      47.749   9.022  17.454  0.00  0.00    +0.000 OA
ATOM     37  C   UNL     1      48.262   7.000  18.575  0.00  0.00    +0.000 A 
ATOM     38  H   UNL     1      47.112   9.880  19.673  0.00  0.00    +0.000 HD
ENDBRANCH  25  28
ENDBRANCH  23  24
ENDBRANCH   1  23
TORSDOF 8
ENDMDL
MODEL 7
REMARK VINA RESULT:    -7.161      5.119      6.272
REMARK INTER + INTRA:         -11.394
REMARK INTER:                  -9.742
REMARK INTRA:                  -1.653
REMARK UNBOUND:                -1.093
REMARK  Name = 
REMARK  8 active torsions:
REMARK  status: ('A' for Active; 'I' for Inactive)
REMARK    1  A    between atoms: N_1  and  C_2
REMARK    2  A    between atoms: C_2  and  C_3
REMARK    3  A    between atoms: C_2  and  C_17
REMARK    4  A    between atoms: C_3  and  N_4
REMARK    5  A    between atoms: C_5  and  C_7
REMARK    6  A    between atoms: C_20  and  C_21
REMARK    7  A    between atoms: C_21  and  N_22
REMARK    8  A    between atoms: C_23  and  C_25
REMARK                            x       y       z     vdW  Elec       q    Type
REMARK                         _______ _______ _______ _____ _____    ______ ____
ROOT
ATOM      1  C   UNL     1      48.411   7.725  14.344  0.00  0.00    +0.000 C 
ENDROOT
BRANCH   1   2
ATOM      2  C   UNL     1      47.367   7.110  13.414  0.00  0.00    +0.000 A 
ATOM      3  C   UNL     1      47.109   5.740  13.443  0.00  0.00    +0.000 A 
ATOM      4  C   UNL     1      46.138   5.209  12.598  0.00  0.00    +0.000 A 
ATOM      5  C   UNL     1      45.426   6.051  11.744  0.00  0.00    +0.000 A 
ATOM      6  C   UNL     1      45.717   7.406  11.806  0.00  0.00    +0.000 A 
ATOM      7  N   UNL     1      46.660   7.947  12.610  0.00  0.00    +0.000 NA
BRANCH   5   8
ATOM      8  C   UNL     1      44.367   5.527  10.826  0.00  0.00    +0.000 C 
BRANCH   8   9
ATOM      9  N   UNL     1      44.934   4.823   9.707  0.00  0.00    +0.000 N 
ATOM     10  C   UNL     1      44.562   3.532   9.406  0.00  0.00    +0.000 C 
ATOM     11  O   UNL     1      43.809   2.866  10.112  0.00  0.00    +0.000 OA
ATOM     12  H   UNL     1      45.475   5.311   8.995  0.00  0.00    +0.000 HD
BRANCH  10  13
ATOM     13  C   UNL     1      45.222   2.968   8.133  0.00  0.00    +0.000 C 
ATOM     14  C   UNL     1      46.031   1.717   8.490  0.00  0.00    +0.000 C 
ATOM     15  C   UNL     1      46.777   1.172   7.277  0.00  0.00    +0.000 C 
ATOM     16  C   UNL     1      47.597   2.271   6.609  0.00  0.00    +0.000 C 
ATOM     17  C   UNL     1      46.740   3.499   6.313  0.00  0.00    +0.000 C 
ATOM     18  N   UNL     1      46.096   4.009   7.525  0.00  0.00    +0.000 NA
ATOM     19  H   UNL     1      45.508   4.804   7.271  0.00  0.00    +0.000 HD
ENDBRANCH  10  13
ENDBRANCH   8   9
ENDBRANCH   5   8
ENDBRANCH   1   2
BRANCH   1  20
ATOM     20  N   UNL     1      49.702   6.993  14.324  0.00  0.00    +0.000 NA
ATOM     21  H   UNL     1      49.773   6.522  13.422  0.00  0.00    +0.000 HD
ATOM     22  H   UNL     1      49.625   6.218  14.988  0.00  0.00    +0.000 HD
ENDBRANCH   1  20
BRANCH   1  23
ATOM     23  C   UNL     1      48.625   9.232  14.031  0.00  0.00    +0.000 C 
BRANCH  23  24
ATOM     24  N   UNL     1      49.545   9.451  12.923  0.00  0.00    +0.000 N 
ATOM     25  C   UNL     1      50.739  10.111  13.044  0.00  0.00    +0.000 C 
ATOM     26  O   UNL     1      51.141  10.552  14.117  0.00  0.00    +0.000 OA
ATOM     27  H   UNL     1      49.174   9.261  11.998  0.00  0.00    +0.000 HD
BRANCH  25  28
ATOM     28  C   UNL     1      51.525  10.241  11.814  0.00  0.00    +0.000 A 
ATOM     29  C   UNL     1      52.043  11.475  11.448  0.00  0.00    +0.000 A 
ATOM     30  S   UNL     1      52.976  11.426  10.020  0.00  0.00    +0.000 S 
ATOM     31  C   UNL     1      52.673   9.763   9.813  0.00  0.00    +0.000 A 
ATOM     32  N   UNL     1      53.183   9.084   8.751  0.00  0.00    +0.000 NA
ATOM     33  C   UNL     1      52.840   7.840   8.698  0.00  0.00    +0.000 A 
ATOM     34  N   UNL     1      52.033   7.212   9.612  0.00  0.00    +0.000 N 
ATOM     35  C   UNL     1      51.533   7.845  10.725  0.00  0.00    +0.000 A 
ATOM     36  O   UNL     1      50.875   7.236  11.561  0.00  0.00    +0.000 OA
ATOM     37  C   UNL     1      51.880   9.250  10.824  0.00  0.00    +0.000 A 
ATOM     38  H   UNL     1      51.812   6.232   9.516  0.00  0.00    +0.000 HD
ENDBRANCH  25  28
ENDBRANCH  23  24
ENDBRANCH   1  23
TORSDOF 8
ENDMDL
MODEL 8
REMARK VINA RESULT:    -7.084      2.855      3.475
REMARK INTER + INTRA:         -11.283
REMARK INTER:                 -10.162
REMARK INTRA:                  -1.121
REMARK UNBOUND:                -1.093
REMARK  Name = 
REMARK  8 active torsions:
REMARK  status: ('A' for Active; 'I' for Inactive)
REMARK    1  A    between atoms: N_1  and  C_2
REMARK    2  A    between atoms: C_2  and  C_3
REMARK    3  A    between atoms: C_2  and  C_17
REMARK    4  A    between atoms: C_3  and  N_4
REMARK    5  A    between atoms: C_5  and  C_7
REMARK    6  A    between atoms: C_20  and  C_21
REMARK    7  A    between atoms: C_21  and  N_22
REMARK    8  A    between atoms: C_23  and  C_25
REMARK                            x       y       z     vdW  Elec       q    Type
REMARK                         _______ _______ _______ _____ _____    ______ ____
ROOT
ATOM      1  C   UNL     1      48.749   8.753  14.118  0.00  0.00    +0.000 C 
ENDROOT
BRANCH   1   2
ATOM      2  C   UNL     1      47.636   8.119  13.286  0.00  0.00    +0.000 A 
ATOM      3  C   UNL     1      47.895   7.019  12.469  0.00  0.00    +0.000 A 
ATOM      4  C   UNL     1      46.858   6.450  11.737  0.00  0.00    +0.000 A 
ATOM      5  C   UNL     1      45.569   6.975  11.838  0.00  0.00    +0.000 A 
ATOM      6  C   UNL     1      45.388   8.044  12.703  0.00  0.00    +0.000 A 
ATOM      7  N   UNL     1      46.379   8.621  13.418  0.00  0.00    +0.000 NA
BRANCH   5   8
ATOM      8  C   UNL     1      44.420   6.389  11.078  0.00  0.00    +0.000 C 
BRANCH   8   9
ATOM      9  N   UNL     1      44.868   5.490  10.047  0.00  0.00    +0.000 N 
ATOM     10  C   UNL     1      44.269   4.267   9.851  0.00  0.00    +0.000 C 
ATOM     11  O   UNL     1      43.393   3.820  10.586  0.00  0.00    +0.000 OA
ATOM     12  H   UNL     1      45.503   5.801   9.315  0.00  0.00    +0.000 HD
BRANCH  10  13
ATOM     13  C   UNL     1      44.836   3.473   8.658  0.00  0.00    +0.000 C 
ATOM     14  C   UNL     1      45.414   2.146   9.158  0.00  0.00    +0.000 C 
ATOM     15  C   UNL     1      46.069   1.362   8.025  0.00  0.00    +0.000 C 
ATOM     16  C   UNL     1      47.072   2.233   7.276  0.00  0.00    +0.000 C 
ATOM     17  C   UNL     1      46.443   3.552   6.838  0.00  0.00    +0.000 C 
ATOM     18  N   UNL     1      45.882   4.284   7.976  0.00  0.00    +0.000 NA
ATOM     19  H   UNL     1      45.442   5.137   7.629  0.00  0.00    +0.000 HD
ENDBRANCH  10  13
ENDBRANCH   8   9
ENDBRANCH   5   8
ENDBRANCH   1   2
BRANCH   1  20
ATOM     20  N   UNL     1      48.977  10.181  13.783  0.00  0.00    +0.000 NA
ATOM     21  H   UNL     1      49.871  10.242  13.294  0.00  0.00    +0.000 HD
ATOM     22  H   UNL     1      49.156  10.676  14.660  0.00  0.00    +0.000 HD
ENDBRANCH   1  20
BRANCH   1  23
ATOM     23  C   UNL     1      48.485   8.577  15.638  0.00  0.00    +0.000 C 
BRANCH  23  24
ATOM     24  N   UNL     1      49.500   7.766  16.297  0.00  0.00    +0.000 N 
ATOM     25  C   UNL     1      49.522   6.397  16.260  0.00  0.00    +0.000 C 
ATOM     26  O   UNL     1      48.690   5.741  15.640  0.00  0.00    +0.000 OA
ATOM     27  H   UNL     1      50.095   8.255  16.957  0.00  0.00    +0.000 HD
BRANCH  25  28
ATOM     28  C   UNL     1      50.620   5.756  16.991  0.00  0.00    +0.000 A 
ATOM     29  C   UNL     1      50.343   4.853  18.007  0.00  0.00    +0.000 A 
ATOM     30  S   UNL     1      51.739   4.166  18.706  0.00  0.00    +0.000 S 
ATOM     31  C   UNL     1      52.762   5.094  17.712  0.00  0.00    +0.000 A 
ATOM     32  N   UNL     1      54.116   4.995  17.810  0.00  0.00    +0.000 NA
ATOM     33  C   UNL     1      54.767   5.786  17.024  0.00  0.00    +0.000 A 
ATOM     34  N   UNL     1      54.188   6.668  16.148  0.00  0.00    +0.000 N 
ATOM     35  C   UNL     1      52.829   6.770  15.980  0.00  0.00    +0.000 A 
ATOM     36  O   UNL     1      52.345   7.516  15.136  0.00  0.00    +0.000 OA
ATOM     37  C   UNL     1      52.049   5.910  16.851  0.00  0.00    +0.000 A 
ATOM     38  H   UNL     1      54.758   7.252  15.553  0.00  0.00    +0.000 HD
ENDBRANCH  25  28
ENDBRANCH  23  24
ENDBRANCH   1  23
TORSDOF 8
ENDMDL
MODEL 9
REMARK VINA RESULT:    -7.053      4.339      5.847
REMARK INTER + INTRA:         -11.238
REMARK INTER:                  -9.816
REMARK INTRA:                  -1.423
REMARK UNBOUND:                -1.093
REMARK  Name = 
REMARK  8 active torsions:
REMARK  status: ('A' for Active; 'I' for Inactive)
REMARK    1  A    between atoms: N_1  and  C_2
REMARK    2  A    between atoms: C_2  and  C_3
REMARK    3  A    between atoms: C_2  and  C_17
REMARK    4  A    between atoms: C_3  and  N_4
REMARK    5  A    between atoms: C_5  and  C_7
REMARK    6  A    between atoms: C_20  and  C_21
REMARK    7  A    between atoms: C_21  and  N_22
REMARK    8  A    between atoms: C_23  and  C_25
REMARK                            x       y       z     vdW  Elec       q    Type
REMARK                         _______ _______ _______ _____ _____    ______ ____
ROOT
ATOM      1  C   UNL     1      44.773   5.753  12.200  0.00  0.00    +0.000 C 
ENDROOT
BRANCH   1   2
ATOM      2  C   UNL     1      45.816   6.868  12.177  0.00  0.00    +0.000 A 
ATOM      3  C   UNL     1      45.476   8.169  12.549  0.00  0.00    +0.000 A 
ATOM      4  C   UNL     1      46.452   9.161  12.538  0.00  0.00    +0.000 A 
ATOM      5  C   UNL     1      47.759   8.844  12.169  0.00  0.00    +0.000 A 
ATOM      6  C   UNL     1      48.023   7.520  11.851  0.00  0.00    +0.000 A 
ATOM      7  N   UNL     1      47.092   6.538  11.846  0.00  0.00    +0.000 NA
BRANCH   5   8
ATOM      8  C   UNL     1      48.843   9.876  12.152  0.00  0.00    +0.000 C 
BRANCH   8   9
ATOM      9  N   UNL     1      50.018   9.402  11.470  0.00  0.00    +0.000 N 
ATOM     10  C   UNL     1      51.085   8.872  12.160  0.00  0.00    +0.000 C 
ATOM     11  O   UNL     1      51.152   8.853  13.387  0.00  0.00    +0.000 OA
ATOM     12  H   UNL     1      50.025   9.265  10.461  0.00  0.00    +0.000 HD
BRANCH  10  13
ATOM     13  C   UNL     1      52.222   8.354  11.259  0.00  0.00    +0.000 C 
ATOM     14  C   UNL     1      51.655   7.357  10.245  0.00  0.00    +0.000 C 
ATOM     15  C   UNL     1      52.758   6.748   9.385  0.00  0.00    +0.000 C 
ATOM     16  C   UNL     1      53.870   6.178  10.260  0.00  0.00    +0.000 C 
ATOM     17  C   UNL     1      54.365   7.209  11.270  0.00  0.00    +0.000 C 
ATOM     18  N   UNL     1      53.270   7.714  12.101  0.00  0.00    +0.000 NA
ATOM     19  H   UNL     1      53.643   8.425  12.733  0.00  0.00    +0.000 HD
ENDBRANCH  10  13
ENDBRANCH   8   9
ENDBRANCH   5   8
ENDBRANCH   1   2
BRANCH   1  20
ATOM     20  N   UNL     1      44.515   5.178  10.856  0.00  0.00    +0.000 NA
ATOM     21  H   UNL     1      43.537   4.888  10.829  0.00  0.00    +0.000 HD
ATOM     22  H   UNL     1      45.024   4.292  10.800  0.00  0.00    +0.000 HD
ENDBRANCH   1  20
BRANCH   1  23
ATOM     23  C   UNL     1      45.161   4.641  13.212  0.00  0.00    +0.000 C 
BRANCH  23  24
ATOM     24  N   UNL     1      46.063   5.116  14.253  0.00  0.00    +0.000 N 
ATOM     25  C   UNL     1      47.086   4.368  14.773  0.00  0.00    +0.000 C 
ATOM     26  O   UNL     1      47.339   3.234  14.378  0.00  0.00    +0.000 OA
ATOM     27  H   UNL     1      45.782   5.969  14.724  0.00  0.00    +0.000 HD
BRANCH  25  28
ATOM     28  C   UNL     1      47.882   5.016  15.820  0.00  0.00    +0.000 A 
ATOM     29  C   UNL     1      48.589   6.175  15.537  0.00  0.00    +0.000 A 
ATOM     30  S   UNL     1      49.411   6.818  16.887  0.00  0.00    +0.000 S 
ATOM     31  C   UNL     1      48.895   5.537  17.882  0.00  0.00    +0.000 A 
ATOM     32  N   UNL     1      49.264   5.471  19.189  0.00  0.00    +0.000 NA
ATOM     33  C   UNL     1      48.833   4.425  19.813  0.00  0.00    +0.000 A 
ATOM     34  N   UNL     1      48.066   3.439  19.249  0.00  0.00    +0.000 N 
ATOM     35  C   UNL     1      47.630   3.486  17.947  0.00  0.00    +0.000 A 
ATOM     36  O   UNL     1      46.884   2.625  17.493  0.00  0.00    +0.000 OA
ATOM     37  C   UNL     1      48.098   4.637  17.197  0.00  0.00    +0.000 A 
ATOM     38  H   UNL     1      47.754   2.651  19.798  0.00  0.00    +0.000 HD
ENDBRANCH  25  28
ENDBRANCH  23  24
ENDBRANCH   1  23
TORSDOF 8
ENDMDL
