MODEL 1
REMARK VINA RESULT:    -7.812      0.000      0.000
REMARK INTER + INTRA:         -10.983
REMARK INTER:                 -10.780
REMARK INTRA:                  -0.202
REMARK UNBOUND:                -0.202
REMARK  Name = 
REMARK  8 active torsions:
REMARK  status: ('A' for Active; 'I' for Inactive)
REMARK    1  A    between atoms: C_1  and  O_2
REMARK    2  A    between atoms: O_2  and  C_3
REMARK    3  A    between atoms: C_3  and  C_5
REMARK    4  A    between atoms: C_8  and  O_9
REMARK    5  A    between atoms: O_9  and  C_10
REMARK    6  A    between atoms: C_10  and  C_11
REMARK    7  A    between atoms: C_15  and  C_16
REMARK    8  A    between atoms: C_16  and  N_17
REMARK                            x       y       z     vdW  Elec       q    Type
REMARK                         _______ _______ _______ _____ _____    ______ ____
ROOT
ATOM      1  O   UNL     1      43.622   4.706   9.724  0.00  0.00    +0.000 OA
ENDROOT
BRANCH   1   5
ATOM      2  C   UNL     1      46.281   2.132   7.906  0.00  0.00    +0.000 A 
ATOM      3  C   UNL     1      46.366   3.506   7.664  0.00  0.00    +0.000 A 
ATOM      4  C   UNL     1      45.465   4.370   8.289  0.00  0.00    +0.000 A 
ATOM      5  C   UNL     1      44.496   3.827   9.119  0.00  0.00    +0.000 A 
ATOM      6  N   UNL     1      44.396   2.507   9.383  0.00  0.00    +0.000 NA
ATOM      7  C   UNL     1      45.292   1.690   8.776  0.00  0.00    +0.000 A 
BRANCH   2   8
ATOM      8  C   UNL     1      47.171   1.122   7.294  0.00  0.00    +0.000 C 
ATOM      9  O   UNL     1      46.960  -0.079   7.342  0.00  0.00    +0.000 OA
BRANCH   8  11
ATOM     10  C   UNL     1      47.922   2.227   5.378  0.00  0.00    +0.000 C 
ATOM     11  O   UNL     1      48.222   1.723   6.681  0.00  0.00    +0.000 OA
ENDBRANCH   8  11
ENDBRANCH   2   8
ENDBRANCH   1   5
BRANCH   1  12
ATOM     12  C   UNL     1      43.556   4.495  11.136  0.00  0.00    +0.000 C 
BRANCH  12  13
ATOM     13  C   UNL     1      44.723   5.184  11.803  0.00  0.00    +0.000 A 
ATOM     14  C   UNL     1      45.119   6.468  11.412  0.00  0.00    +0.000 A 
ATOM     15  C   UNL     1      46.156   7.118  12.078  0.00  0.00    +0.000 A 
ATOM     16  C   UNL     1      46.801   6.497  13.150  0.00  0.00    +0.000 A 
ATOM     17  C   UNL     1      46.432   5.208  13.559  0.00  0.00    +0.000 A 
ATOM     18  C   UNL     1      45.390   4.561  12.872  0.00  0.00    +0.000 A 
BRANCH  17  19
ATOM     19  C   UNL     1      47.033   4.550  14.778  0.00  0.00    +0.000 C 
BRANCH  19  20
ATOM     20  N   UNL     1      47.470   3.176  14.551  0.00  0.00    +0.000 NA
ATOM     21  H   UNL     1      47.018   2.828  13.706  0.00  0.00    +0.000 HD
ATOM     22  H   UNL     1      47.136   2.594  15.317  0.00  0.00    +0.000 HD
ENDBRANCH  19  20
ENDBRANCH  17  19
ENDBRANCH  12  13
ENDBRANCH   1  12
TORSDOF 7
ENDMDL
MODEL 2
REMARK VINA RESULT:    -7.535      1.366      1.929
REMARK INTER + INTRA:         -10.600
REMARK INTER:                 -10.384
REMARK INTRA:                  -0.216
REMARK UNBOUND:                -0.202
REMARK  Name = 
REMARK  8 active torsions:
REMARK  status: ('A' for Active; 'I' for Inactive)
REMARK    1  A    between atoms: C_1  and  O_2
REMARK    2  A    between atoms: O_2  and  C_3
REMARK    3  A    between atoms: C_3  and  C_5
REMARK    4  A    between atoms: C_8  and  O_9
REMARK    5  A    between atoms: O_9  and  C_10
REMARK    6  A    between atoms: C_10  and  C_11
REMARK    7  A    between atoms: C_15  and  C_16
REMARK    8  A    between atoms: C_16  and  N_17
REMARK                            x       y       z     vdW  Elec       q    Type
REMARK                         _______ _______ _______ _____ _____    ______ ____
ROOT
ATOM      1  O   UNL     1      43.612   4.689   9.774  0.00  0.00    +0.000 OA
ENDROOT
BRANCH   1   5
ATOM      2  C   UNL     1      46.256   2.103   7.950  0.00  0.00    +0.000 A 
ATOM      3  C   UNL     1      46.381   3.481   7.752  0.00  0.00    +0.000 A 
ATOM      4  C   UNL     1      45.484   4.348   8.379  0.00  0.00    +0.000 A 
ATOM      5  C   UNL     1      44.480   3.806   9.166  0.00  0.00    +0.000 A 
ATOM      6  N   UNL     1      44.341   2.481   9.387  0.00  0.00    +0.000 NA
ATOM      7  C   UNL     1      45.232   1.661   8.780  0.00  0.00    +0.000 A 
BRANCH   2   8
ATOM      8  C   UNL     1      47.136   1.089   7.332  0.00  0.00    +0.000 C 
ATOM      9  O   UNL     1      46.924  -0.111   7.386  0.00  0.00    +0.000 OA
BRANCH   8  11
ATOM     10  C   UNL     1      47.868   2.185   5.403  0.00  0.00    +0.000 C 
ATOM     11  O   UNL     1      48.182   1.686   6.704  0.00  0.00    +0.000 OA
ENDBRANCH   8  11
ENDBRANCH   2   8
ENDBRANCH   1   5
BRANCH   1  12
ATOM     12  C   UNL     1      43.361   4.328  11.134  0.00  0.00    +0.000 C 
BRANCH  12  13
ATOM     13  C   UNL     1      44.473   4.857  12.009  0.00  0.00    +0.000 A 
ATOM     14  C   UNL     1      45.370   3.985  12.637  0.00  0.00    +0.000 A 
ATOM     15  C   UNL     1      46.430   4.487  13.389  0.00  0.00    +0.000 A 
ATOM     16  C   UNL     1      46.613   5.866  13.511  0.00  0.00    +0.000 A 
ATOM     17  C   UNL     1      45.726   6.764  12.901  0.00  0.00    +0.000 A 
ATOM     18  C   UNL     1      44.657   6.243  12.152  0.00  0.00    +0.000 A 
BRANCH  17  19
ATOM     19  C   UNL     1      45.954   8.257  12.923  0.00  0.00    +0.000 C 
BRANCH  19  20
ATOM     20  N   UNL     1      46.734   8.717  14.068  0.00  0.00    +0.000 NA
ATOM     21  H   UNL     1      47.193   9.592  13.816  0.00  0.00    +0.000 HD
ATOM     22  H   UNL     1      47.476   8.045  14.252  0.00  0.00    +0.000 HD
ENDBRANCH  19  20
ENDBRANCH  17  19
ENDBRANCH  12  13
ENDBRANCH   1  12
TORSDOF 7
ENDMDL
MODEL 3
REMARK VINA RESULT:    -7.339      2.754      6.518
REMARK INTER + INTRA:         -10.330
REMARK INTER:                  -9.951
REMARK INTRA:                  -0.379
REMARK UNBOUND:                -0.202
REMARK  Name = 
REMARK  8 active torsions:
REMARK  status: ('A' for Active; 'I' for Inactive)
REMARK    1  A    between atoms: C_1  and  O_2
REMARK    2  A    between atoms: O_2  and  C_3
REMARK    3  A    between atoms: C_3  and  C_5
REMARK    4  A    between atoms: C_8  and  O_9
REMARK    5  A    between atoms: O_9  and  C_10
REMARK    6  A    between atoms: C_10  and  C_11
REMARK    7  A    between atoms: C_15  and  C_16
REMARK    8  A    between atoms: C_16  and  N_17
REMARK                            x       y       z     vdW  Elec       q    Type
REMARK                         _______ _______ _______ _____ _____    ______ ____
ROOT
ATOM      1  O   UNL     1      43.698   3.925  11.228  0.00  0.00    +0.000 OA
ENDROOT
BRANCH   1   5
ATOM      2  C   UNL     1      46.685   4.924  13.889  0.00  0.00    +0.000 A 
ATOM      3  C   UNL     1      45.907   5.928  13.306  0.00  0.00    +0.000 A 
ATOM      4  C   UNL     1      44.894   5.579  12.412  0.00  0.00    +0.000 A 
ATOM      5  C   UNL     1      44.708   4.238  12.114  0.00  0.00    +0.000 A 
ATOM      6  N   UNL     1      45.434   3.244  12.668  0.00  0.00    +0.000 NA
ATOM      7  C   UNL     1      46.401   3.607  13.546  0.00  0.00    +0.000 A 
BRANCH   2   8
ATOM      8  C   UNL     1      47.791   5.171  14.839  0.00  0.00    +0.000 C 
ATOM      9  O   UNL     1      48.491   6.170  14.812  0.00  0.00    +0.000 OA
BRANCH   8  11
ATOM     10  C   UNL     1      47.483   4.485  17.050  0.00  0.00    +0.000 C 
ATOM     11  O   UNL     1      47.895   4.148  15.725  0.00  0.00    +0.000 OA
ENDBRANCH   8  11
ENDBRANCH   2   8
ENDBRANCH   1   5
BRANCH   1  12
ATOM     12  C   UNL     1      43.934   2.673  10.580  0.00  0.00    +0.000 C 
BRANCH  12  13
ATOM     13  C   UNL     1      44.826   2.889   9.379  0.00  0.00    +0.000 A 
ATOM     14  C   UNL     1      45.011   4.168   8.843  0.00  0.00    +0.000 A 
ATOM     15  C   UNL     1      45.886   4.364   7.775  0.00  0.00    +0.000 A 
ATOM     16  C   UNL     1      46.593   3.285   7.241  0.00  0.00    +0.000 A 
ATOM     17  C   UNL     1      46.422   1.992   7.751  0.00  0.00    +0.000 A 
ATOM     18  C   UNL     1      45.531   1.808   8.823  0.00  0.00    +0.000 A 
BRANCH  17  19
ATOM     19  C   UNL     1      47.248   0.823   7.270  0.00  0.00    +0.000 C 
BRANCH  19  20
ATOM     20  N   UNL     1      46.764  -0.473   7.736  0.00  0.00    +0.000 NA
ATOM     21  H   UNL     1      45.913  -0.704   7.224  0.00  0.00    +0.000 HD
ATOM     22  H   UNL     1      46.496  -0.391   8.716  0.00  0.00    +0.000 HD
ENDBRANCH  19  20
ENDBRANCH  17  19
ENDBRANCH  12  13
ENDBRANCH   1  12
TORSDOF 7
ENDMDL
MODEL 4
REMARK VINA RESULT:    -7.193      2.824      6.899
REMARK INTER + INTRA:         -10.128
REMARK INTER:                  -9.617
REMARK INTRA:                  -0.511
REMARK UNBOUND:                -0.202
REMARK  Name = 
REMARK  8 active torsions:
REMARK  status: ('A' for Active; 'I' for Inactive)
REMARK    1  A    between atoms: C_1  and  O_2
REMARK    2  A    between atoms: O_2  and  C_3
REMARK    3  A    between atoms: C_3  and  C_5
REMARK    4  A    between atoms: C_8  and  O_9
REMARK    5  A    between atoms: O_9  and  C_10
REMARK    6  A    between atoms: C_10  and  C_11
REMARK    7  A    between atoms: C_15  and  C_16
REMARK    8  A    between atoms: C_16  and  N_17
REMARK                            x       y       z     vdW  Elec       q    Type
REMARK                         _______ _______ _______ _____ _____    ______ ____
ROOT
ATOM      1  O   UNL     1      44.170   3.966  10.585  0.00  0.00    +0.000 OA
ENDROOT
BRANCH   1   5
ATOM      2  C   UNL     1      46.821   6.119  12.896  0.00  0.00    +0.000 A 
ATOM      3  C   UNL     1      46.491   6.568  11.614  0.00  0.00    +0.000 A 
ATOM      4  C   UNL     1      45.588   5.835  10.842  0.00  0.00    +0.000 A 
ATOM      5  C   UNL     1      45.062   4.666  11.371  0.00  0.00    +0.000 A 
ATOM      6  N   UNL     1      45.350   4.213  12.610  0.00  0.00    +0.000 NA
ATOM      7  C   UNL     1      46.218   4.950  13.346  0.00  0.00    +0.000 A 
BRANCH   2   8
ATOM      8  C   UNL     1      47.771   6.803  13.799  0.00  0.00    +0.000 C 
ATOM      9  O   UNL     1      48.056   7.985  13.708  0.00  0.00    +0.000 OA
BRANCH   8  11
ATOM     10  C   UNL     1      48.891   6.569  15.836  0.00  0.00    +0.000 C 
ATOM     11  O   UNL     1      48.256   5.935  14.725  0.00  0.00    +0.000 OA
ENDBRANCH   8  11
ENDBRANCH   2   8
ENDBRANCH   1   5
BRANCH   1  12
ATOM     12  C   UNL     1      44.319   4.291   9.201  0.00  0.00    +0.000 C 
BRANCH  12  13
ATOM     13  C   UNL     1      45.177   3.246   8.528  0.00  0.00    +0.000 A 
ATOM     14  C   UNL     1      45.232   1.937   9.019  0.00  0.00    +0.000 A 
ATOM     15  C   UNL     1      45.977   0.965   8.352  0.00  0.00    +0.000 A 
ATOM     16  C   UNL     1      46.665   1.290   7.181  0.00  0.00    +0.000 A 
ATOM     17  C   UNL     1      46.636   2.595   6.670  0.00  0.00    +0.000 A 
ATOM     18  C   UNL     1      45.887   3.565   7.358  0.00  0.00    +0.000 A 
BRANCH  17  19
ATOM     19  C   UNL     1      47.279   2.955   5.352  0.00  0.00    +0.000 C 
BRANCH  19  20
ATOM     20  N   UNL     1      48.474   2.174   5.045  0.00  0.00    +0.000 NA
ATOM     21  H   UNL     1      48.621   1.501   5.797  0.00  0.00    +0.000 HD
ATOM     22  H   UNL     1      49.282   2.793   5.051  0.00  0.00    +0.000 HD
ENDBRANCH  19  20
ENDBRANCH  17  19
ENDBRANCH  12  13
ENDBRANCH   1  12
TORSDOF 7
ENDMDL
MODEL 5
REMARK VINA RESULT:    -7.116      2.916      6.918
REMARK INTER + INTRA:         -10.022
REMARK INTER:                  -9.599
REMARK INTRA:                  -0.423
REMARK UNBOUND:                -0.202
REMARK  Name = 
REMARK  8 active torsions:
REMARK  status: ('A' for Active; 'I' for Inactive)
REMARK    1  A    between atoms: C_1  and  O_2
REMARK    2  A    between atoms: O_2  and  C_3
REMARK    3  A    between atoms: C_3  and  C_5
REMARK    4  A    between atoms: C_8  and  O_9
REMARK    5  A    between atoms: O_9  and  C_10
REMARK    6  A    between atoms: C_10  and  C_11
REMARK    7  A    between atoms: C_15  and  C_16
REMARK    8  A    between atoms: C_16  and  N_17
REMARK                            x       y       z     vdW  Elec       q    Type
REMARK                         _______ _______ _______ _____ _____    ______ ____
ROOT
ATOM      1  O   UNL     1      44.957   5.334   9.911  0.00  0.00    +0.000 OA
ENDROOT
BRANCH   1   5
ATOM      2  C   UNL     1      46.649   4.796  13.632  0.00  0.00    +0.000 A 
ATOM      3  C   UNL     1      45.679   3.900  13.173  0.00  0.00    +0.000 A 
ATOM      4  C   UNL     1      45.117   4.088  11.909  0.00  0.00    +0.000 A 
ATOM      5  C   UNL     1      45.529   5.177  11.157  0.00  0.00    +0.000 A 
ATOM      6  N   UNL     1      46.472   6.052  11.567  0.00  0.00    +0.000 NA
ATOM      7  C   UNL     1      47.014   5.840  12.792  0.00  0.00    +0.000 A 
BRANCH   2   8
ATOM      8  C   UNL     1      47.305   4.706  14.955  0.00  0.00    +0.000 C 
ATOM      9  O   UNL     1      48.211   5.442  15.309  0.00  0.00    +0.000 OA
BRANCH   8  11
ATOM     10  C   UNL     1      47.234   3.651  17.037  0.00  0.00    +0.000 C 
ATOM     11  O   UNL     1      46.751   3.712  15.694  0.00  0.00    +0.000 OA
ENDBRANCH   8  11
ENDBRANCH   2   8
ENDBRANCH   1   5
BRANCH   1  12
ATOM     12  C   UNL     1      44.226   4.171   9.516  0.00  0.00    +0.000 C 
BRANCH  12  13
ATOM     13  C   UNL     1      45.132   3.250   8.731  0.00  0.00    +0.000 A 
ATOM     14  C   UNL     1      45.234   1.893   9.058  0.00  0.00    +0.000 A 
ATOM     15  C   UNL     1      46.023   1.041   8.287  0.00  0.00    +0.000 A 
ATOM     16  C   UNL     1      46.708   1.534   7.174  0.00  0.00    +0.000 A 
ATOM     17  C   UNL     1      46.632   2.890   6.828  0.00  0.00    +0.000 A 
ATOM     18  C   UNL     1      45.838   3.738   7.619  0.00  0.00    +0.000 A 
BRANCH  17  19
ATOM     19  C   UNL     1      47.271   3.435   5.573  0.00  0.00    +0.000 C 
BRANCH  19  20
ATOM     20  N   UNL     1      48.251   2.535   4.972  0.00  0.00    +0.000 NA
ATOM     21  H   UNL     1      48.933   3.094   4.460  0.00  0.00    +0.000 HD
ATOM     22  H   UNL     1      47.782   1.951   4.282  0.00  0.00    +0.000 HD
ENDBRANCH  19  20
ENDBRANCH  17  19
ENDBRANCH  12  13
ENDBRANCH   1  12
TORSDOF 7
ENDMDL
MODEL 6
REMARK VINA RESULT:    -6.562      2.804      6.539
REMARK INTER + INTRA:          -9.257
REMARK INTER:                  -8.950
REMARK INTRA:                  -0.308
REMARK UNBOUND:                -0.202
REMARK  Name = 
REMARK  8 active torsions:
REMARK  status: ('A' for Active; 'I' for Inactive)
REMARK    1  A    between atoms: C_1  and  O_2
REMARK    2  A    between atoms: O_2  and  C_3
REMARK    3  A    between atoms: C_3  and  C_5
REMARK    4  A    between atoms: C_8  and  O_9
REMARK    5  A    between atoms: O_9  and  C_10
REMARK    6  A    between atoms: C_10  and  C_11
REMARK    7  A    between atoms: C_15  and  C_16
REMARK    8  A    between atoms: C_16  and  N_17
REMARK                            x       y       z     vdW  Elec       q    Type
REMARK                         _______ _______ _______ _____ _____    ______ ____
ROOT
ATOM      1  O   UNL     1      44.516   3.073  12.204  0.00  0.00    +0.000 OA
ENDROOT
BRANCH   1   5
ATOM      2  C   UNL     1      45.909   6.912  12.770  0.00  0.00    +0.000 A 
ATOM      3  C   UNL     1      46.811   5.844  12.724  0.00  0.00    +0.000 A 
ATOM      4  C   UNL     1      46.329   4.549  12.526  0.00  0.00    +0.000 A 
ATOM      5  C   UNL     1      44.961   4.364  12.402  0.00  0.00    +0.000 A 
ATOM      6  N   UNL     1      44.066   5.375  12.429  0.00  0.00    +0.000 NA
ATOM      7  C   UNL     1      44.559   6.625  12.608  0.00  0.00    +0.000 A 
BRANCH   2   8
ATOM      8  C   UNL     1      46.299   8.322  12.986  0.00  0.00    +0.000 C 
ATOM      9  O   UNL     1      46.831   8.725  14.007  0.00  0.00    +0.000 OA
BRANCH   8  11
ATOM     10  C   UNL     1      44.946  10.023  12.130  0.00  0.00    +0.000 C 
ATOM     11  O   UNL     1      45.988   9.073  11.899  0.00  0.00    +0.000 OA
ENDBRANCH   8  11
ENDBRANCH   2   8
ENDBRANCH   1   5
BRANCH   1  12
ATOM     12  C   UNL     1      43.692   2.972  11.041  0.00  0.00    +0.000 C 
BRANCH  12  13
ATOM     13  C   UNL     1      44.549   3.103   9.803  0.00  0.00    +0.000 A 
ATOM     14  C   UNL     1      44.780   4.353   9.219  0.00  0.00    +0.000 A 
ATOM     15  C   UNL     1      45.624   4.470   8.116  0.00  0.00    +0.000 A 
ATOM     16  C   UNL     1      46.255   3.339   7.593  0.00  0.00    +0.000 A 
ATOM     17  C   UNL     1      46.036   2.073   8.151  0.00  0.00    +0.000 A 
ATOM     18  C   UNL     1      45.176   1.970   9.259  0.00  0.00    +0.000 A 
BRANCH  17  19
ATOM     19  C   UNL     1      46.783   0.847   7.680  0.00  0.00    +0.000 C 
BRANCH  19  20
ATOM     20  N   UNL     1      47.905   1.146   6.795  0.00  0.00    +0.000 NA
ATOM     21  H   UNL     1      47.611   0.980   5.833  0.00  0.00    +0.000 HD
ATOM     22  H   UNL     1      48.657   0.485   6.983  0.00  0.00    +0.000 HD
ENDBRANCH  19  20
ENDBRANCH  17  19
ENDBRANCH  12  13
ENDBRANCH   1  12
TORSDOF 7
ENDMDL
MODEL 7
REMARK VINA RESULT:    -6.334      1.670      2.008
REMARK INTER + INTRA:          -8.942
REMARK INTER:                  -8.455
REMARK INTRA:                  -0.487
REMARK UNBOUND:                -0.202
REMARK  Name = 
REMARK  8 active torsions:
REMARK  status: ('A' for Active; 'I' for Inactive)
REMARK    1  A    between atoms: C_1  and  O_2
REMARK    2  A    between atoms: O_2  and  C_3
REMARK    3  A    between atoms: C_3  and  C_5
REMARK    4  A    between atoms: C_8  and  O_9
REMARK    5  A    between atoms: O_9  and  C_10
REMARK    6  A    between atoms: C_10  and  C_11
REMARK    7  A    between atoms: C_15  and  C_16
REMARK    8  A    between atoms: C_16  and  N_17
REMARK                            x       y       z     vdW  Elec       q    Type
REMARK                         _______ _______ _______ _____ _____    ______ ____
ROOT
ATOM      1  O   UNL     1      43.421   5.450  11.213  0.00  0.00    +0.000 OA
ENDROOT
BRANCH   1   5
ATOM      2  C   UNL     1      45.464   2.840   8.761  0.00  0.00    +0.000 A 
ATOM      3  C   UNL     1      45.695   4.215   8.661  0.00  0.00    +0.000 A 
ATOM      4  C   UNL     1      45.003   5.090   9.500  0.00  0.00    +0.000 A 
ATOM      5  C   UNL     1      44.087   4.561  10.395  0.00  0.00    +0.000 A 
ATOM      6  N   UNL     1      43.850   3.238  10.525  0.00  0.00    +0.000 NA
ATOM      7  C   UNL     1      44.546   2.408   9.710  0.00  0.00    +0.000 A 
BRANCH   2   8
ATOM      8  C   UNL     1      46.127   1.820   7.920  0.00  0.00    +0.000 C 
ATOM      9  O   UNL     1      46.199   0.641   8.222  0.00  0.00    +0.000 OA
BRANCH   8  11
ATOM     10  C   UNL     1      48.013   2.145   6.581  0.00  0.00    +0.000 C 
ATOM     11  O   UNL     1      46.620   2.385   6.788  0.00  0.00    +0.000 OA
ENDBRANCH   8  11
ENDBRANCH   2   8
ENDBRANCH   1   5
BRANCH   1  12
ATOM     12  C   UNL     1      44.051   5.566  12.490  0.00  0.00    +0.000 C 
BRANCH  12  13
ATOM     13  C   UNL     1      45.184   6.561  12.404  0.00  0.00    +0.000 A 
ATOM     14  C   UNL     1      44.929   7.931  12.275  0.00  0.00    +0.000 A 
ATOM     15  C   UNL     1      45.981   8.845  12.261  0.00  0.00    +0.000 A 
ATOM     16  C   UNL     1      47.299   8.400  12.387  0.00  0.00    +0.000 A 
ATOM     17  C   UNL     1      47.586   7.034  12.509  0.00  0.00    +0.000 A 
ATOM     18  C   UNL     1      46.515   6.124  12.514  0.00  0.00    +0.000 A 
BRANCH  17  19
ATOM     19  C   UNL     1      48.988   6.527  12.754  0.00  0.00    +0.000 C 
BRANCH  19  20
ATOM     20  N   UNL     1      49.580   7.012  13.998  0.00  0.00    +0.000 NA
ATOM     21  H   UNL     1      49.972   7.938  13.830  0.00  0.00    +0.000 HD
ATOM     22  H   UNL     1      50.363   6.409  14.245  0.00  0.00    +0.000 HD
ENDBRANCH  19  20
ENDBRANCH  17  19
ENDBRANCH  12  13
ENDBRANCH   1  12
TORSDOF 7
ENDMDL
MODEL 8
REMARK VINA RESULT:    -6.277      4.141      6.894
REMARK INTER + INTRA:          -8.864
REMARK INTER:                  -8.391
REMARK INTRA:                  -0.473
REMARK UNBOUND:                -0.202
REMARK  Name = 
REMARK  8 active torsions:
REMARK  status: ('A' for Active; 'I' for Inactive)
REMARK    1  A    between atoms: C_1  and  O_2
REMARK    2  A    between atoms: O_2  and  C_3
REMARK    3  A    between atoms: C_3  and  C_5
REMARK    4  A    between atoms: C_8  and  O_9
REMARK    5  A    between atoms: O_9  and  C_10
REMARK    6  A    between atoms: C_10  and  C_11
REMARK    7  A    between atoms: C_15  and  C_16
REMARK    8  A    between atoms: C_16  and  N_17
REMARK                            x       y       z     vdW  Elec       q    Type
REMARK                         _______ _______ _______ _____ _____    ______ ____
ROOT
ATOM      1  O   UNL     1      47.868   2.931  15.021  0.00  0.00    +0.000 OA
ENDROOT
BRANCH   1   5
ATOM      2  C   UNL     1      45.619   5.418  12.622  0.00  0.00    +0.000 A 
ATOM      3  C   UNL     1      46.571   5.962  13.489  0.00  0.00    +0.000 A 
ATOM      4  C   UNL     1      47.331   5.110  14.293  0.00  0.00    +0.000 A 
ATOM      5  C   UNL     1      47.099   3.746  14.217  0.00  0.00    +0.000 A 
ATOM      6  N   UNL     1      46.197   3.189  13.380  0.00  0.00    +0.000 NA
ATOM      7  C   UNL     1      45.481   4.035  12.599  0.00  0.00    +0.000 A 
BRANCH   2   8
ATOM      8  C   UNL     1      44.749   6.218  11.733  0.00  0.00    +0.000 C 
ATOM      9  O   UNL     1      44.876   7.420  11.569  0.00  0.00    +0.000 OA
BRANCH   8  11
ATOM     10  C   UNL     1      42.482   5.677  11.575  0.00  0.00    +0.000 C 
ATOM     11  O   UNL     1      43.819   5.426  11.140  0.00  0.00    +0.000 OA
ENDBRANCH   8  11
ENDBRANCH   2   8
ENDBRANCH   1   5
BRANCH   1  12
ATOM     12  C   UNL     1      47.741   3.281  16.401  0.00  0.00    +0.000 C 
BRANCH  12  13
ATOM     13  C   UNL     1      49.116   3.468  17.001  0.00  0.00    +0.000 A 
ATOM     14  C   UNL     1      49.466   4.666  17.634  0.00  0.00    +0.000 A 
ATOM     15  C   UNL     1      50.714   4.803  18.240  0.00  0.00    +0.000 A 
ATOM     16  C   UNL     1      51.620   3.740  18.229  0.00  0.00    +0.000 A 
ATOM     17  C   UNL     1      51.301   2.532  17.594  0.00  0.00    +0.000 A 
ATOM     18  C   UNL     1      50.042   2.411  16.981  0.00  0.00    +0.000 A 
BRANCH  17  19
ATOM     19  C   UNL     1      52.211   1.328  17.655  0.00  0.00    +0.000 C 
BRANCH  19  20
ATOM     20  N   UNL     1      51.558   0.120  18.152  0.00  0.00    +0.000 NA
ATOM     21  H   UNL     1      50.549   0.264  18.125  0.00  0.00    +0.000 HD
ATOM     22  H   UNL     1      51.805  -0.007  19.131  0.00  0.00    +0.000 HD
ENDBRANCH  19  20
ENDBRANCH  17  19
ENDBRANCH  12  13
ENDBRANCH   1  12
TORSDOF 7
ENDMDL
MODEL 9
REMARK VINA RESULT:    -6.027      2.454      3.355
REMARK INTER + INTRA:          -8.519
REMARK INTER:                  -7.935
REMARK INTRA:                  -0.584
REMARK UNBOUND:                -0.202
REMARK  Name = 
REMARK  8 active torsions:
REMARK  status: ('A' for Active; 'I' for Inactive)
REMARK    1  A    between atoms: C_1  and  O_2
REMARK    2  A    between atoms: O_2  and  C_3
REMARK    3  A    between atoms: C_3  and  C_5
REMARK    4  A    between atoms: C_8  and  O_9
REMARK    5  A    between atoms: O_9  and  C_10
REMARK    6  A    between atoms: C_10  and  C_11
REMARK    7  A    between atoms: C_15  and  C_16
REMARK    8  A    between atoms: C_16  and  N_17
REMARK                            x       y       z     vdW  Elec       q    Type
REMARK                         _______ _______ _______ _____ _____    ______ ____
ROOT
ATOM      1  O   UNL     1      44.129   5.769  12.025  0.00  0.00    +0.000 OA
ENDROOT
BRANCH   1   5
ATOM      2  C   UNL     1      45.484   3.374   8.955  0.00  0.00    +0.000 A 
ATOM      3  C   UNL     1      45.728   4.750   8.924  0.00  0.00    +0.000 A 
ATOM      4  C   UNL     1      45.271   5.551   9.971  0.00  0.00    +0.000 A 
ATOM      5  C   UNL     1      44.566   4.951  11.003  0.00  0.00    +0.000 A 
ATOM      6  N   UNL     1      44.325   3.624  11.069  0.00  0.00    +0.000 NA
ATOM      7  C   UNL     1      44.792   2.865  10.048  0.00  0.00    +0.000 A 
BRANCH   2   8
ATOM      8  C   UNL     1      45.909   2.428   7.900  0.00  0.00    +0.000 C 
ATOM      9  O   UNL     1      46.155   2.764   6.754  0.00  0.00    +0.000 OA
BRANCH   8  11
ATOM     10  C   UNL     1      46.819   0.295   7.629  0.00  0.00    +0.000 C 
ATOM     11  O   UNL     1      45.987   1.167   8.395  0.00  0.00    +0.000 OA
ENDBRANCH   8  11
ENDBRANCH   2   8
ENDBRANCH   1   5
BRANCH   1  12
ATOM     12  C   UNL     1      44.976   5.676  13.173  0.00  0.00    +0.000 C 
BRANCH  12  13
ATOM     13  C   UNL     1      46.203   6.533  12.963  0.00  0.00    +0.000 A 
ATOM     14  C   UNL     1      47.484   5.972  12.990  0.00  0.00    +0.000 A 
ATOM     15  C   UNL     1      48.604   6.761  12.731  0.00  0.00    +0.000 A 
ATOM     16  C   UNL     1      48.453   8.117  12.433  0.00  0.00    +0.000 A 
ATOM     17  C   UNL     1      47.183   8.709  12.409  0.00  0.00    +0.000 A 
ATOM     18  C   UNL     1      46.064   7.902  12.678  0.00  0.00    +0.000 A 
BRANCH  17  19
ATOM     19  C   UNL     1      46.975  10.144  11.986  0.00  0.00    +0.000 C 
BRANCH  19  20
ATOM     20  N   UNL     1      47.427  11.121  12.973  0.00  0.00    +0.000 NA
ATOM     21  H   UNL     1      46.819  11.937  12.921  0.00  0.00    +0.000 HD
ATOM     22  H   UNL     1      48.359  11.439  12.716  0.00  0.00    +0.000 HD
ENDBRANCH  19  20
ENDBRANCH  17  19
ENDBRANCH  12  13
ENDBRANCH   1  12
TORSDOF 7
ENDMDL
