MODEL 1
REMARK VINA RESULT:    -8.169      0.000      0.000
REMARK INTER + INTRA:         -11.473
REMARK INTER:                 -10.557
REMARK INTRA:                  -0.916
REMARK UNBOUND:                -0.916
REMARK  Name = 
REMARK  5 active torsions:
REMARK  status: ('A' for Active; 'I' for Inactive)
REMARK    1  A    between atoms: C_2  and  C_4
REMARK    2  A    between atoms: C_7  and  O_8
REMARK    3  A    between atoms: O_8  and  C_9
REMARK    4  A    between atoms: C_9  and  C_10
REMARK    5  A    between atoms: C_15  and  N_16
REMARK                            x       y       z     vdW  Elec       q    Type
REMARK                         _______ _______ _______ _____ _____    ______ ____
ROOT
ATOM      1  C   UNL     1      43.806   5.214  10.580  0.00  0.00    +0.000 C 
ENDROOT
BRANCH   1   2
ATOM      2  C   UNL     1      44.812   5.259  11.711  0.00  0.00    +0.000 A 
ATOM      3  C   UNL     1      44.706   4.339  12.752  0.00  0.00    +0.000 A 
ATOM      4  C   UNL     1      45.599   4.390  13.816  0.00  0.00    +0.000 A 
ATOM      5  C   UNL     1      46.617   5.356  13.854  0.00  0.00    +0.000 A 
ATOM      6 CL   UNL     1      47.740   5.157  15.164  0.00  0.00    +0.000 Cl
ATOM      7  C   UNL     1      46.750   6.334  12.839  0.00  0.00    +0.000 A 
ATOM      8  C   UNL     1      45.802   6.257  11.789  0.00  0.00    +0.000 A 
BRANCH   7   9
ATOM      9  N   UNL     1      47.740   7.308  12.789  0.00  0.00    +0.000 N 
ATOM     10  C   UNL     1      47.469   8.703  13.152  0.00  0.00    +0.000 C 
ATOM     11  C   UNL     1      47.968   9.615  12.029  0.00  0.00    +0.000 C 
ATOM     12  C   UNL     1      49.429   9.341  11.675  0.00  0.00    +0.000 C 
ATOM     13  C   UNL     1      49.671   7.854  11.413  0.00  0.00    +0.000 C 
ATOM     14  C   UNL     1      49.159   7.007  12.581  0.00  0.00    +0.000 C 
ENDBRANCH   7   9
ENDBRANCH   1   2
BRANCH   1  15
ATOM     15  O   UNL     1      43.574   3.878  10.119  0.00  0.00    +0.000 OA
BRANCH  15  19
ATOM     16  C   UNL     1      46.502   2.624   7.495  0.00  0.00    +0.000 A 
ATOM     17  C   UNL     1      45.923   1.704   8.373  0.00  0.00    +0.000 A 
ATOM     18  C   UNL     1      44.929   2.138   9.257  0.00  0.00    +0.000 A 
ATOM     19  C   UNL     1      44.551   3.474   9.229  0.00  0.00    +0.000 A 
ATOM     20  N   UNL     1      45.099   4.381   8.390  0.00  0.00    +0.000 NA
ATOM     21  C   UNL     1      46.066   3.940   7.550  0.00  0.00    +0.000 A 
BRANCH  16  23
ATOM     22  N   UNL     1      47.726   3.094   5.445  0.00  0.00    +0.000 N 
ATOM     23  C   UNL     1      47.580   2.292   6.541  0.00  0.00    +0.000 C 
ATOM     24  O   UNL     1      48.342   1.358   6.744  0.00  0.00    +0.000 OA
ATOM     25  H   UNL     1      48.542   2.913   4.872  0.00  0.00    +0.000 HD
ATOM     26  H   UNL     1      47.298   4.005   5.373  0.00  0.00    +0.000 HD
ENDBRANCH  16  23
ENDBRANCH  15  19
ENDBRANCH   1  15
TORSDOF 5
ENDMDL
MODEL 2
REMARK VINA RESULT:    -8.044      1.763      2.404
REMARK INTER + INTRA:         -11.311
REMARK INTER:                 -10.301
REMARK INTRA:                  -1.010
REMARK UNBOUND:                -0.916
REMARK  Name = 
REMARK  5 active torsions:
REMARK  status: ('A' for Active; 'I' for Inactive)
REMARK    1  A    between atoms: C_2  and  C_4
REMARK    2  A    between atoms: C_7  and  O_8
REMARK    3  A    between atoms: O_8  and  C_9
REMARK    4  A    between atoms: C_9  and  C_10
REMARK    5  A    between atoms: C_15  and  N_16
REMARK                            x       y       z     vdW  Elec       q    Type
REMARK                         _______ _______ _______ _____ _____    ______ ____
ROOT
ATOM      1  C   UNL     1      44.078   4.239  11.567  0.00  0.00    +0.000 C 
ENDROOT
BRANCH   1   2
ATOM      2  C   UNL     1      44.792   5.551  11.819  0.00  0.00    +0.000 A 
ATOM      3  C   UNL     1      44.188   6.742  11.419  0.00  0.00    +0.000 A 
ATOM      4  C   UNL     1      44.846   7.951  11.610  0.00  0.00    +0.000 A 
ATOM      5  C   UNL     1      46.114   7.993  12.210  0.00  0.00    +0.000 A 
ATOM      6 CL   UNL     1      46.702   9.596  12.526  0.00  0.00    +0.000 Cl
ATOM      7  C   UNL     1      46.787   6.810  12.605  0.00  0.00    +0.000 A 
ATOM      8  C   UNL     1      46.087   5.602  12.367  0.00  0.00    +0.000 A 
BRANCH   7   9
ATOM      9  N   UNL     1      48.030   6.764  13.225  0.00  0.00    +0.000 N 
ATOM     10  C   UNL     1      48.194   6.244  14.586  0.00  0.00    +0.000 C 
ATOM     11  C   UNL     1      48.974   7.264  15.418  0.00  0.00    +0.000 C 
ATOM     12  C   UNL     1      50.287   7.666  14.748  0.00  0.00    +0.000 C 
ATOM     13  C   UNL     1      50.063   8.097  13.297  0.00  0.00    +0.000 C 
ATOM     14  C   UNL     1      49.291   7.025  12.526  0.00  0.00    +0.000 C 
ENDBRANCH   7   9
ENDBRANCH   1   2
BRANCH   1  15
ATOM     15  O   UNL     1      43.601   4.136  10.221  0.00  0.00    +0.000 OA
BRANCH  15  19
ATOM     16  C   UNL     1      46.400   2.414   7.723  0.00  0.00    +0.000 A 
ATOM     17  C   UNL     1      46.165   3.790   7.651  0.00  0.00    +0.000 A 
ATOM     18  C   UNL     1      45.216   4.365   8.504  0.00  0.00    +0.000 A 
ATOM     19  C   UNL     1      44.540   3.544   9.396  0.00  0.00    +0.000 A 
ATOM     20  N   UNL     1      44.750   2.212   9.482  0.00  0.00    +0.000 NA
ATOM     21  C   UNL     1      45.666   1.676   8.640  0.00  0.00    +0.000 A 
BRANCH  16  23
ATOM     22  N   UNL     1      48.466   2.360   6.440  0.00  0.00    +0.000 N 
ATOM     23  C   UNL     1      47.350   1.691   6.855  0.00  0.00    +0.000 C 
ATOM     24  O   UNL     1      47.168   0.521   6.550  0.00  0.00    +0.000 OA
ATOM     25  H   UNL     1      49.154   1.804   5.944  0.00  0.00    +0.000 HD
ATOM     26  H   UNL     1      48.780   3.218   6.868  0.00  0.00    +0.000 HD
ENDBRANCH  16  23
ENDBRANCH  15  19
ENDBRANCH   1  15
TORSDOF 5
ENDMDL
MODEL 3
REMARK VINA RESULT:    -7.871      1.944      3.121
REMARK INTER + INTRA:         -11.088
REMARK INTER:                 -10.546
REMARK INTRA:                  -0.542
REMARK UNBOUND:                -0.916
REMARK  Name = 
REMARK  5 active torsions:
REMARK  status: ('A' for Active; 'I' for Inactive)
REMARK    1  A    between atoms: C_2  and  C_4
REMARK    2  A    between atoms: C_7  and  O_8
REMARK    3  A    between atoms: O_8  and  C_9
REMARK    4  A    between atoms: C_9  and  C_10
REMARK    5  A    between atoms: C_15  and  N_16
REMARK                            x       y       z     vdW  Elec       q    Type
REMARK                         _______ _______ _______ _____ _____    ______ ____
ROOT
ATOM      1  C   UNL     1      43.865   3.944  11.481  0.00  0.00    +0.000 C 
ENDROOT
BRANCH   1   2
ATOM      2  C   UNL     1      44.717   5.045  12.078  0.00  0.00    +0.000 A 
ATOM      3  C   UNL     1      44.580   6.346  11.598  0.00  0.00    +0.000 A 
ATOM      4  C   UNL     1      45.380   7.362  12.110  0.00  0.00    +0.000 A 
ATOM      5  C   UNL     1      46.325   7.095  13.114  0.00  0.00    +0.000 A 
ATOM      6 CL   UNL     1      47.105   8.509  13.752  0.00  0.00    +0.000 Cl
ATOM      7  C   UNL     1      46.527   5.785  13.613  0.00  0.00    +0.000 A 
ATOM      8  C   UNL     1      45.706   4.781  13.043  0.00  0.00    +0.000 A 
BRANCH   7   9
ATOM      9  N   UNL     1      47.422   5.440  14.619  0.00  0.00    +0.000 N 
ATOM     10  C   UNL     1      47.317   4.168  15.341  0.00  0.00    +0.000 C 
ATOM     11  C   UNL     1      47.342   4.446  16.845  0.00  0.00    +0.000 C 
ATOM     12  C   UNL     1      48.548   5.291  17.253  0.00  0.00    +0.000 C 
ATOM     13  C   UNL     1      48.664   6.550  16.391  0.00  0.00    +0.000 C 
ATOM     14  C   UNL     1      48.646   6.193  14.904  0.00  0.00    +0.000 C 
ENDBRANCH   7   9
ENDBRANCH   1   2
BRANCH   1  15
ATOM     15  O   UNL     1      43.596   4.165  10.092  0.00  0.00    +0.000 OA
BRANCH  15  19
ATOM     16  C   UNL     1      46.465   2.456   7.667  0.00  0.00    +0.000 A 
ATOM     17  C   UNL     1      46.218   3.828   7.581  0.00  0.00    +0.000 A 
ATOM     18  C   UNL     1      45.246   4.400   8.409  0.00  0.00    +0.000 A 
ATOM     19  C   UNL     1      44.558   3.577   9.292  0.00  0.00    +0.000 A 
ATOM     20  N   UNL     1      44.779   2.248   9.390  0.00  0.00    +0.000 NA
ATOM     21  C   UNL     1      45.718   1.716   8.572  0.00  0.00    +0.000 A 
BRANCH  16  23
ATOM     22  N   UNL     1      48.532   2.430   6.384  0.00  0.00    +0.000 N 
ATOM     23  C   UNL     1      47.441   1.736   6.824  0.00  0.00    +0.000 C 
ATOM     24  O   UNL     1      47.301   0.551   6.560  0.00  0.00    +0.000 OA
ATOM     25  H   UNL     1      49.240   1.882   5.907  0.00  0.00    +0.000 HD
ATOM     26  H   UNL     1      48.815   3.313   6.780  0.00  0.00    +0.000 HD
ENDBRANCH  16  23
ENDBRANCH  15  19
ENDBRANCH   1  15
TORSDOF 5
ENDMDL
MODEL 4
REMARK VINA RESULT:    -6.397      5.666      8.448
REMARK INTER + INTRA:          -9.183
REMARK INTER:                  -8.391
REMARK INTRA:                  -0.792
REMARK UNBOUND:                -0.916
REMARK  Name = 
REMARK  5 active torsions:
REMARK  status: ('A' for Active; 'I' for Inactive)
REMARK    1  A    between atoms: C_2  and  C_4
REMARK    2  A    between atoms: C_7  and  O_8
REMARK    3  A    between atoms: O_8  and  C_9
REMARK    4  A    between atoms: C_9  and  C_10
REMARK    5  A    between atoms: C_15  and  N_16
REMARK                            x       y       z     vdW  Elec       q    Type
REMARK                         _______ _______ _______ _____ _____    ______ ____
ROOT
ATOM      1  C   UNL     1      48.134   4.316  16.837  0.00  0.00    +0.000 C 
ENDROOT
BRANCH   1   2
ATOM      2  C   UNL     1      47.723   4.996  15.548  0.00  0.00    +0.000 A 
ATOM      3  C   UNL     1      48.397   6.146  15.141  0.00  0.00    +0.000 A 
ATOM      4  C   UNL     1      48.009   6.803  13.979  0.00  0.00    +0.000 A 
ATOM      5  C   UNL     1      46.945   6.319  13.201  0.00  0.00    +0.000 A 
ATOM      6 CL   UNL     1      46.717   7.164  11.701  0.00  0.00    +0.000 Cl
ATOM      7  C   UNL     1      46.205   5.174  13.586  0.00  0.00    +0.000 A 
ATOM      8  C   UNL     1      46.623   4.554  14.789  0.00  0.00    +0.000 A 
BRANCH   7   9
ATOM      9  N   UNL     1      45.157   4.618  12.864  0.00  0.00    +0.000 N 
ATOM     10  C   UNL     1      45.290   3.325  12.184  0.00  0.00    +0.000 C 
ATOM     11  C   UNL     1      44.838   3.479  10.730  0.00  0.00    +0.000 C 
ATOM     12  C   UNL     1      43.442   4.091  10.625  0.00  0.00    +0.000 C 
ATOM     13  C   UNL     1      43.335   5.380  11.443  0.00  0.00    +0.000 C 
ATOM     14  C   UNL     1      43.791   5.146  12.886  0.00  0.00    +0.000 C 
ENDBRANCH   7   9
ENDBRANCH   1   2
BRANCH   1  15
ATOM     15  O   UNL     1      49.384   4.810  17.331  0.00  0.00    +0.000 OA
BRANCH  15  19
ATOM     16  C   UNL     1      52.205   1.820  17.699  0.00  0.00    +0.000 A 
ATOM     17  C   UNL     1      52.517   3.118  18.112  0.00  0.00    +0.000 A 
ATOM     18  C   UNL     1      51.553   4.124  17.987  0.00  0.00    +0.000 A 
ATOM     19  C   UNL     1      50.314   3.795  17.453  0.00  0.00    +0.000 A 
ATOM     20  N   UNL     1      49.992   2.548  17.045  0.00  0.00    +0.000 NA
ATOM     21  C   UNL     1      50.944   1.592  17.168  0.00  0.00    +0.000 A 
BRANCH  16  23
ATOM     22  N   UNL     1      52.745  -0.446  18.402  0.00  0.00    +0.000 N 
ATOM     23  C   UNL     1      53.149   0.686  17.752  0.00  0.00    +0.000 C 
ATOM     24  O   UNL     1      54.238   0.738  17.199  0.00  0.00    +0.000 OA
ATOM     25  H   UNL     1      53.363  -1.245  18.323  0.00  0.00    +0.000 HD
ATOM     26  H   UNL     1      51.781  -0.624  18.642  0.00  0.00    +0.000 HD
ENDBRANCH  16  23
ENDBRANCH  15  19
ENDBRANCH   1  15
TORSDOF 5
ENDMDL
MODEL 5
REMARK VINA RESULT:    -6.183      4.563      5.876
REMARK INTER + INTRA:          -8.907
REMARK INTER:                  -8.182
REMARK INTRA:                  -0.725
REMARK UNBOUND:                -0.916
REMARK  Name = 
REMARK  5 active torsions:
REMARK  status: ('A' for Active; 'I' for Inactive)
REMARK    1  A    between atoms: C_2  and  C_4
REMARK    2  A    between atoms: C_7  and  O_8
REMARK    3  A    between atoms: O_8  and  C_9
REMARK    4  A    between atoms: C_9  and  C_10
REMARK    5  A    between atoms: C_15  and  N_16
REMARK                            x       y       z     vdW  Elec       q    Type
REMARK                         _______ _______ _______ _____ _____    ______ ____
ROOT
ATOM      1  C   UNL     1      47.305   3.736  15.017  0.00  0.00    +0.000 C 
ENDROOT
BRANCH   1   2
ATOM      2  C   UNL     1      47.763   3.983  16.439  0.00  0.00    +0.000 A 
ATOM      3  C   UNL     1      47.960   2.895  17.288  0.00  0.00    +0.000 A 
ATOM      4  C   UNL     1      48.345   3.105  18.607  0.00  0.00    +0.000 A 
ATOM      5  C   UNL     1      48.547   4.405  19.098  0.00  0.00    +0.000 A 
ATOM      6 CL   UNL     1      49.193   4.466  20.709  0.00  0.00    +0.000 Cl
ATOM      7  C   UNL     1      48.329   5.546  18.288  0.00  0.00    +0.000 A 
ATOM      8  C   UNL     1      47.914   5.281  16.960  0.00  0.00    +0.000 A 
BRANCH   7   9
ATOM      9  N   UNL     1      48.527   6.862  18.688  0.00  0.00    +0.000 N 
ATOM     10  C   UNL     1      49.859   7.476  18.685  0.00  0.00    +0.000 C 
ATOM     11  C   UNL     1      50.114   8.116  20.051  0.00  0.00    +0.000 C 
ATOM     12  C   UNL     1      48.994   9.072  20.455  0.00  0.00    +0.000 C 
ATOM     13  C   UNL     1      47.622   8.407  20.334  0.00  0.00    +0.000 C 
ATOM     14  C   UNL     1      47.433   7.803  18.941  0.00  0.00    +0.000 C 
ENDBRANCH   7   9
ENDBRANCH   1   2
BRANCH   1  15
ATOM     15  O   UNL     1      46.106   4.455  14.706  0.00  0.00    +0.000 OA
BRANCH  15  19
ATOM     16  C   UNL     1      45.430   4.634  10.638  0.00  0.00    +0.000 A 
ATOM     17  C   UNL     1      45.855   5.779  11.318  0.00  0.00    +0.000 A 
ATOM     18  C   UNL     1      46.084   5.708  12.697  0.00  0.00    +0.000 A 
ATOM     19  C   UNL     1      45.882   4.495  13.342  0.00  0.00    +0.000 A 
ATOM     20  N   UNL     1      45.470   3.377  12.705  0.00  0.00    +0.000 NA
ATOM     21  C   UNL     1      45.245   3.472  11.373  0.00  0.00    +0.000 A 
BRANCH  16  23
ATOM     22  N   UNL     1      43.846   4.294   8.824  0.00  0.00    +0.000 N 
ATOM     23  C   UNL     1      45.126   4.595   9.194  0.00  0.00    +0.000 C 
ATOM     24  O   UNL     1      45.976   4.862   8.357  0.00  0.00    +0.000 OA
ATOM     25  H   UNL     1      43.639   4.388   7.836  0.00  0.00    +0.000 HD
ATOM     26  H   UNL     1      43.069   4.322   9.467  0.00  0.00    +0.000 HD
ENDBRANCH  16  23
ENDBRANCH  15  19
ENDBRANCH   1  15
TORSDOF 5
ENDMDL
MODEL 6
REMARK VINA RESULT:    -6.150      3.383      5.818
REMARK INTER + INTRA:          -8.864
REMARK INTER:                  -8.060
REMARK INTRA:                  -0.804
REMARK UNBOUND:                -0.916
REMARK  Name = 
REMARK  5 active torsions:
REMARK  status: ('A' for Active; 'I' for Inactive)
REMARK    1  A    between atoms: C_2  and  C_4
REMARK    2  A    between atoms: C_7  and  O_8
REMARK    3  A    between atoms: O_8  and  C_9
REMARK    4  A    between atoms: C_9  and  C_10
REMARK    5  A    between atoms: C_15  and  N_16
REMARK                            x       y       z     vdW  Elec       q    Type
REMARK                         _______ _______ _______ _____ _____    ______ ____
ROOT
ATOM      1  C   UNL     1      47.804   7.517  12.768  0.00  0.00    +0.000 C 
ENDROOT
BRANCH   1   2
ATOM      2  C   UNL     1      48.489   7.525  14.118  0.00  0.00    +0.000 A 
ATOM      3  C   UNL     1      49.292   8.610  14.465  0.00  0.00    +0.000 A 
ATOM      4  C   UNL     1      49.958   8.618  15.686  0.00  0.00    +0.000 A 
ATOM      5  C   UNL     1      49.826   7.545  16.582  0.00  0.00    +0.000 A 
ATOM      6 CL   UNL     1      50.585   7.807  18.122  0.00  0.00    +0.000 Cl
ATOM      7  C   UNL     1      49.049   6.404  16.265  0.00  0.00    +0.000 A 
ATOM      8  C   UNL     1      48.411   6.433  15.001  0.00  0.00    +0.000 A 
BRANCH   7   9
ATOM      9  N   UNL     1      48.849   5.314  17.103  0.00  0.00    +0.000 N 
ATOM     10  C   UNL     1      49.964   4.482  17.566  0.00  0.00    +0.000 C 
ATOM     11  C   UNL     1      49.636   3.013  17.292  0.00  0.00    +0.000 C 
ATOM     12  C   UNL     1      48.283   2.609  17.873  0.00  0.00    +0.000 C 
ATOM     13  C   UNL     1      47.180   3.577  17.442  0.00  0.00    +0.000 C 
ATOM     14  C   UNL     1      47.571   5.023  17.758  0.00  0.00    +0.000 C 
ENDBRANCH   7   9
ENDBRANCH   1   2
BRANCH   1  15
ATOM     15  O   UNL     1      46.377   7.556  12.888  0.00  0.00    +0.000 OA
BRANCH  15  19
ATOM     16  C   UNL     1      44.639   4.129  11.382  0.00  0.00    +0.000 A 
ATOM     17  C   UNL     1      45.177   5.073  10.503  0.00  0.00    +0.000 A 
ATOM     18  C   UNL     1      45.767   6.230  11.023  0.00  0.00    +0.000 A 
ATOM     19  C   UNL     1      45.797   6.399  12.401  0.00  0.00    +0.000 A 
ATOM     20  N   UNL     1      45.282   5.501  13.269  0.00  0.00    +0.000 NA
ATOM     21  C   UNL     1      44.707   4.393  12.742  0.00  0.00    +0.000 A 
BRANCH  16  23
ATOM     22  N   UNL     1      44.508   2.200   9.904  0.00  0.00    +0.000 N 
ATOM     23  C   UNL     1      43.964   2.888  10.952  0.00  0.00    +0.000 C 
ATOM     24  O   UNL     1      42.976   2.467  11.536  0.00  0.00    +0.000 OA
ATOM     25  H   UNL     1      44.092   1.297   9.707  0.00  0.00    +0.000 HD
ATOM     26  H   UNL     1      45.444   2.366   9.568  0.00  0.00    +0.000 HD
ENDBRANCH  16  23
ENDBRANCH  15  19
ENDBRANCH   1  15
TORSDOF 5
ENDMDL
MODEL 7
REMARK VINA RESULT:    -6.112      4.205      6.686
REMARK INTER + INTRA:          -8.815
REMARK INTER:                  -7.888
REMARK INTRA:                  -0.927
REMARK UNBOUND:                -0.916
REMARK  Name = 
REMARK  5 active torsions:
REMARK  status: ('A' for Active; 'I' for Inactive)
REMARK    1  A    between atoms: C_2  and  C_4
REMARK    2  A    between atoms: C_7  and  O_8
REMARK    3  A    between atoms: O_8  and  C_9
REMARK    4  A    between atoms: C_9  and  C_10
REMARK    5  A    between atoms: C_15  and  N_16
REMARK                            x       y       z     vdW  Elec       q    Type
REMARK                         _______ _______ _______ _____ _____    ______ ____
ROOT
ATOM      1  C   UNL     1      48.902   7.739  13.445  0.00  0.00    +0.000 C 
ENDROOT
BRANCH   1   2
ATOM      2  C   UNL     1      48.835   7.532  14.944  0.00  0.00    +0.000 A 
ATOM      3  C   UNL     1      48.514   8.611  15.766  0.00  0.00    +0.000 A 
ATOM      4  C   UNL     1      48.484   8.446  17.146  0.00  0.00    +0.000 A 
ATOM      5  C   UNL     1      48.768   7.200  17.727  0.00  0.00    +0.000 A 
ATOM      6 CL   UNL     1      48.511   7.139  19.443  0.00  0.00    +0.000 Cl
ATOM      7  C   UNL     1      49.132   6.080  16.940  0.00  0.00    +0.000 A 
ATOM      8  C   UNL     1      49.173   6.304  15.542  0.00  0.00    +0.000 A 
BRANCH   7   9
ATOM      9  N   UNL     1      49.406   4.810  17.433  0.00  0.00    +0.000 N 
ATOM     10  C   UNL     1      50.679   4.495  18.088  0.00  0.00    +0.000 C 
ATOM     11  C   UNL     1      51.273   3.240  17.444  0.00  0.00    +0.000 C 
ATOM     12  C   UNL     1      50.281   2.078  17.431  0.00  0.00    +0.000 C 
ATOM     13  C   UNL     1      48.937   2.500  16.835  0.00  0.00    +0.000 C 
ATOM     14  C   UNL     1      48.400   3.750  17.535  0.00  0.00    +0.000 C 
ENDBRANCH   7   9
ENDBRANCH   1   2
BRANCH   1  15
ATOM     15  O   UNL     1      48.605   6.540  12.722  0.00  0.00    +0.000 OA
BRANCH  15  19
ATOM     16  C   UNL     1      44.539   5.836  12.661  0.00  0.00    +0.000 A 
ATOM     17  C   UNL     1      45.038   7.039  12.156  0.00  0.00    +0.000 A 
ATOM     18  C   UNL     1      46.418   7.268  12.178  0.00  0.00    +0.000 A 
ATOM     19  C   UNL     1      47.246   6.285  12.703  0.00  0.00    +0.000 A 
ATOM     20  N   UNL     1      46.785   5.115  13.198  0.00  0.00    +0.000 NA
ATOM     21  C   UNL     1      45.445   4.920  13.175  0.00  0.00    +0.000 A 
BRANCH  16  23
ATOM     22  N   UNL     1      42.278   6.058  11.788  0.00  0.00    +0.000 N 
ATOM     23  C   UNL     1      43.103   5.496  12.721  0.00  0.00    +0.000 C 
ATOM     24  O   UNL     1      42.670   4.708  13.550  0.00  0.00    +0.000 OA
ATOM     25  H   UNL     1      41.323   5.718  11.782  0.00  0.00    +0.000 HD
ATOM     26  H   UNL     1      42.622   6.498  10.948  0.00  0.00    +0.000 HD
ENDBRANCH  16  23
ENDBRANCH  15  19
ENDBRANCH   1  15
TORSDOF 5
ENDMDL
MODEL 8
REMARK VINA RESULT:    -5.950      3.294      5.667
REMARK INTER + INTRA:          -8.605
REMARK INTER:                  -7.818
REMARK INTRA:                  -0.787
REMARK UNBOUND:                -0.916
REMARK  Name = 
REMARK  5 active torsions:
REMARK  status: ('A' for Active; 'I' for Inactive)
REMARK    1  A    between atoms: C_2  and  C_4
REMARK    2  A    between atoms: C_7  and  O_8
REMARK    3  A    between atoms: O_8  and  C_9
REMARK    4  A    between atoms: C_9  and  C_10
REMARK    5  A    between atoms: C_15  and  N_16
REMARK                            x       y       z     vdW  Elec       q    Type
REMARK                         _______ _______ _______ _____ _____    ______ ____
ROOT
ATOM      1  C   UNL     1      47.645   7.790  12.393  0.00  0.00    +0.000 C 
ENDROOT
BRANCH   1   2
ATOM      2  C   UNL     1      48.704   7.677  13.470  0.00  0.00    +0.000 A 
ATOM      3  C   UNL     1      50.006   8.089  13.189  0.00  0.00    +0.000 A 
ATOM      4  C   UNL     1      50.998   7.958  14.154  0.00  0.00    +0.000 A 
ATOM      5  C   UNL     1      50.705   7.419  15.417  0.00  0.00    +0.000 A 
ATOM      6 CL   UNL     1      52.021   7.495  16.547  0.00  0.00    +0.000 Cl
ATOM      7  C   UNL     1      49.407   6.955  15.743  0.00  0.00    +0.000 A 
ATOM      8  C   UNL     1      48.437   7.087  14.720  0.00  0.00    +0.000 A 
BRANCH   7   9
ATOM      9  N   UNL     1      49.029   6.432  16.974  0.00  0.00    +0.000 N 
ATOM     10  C   UNL     1      48.777   4.999  17.157  0.00  0.00    +0.000 C 
ATOM     11  C   UNL     1      47.415   4.816  17.830  0.00  0.00    +0.000 C 
ATOM     12  C   UNL     1      47.295   5.634  19.115  0.00  0.00    +0.000 C 
ATOM     13  C   UNL     1      47.675   7.098  18.882  0.00  0.00    +0.000 C 
ATOM     14  C   UNL     1      49.051   7.202  18.220  0.00  0.00    +0.000 C 
ENDBRANCH   7   9
ENDBRANCH   1   2
BRANCH   1  15
ATOM     15  O   UNL     1      46.325   7.601  12.915  0.00  0.00    +0.000 OA
BRANCH  15  19
ATOM     16  C   UNL     1      44.612   4.157  11.419  0.00  0.00    +0.000 A 
ATOM     17  C   UNL     1      45.172   5.086  10.540  0.00  0.00    +0.000 A 
ATOM     18  C   UNL     1      45.754   6.250  11.056  0.00  0.00    +0.000 A 
ATOM     19  C   UNL     1      45.753   6.439  12.431  0.00  0.00    +0.000 A 
ATOM     20  N   UNL     1      45.215   5.555  13.300  0.00  0.00    +0.000 NA
ATOM     21  C   UNL     1      44.650   4.441  12.777  0.00  0.00    +0.000 A 
BRANCH  16  23
ATOM     22  N   UNL     1      44.509   2.207   9.967  0.00  0.00    +0.000 N 
ATOM     23  C   UNL     1      43.943   2.912  10.992  0.00  0.00    +0.000 C 
ATOM     24  O   UNL     1      42.941   2.501  11.560  0.00  0.00    +0.000 OA
ATOM     25  H   UNL     1      44.096   1.302   9.774  0.00  0.00    +0.000 HD
ATOM     26  H   UNL     1      45.453   2.366   9.650  0.00  0.00    +0.000 HD
ENDBRANCH  16  23
ENDBRANCH  15  19
ENDBRANCH   1  15
TORSDOF 5
ENDMDL
MODEL 9
REMARK VINA RESULT:    -5.821      4.268      8.185
REMARK INTER + INTRA:          -8.439
REMARK INTER:                  -7.500
REMARK INTRA:                  -0.938
REMARK UNBOUND:                -0.916
REMARK  Name = 
REMARK  5 active torsions:
REMARK  status: ('A' for Active; 'I' for Inactive)
REMARK    1  A    between atoms: C_2  and  C_4
REMARK    2  A    between atoms: C_7  and  O_8
REMARK    3  A    between atoms: O_8  and  C_9
REMARK    4  A    between atoms: C_9  and  C_10
REMARK    5  A    between atoms: C_15  and  N_16
REMARK                            x       y       z     vdW  Elec       q    Type
REMARK                         _______ _______ _______ _____ _____    ______ ____
ROOT
ATOM      1  C   UNL     1      48.911   7.034  13.092  0.00  0.00    +0.000 C 
ENDROOT
BRANCH   1   2
ATOM      2  C   UNL     1      47.522   7.365  12.590  0.00  0.00    +0.000 A 
ATOM      3  C   UNL     1      47.174   8.698  12.379  0.00  0.00    +0.000 A 
ATOM      4  C   UNL     1      45.891   9.021  11.953  0.00  0.00    +0.000 A 
ATOM      5  C   UNL     1      44.936   8.018  11.724  0.00  0.00    +0.000 A 
ATOM      6 CL   UNL     1      43.451   8.592  11.030  0.00  0.00    +0.000 Cl
ATOM      7  C   UNL     1      45.226   6.651  11.955  0.00  0.00    +0.000 A 
ATOM      8  C   UNL     1      46.538   6.374  12.411  0.00  0.00    +0.000 A 
BRANCH   7   9
ATOM      9  N   UNL     1      44.349   5.597  11.732  0.00  0.00    +0.000 N 
ATOM     10  C   UNL     1      43.310   5.241  12.704  0.00  0.00    +0.000 C 
ATOM     11  C   UNL     1      43.396   3.741  12.997  0.00  0.00    +0.000 C 
ATOM     12  C   UNL     1      43.361   2.904  11.720  0.00  0.00    +0.000 C 
ATOM     13  C   UNL     1      44.394   3.393  10.703  0.00  0.00    +0.000 C 
ATOM     14  C   UNL     1      44.238   4.895  10.451  0.00  0.00    +0.000 C 
ENDBRANCH   7   9
ENDBRANCH   1   2
BRANCH   1  15
ATOM     15  O   UNL     1      49.274   7.823  14.231  0.00  0.00    +0.000 OA
BRANCH  15  19
ATOM     16  C   UNL     1      48.396   5.924  17.789  0.00  0.00    +0.000 A 
ATOM     17  C   UNL     1      48.571   7.310  17.772  0.00  0.00    +0.000 A 
ATOM     18  C   UNL     1      48.866   7.946  16.560  0.00  0.00    +0.000 A 
ATOM     19  C   UNL     1      48.973   7.171  15.413  0.00  0.00    +0.000 A 
ATOM     20  N   UNL     1      48.809   5.830  15.406  0.00  0.00    +0.000 NA
ATOM     21  C   UNL     1      48.534   5.236  16.592  0.00  0.00    +0.000 A 
BRANCH  16  23
ATOM     22  N   UNL     1      47.778   3.826  18.854  0.00  0.00    +0.000 N 
ATOM     23  C   UNL     1      48.115   5.140  19.008  0.00  0.00    +0.000 C 
ATOM     24  O   UNL     1      48.219   5.637  20.121  0.00  0.00    +0.000 OA
ATOM     25  H   UNL     1      47.705   3.286  19.709  0.00  0.00    +0.000 HD
ATOM     26  H   UNL     1      47.929   3.319  17.995  0.00  0.00    +0.000 HD
ENDBRANCH  16  23
ENDBRANCH  15  19
ENDBRANCH   1  15
TORSDOF 5
ENDMDL
