MODEL 1
REMARK VINA RESULT:    -7.614      0.000      0.000
REMARK INTER + INTRA:         -11.837
REMARK INTER:                 -10.952
REMARK INTRA:                  -0.885
REMARK UNBOUND:                -0.885
REMARK  Name = 
REMARK  11 active torsions:
REMARK  status: ('A' for Active; 'I' for Inactive)
REMARK    1  A    between atoms: C_1  and  C_2
REMARK    2  A    between atoms: C_5  and  O_6
REMARK    3  A    between atoms: O_6  and  C_7
REMARK    4  A    between atoms: C_11  and  C_12
REMARK    5  A    between atoms: C_12  and  C_13
REMARK    6  A    between atoms: C_12  and  C_14
REMARK    7  A    between atoms: C_12  and  C_15
REMARK    8  A    between atoms: C_15  and  N_16
REMARK    9  A    between atoms: N_16  and  C_17
REMARK   10  A    between atoms: C_20  and  S_21
REMARK   11  A    between atoms: S_21  and  N_22
REMARK                            x       y       z     vdW  Elec       q    Type
REMARK                         _______ _______ _______ _____ _____    ______ ____
ROOT
ATOM      1  C   UNL     1      44.354   4.715  12.470  0.00  0.00    +0.000 C 
ATOM      2  C   UNL     1      44.477   3.171  12.496  0.00  0.00    +0.000 C 
ATOM      3  C   UNL     1      43.345   5.117  13.572  0.00  0.00    +0.000 C 
ENDROOT
BRANCH   1   8
ATOM      4  C   UNL     1      47.655   5.754  14.216  0.00  0.00    +0.000 A 
ATOM      5  C   UNL     1      48.219   6.623  13.290  0.00  0.00    +0.000 A 
ATOM      6  C   UNL     1      47.536   6.905  12.109  0.00  0.00    +0.000 A 
ATOM      7  C   UNL     1      46.296   6.314  11.847  0.00  0.00    +0.000 A 
ATOM      8  C   UNL     1      45.701   5.426  12.761  0.00  0.00    +0.000 A 
ATOM      9  C   UNL     1      46.402   5.182  13.963  0.00  0.00    +0.000 A 
BRANCH   4  10
ATOM     10  O   UNL     1      48.240   5.414  15.413  0.00  0.00    +0.000 OA
BRANCH  10  15
ATOM     11  C   UNL     1      48.909   2.074  16.536  0.00  0.00    +0.000 C 
ATOM     12  C   UNL     1      48.636   3.486  17.019  0.00  0.00    +0.000 C 
ATOM     13  N   UNL     1      47.664   3.499  18.137  0.00  0.00    +0.000 NA
ATOM     14  C   UNL     1      47.047   4.712  17.570  0.00  0.00    +0.000 C 
ATOM     15  C   UNL     1      47.640   4.345  16.187  0.00  0.00    +0.000 C 
ATOM     16  H   UNL     1      48.081   3.625  19.059  0.00  0.00    +0.000 HD
ENDBRANCH  10  15
ENDBRANCH   4  10
ENDBRANCH   1   8
BRANCH   1  17
ATOM     17  C   UNL     1      43.830   5.156  11.068  0.00  0.00    +0.000 C 
BRANCH  17  18
ATOM     18  N   UNL     1      43.582   4.025  10.163  0.00  0.00    +0.000 N 
ATOM     19  H   UNL     1      42.679   4.030   9.698  0.00  0.00    +0.000 HD
BRANCH  18  20
ATOM     20  C   UNL     1      44.600   3.550   9.332  0.00  0.00    +0.000 A 
ATOM     21  C   UNL     1      44.838   2.188   9.112  0.00  0.00    +0.000 A 
ATOM     22  C   UNL     1      45.785   1.758   8.180  0.00  0.00    +0.000 A 
ATOM     23  C   UNL     1      46.481   2.700   7.425  0.00  0.00    +0.000 A 
ATOM     24  C   UNL     1      46.274   4.063   7.628  0.00  0.00    +0.000 A 
ATOM     25  C   UNL     1      45.328   4.479   8.569  0.00  0.00    +0.000 A 
BRANCH  23  26
ATOM     26  S   UNL     1      47.597   2.153   6.170  0.00  0.00    +0.000 S 
ATOM     27  O   UNL     1      47.886   0.749   6.366  0.00  0.00    +0.000 OA
ATOM     28  O   UNL     1      47.190   2.692   4.897  0.00  0.00    +0.000 OA
BRANCH  26  29
ATOM     29  N   UNL     1      48.991   2.981   6.602  0.00  0.00    +0.000 NA
ATOM     30  H   UNL     1      49.083   3.017   7.616  0.00  0.00    +0.000 HD
ATOM     31  H   UNL     1      49.799   2.593   6.115  0.00  0.00    +0.000 HD
ENDBRANCH  26  29
ENDBRANCH  23  26
ENDBRANCH  18  20
ENDBRANCH  17  18
ENDBRANCH   1  17
TORSDOF 8
ENDMDL
MODEL 2
REMARK VINA RESULT:    -7.170      3.333      8.797
REMARK INTER + INTRA:         -11.199
REMARK INTER:                 -10.767
REMARK INTRA:                  -0.432
REMARK UNBOUND:                -0.885
REMARK  Name = 
REMARK  11 active torsions:
REMARK  status: ('A' for Active; 'I' for Inactive)
REMARK    1  A    between atoms: C_1  and  C_2
REMARK    2  A    between atoms: C_5  and  O_6
REMARK    3  A    between atoms: O_6  and  C_7
REMARK    4  A    between atoms: C_11  and  C_12
REMARK    5  A    between atoms: C_12  and  C_13
REMARK    6  A    between atoms: C_12  and  C_14
REMARK    7  A    between atoms: C_12  and  C_15
REMARK    8  A    between atoms: C_15  and  N_16
REMARK    9  A    between atoms: N_16  and  C_17
REMARK   10  A    between atoms: C_20  and  S_21
REMARK   11  A    between atoms: S_21  and  N_22
REMARK                            x       y       z     vdW  Elec       q    Type
REMARK                         _______ _______ _______ _____ _____    ______ ____
ROOT
ATOM      1  C   UNL     1      46.010   6.721  11.865  0.00  0.00    +0.000 C 
ATOM      2  C   UNL     1      47.487   7.035  11.517  0.00  0.00    +0.000 C 
ATOM      3  C   UNL     1      45.220   8.047  11.763  0.00  0.00    +0.000 C 
ENDROOT
BRANCH   1   8
ATOM      4  C   UNL     1      45.450   4.449   8.775  0.00  0.00    +0.000 A 
ATOM      5  C   UNL     1      44.296   3.757   9.122  0.00  0.00    +0.000 A 
ATOM      6  C   UNL     1      43.672   4.029  10.337  0.00  0.00    +0.000 A 
ATOM      7  C   UNL     1      44.202   4.984  11.210  0.00  0.00    +0.000 A 
ATOM      8  C   UNL     1      45.371   5.698  10.891  0.00  0.00    +0.000 A 
ATOM      9  C   UNL     1      45.966   5.423   9.640  0.00  0.00    +0.000 A 
BRANCH   4  10
ATOM     10  O   UNL     1      46.139   4.263   7.600  0.00  0.00    +0.000 OA
BRANCH  10  15
ATOM     11  C   UNL     1      47.849   2.373   5.076  0.00  0.00    +0.000 C 
ATOM     12  C   UNL     1      47.636   2.486   6.573  0.00  0.00    +0.000 C 
ATOM     13  N   UNL     1      47.409   1.158   7.190  0.00  0.00    +0.000 NA
ATOM     14  C   UNL     1      46.391   1.757   8.074  0.00  0.00    +0.000 C 
ATOM     15  C   UNL     1      46.223   2.918   7.064  0.00  0.00    +0.000 C 
ATOM     16  H   UNL     1      48.219   0.772   7.674  0.00  0.00    +0.000 HD
ENDBRANCH  10  15
ENDBRANCH   4  10
ENDBRANCH   1   8
BRANCH   1  17
ATOM     17  C   UNL     1      45.944   6.161  13.320  0.00  0.00    +0.000 C 
BRANCH  17  18
ATOM     18  N   UNL     1      46.996   5.177  13.609  0.00  0.00    +0.000 N 
ATOM     19  H   UNL     1      47.704   5.075  12.888  0.00  0.00    +0.000 HD
BRANCH  18  20
ATOM     20  C   UNL     1      47.534   5.076  14.894  0.00  0.00    +0.000 A 
ATOM     21  C   UNL     1      48.327   6.073  15.475  0.00  0.00    +0.000 A 
ATOM     22  C   UNL     1      48.743   5.986  16.805  0.00  0.00    +0.000 A 
ATOM     23  C   UNL     1      48.332   4.906  17.584  0.00  0.00    +0.000 A 
ATOM     24  C   UNL     1      47.551   3.892  17.031  0.00  0.00    +0.000 A 
ATOM     25  C   UNL     1      47.147   3.990  15.697  0.00  0.00    +0.000 A 
BRANCH  23  26
ATOM     26  S   UNL     1      48.767   4.854  19.295  0.00  0.00    +0.000 S 
ATOM     27  O   UNL     1      50.204   4.947  19.426  0.00  0.00    +0.000 OA
ATOM     28  O   UNL     1      47.862   5.689  20.046  0.00  0.00    +0.000 OA
BRANCH  26  29
ATOM     29  N   UNL     1      48.365   3.270  19.676  0.00  0.00    +0.000 NA
ATOM     30  H   UNL     1      48.081   2.764  18.839  0.00  0.00    +0.000 HD
ATOM     31  H   UNL     1      49.119   2.831  20.205  0.00  0.00    +0.000 HD
ENDBRANCH  26  29
ENDBRANCH  23  26
ENDBRANCH  18  20
ENDBRANCH  17  18
ENDBRANCH   1  17
TORSDOF 8
ENDMDL
MODEL 3
REMARK VINA RESULT:    -6.968      4.009      6.058
REMARK INTER + INTRA:         -10.908
REMARK INTER:                  -9.462
REMARK INTRA:                  -1.446
REMARK UNBOUND:                -0.885
REMARK  Name = 
REMARK  11 active torsions:
REMARK  status: ('A' for Active; 'I' for Inactive)
REMARK    1  A    between atoms: C_1  and  C_2
REMARK    2  A    between atoms: C_5  and  O_6
REMARK    3  A    between atoms: O_6  and  C_7
REMARK    4  A    between atoms: C_11  and  C_12
REMARK    5  A    between atoms: C_12  and  C_13
REMARK    6  A    between atoms: C_12  and  C_14
REMARK    7  A    between atoms: C_12  and  C_15
REMARK    8  A    between atoms: C_15  and  N_16
REMARK    9  A    between atoms: N_16  and  C_17
REMARK   10  A    between atoms: C_20  and  S_21
REMARK   11  A    between atoms: S_21  and  N_22
REMARK                            x       y       z     vdW  Elec       q    Type
REMARK                         _______ _______ _______ _____ _____    ______ ____
ROOT
ATOM      1  C   UNL     1      49.613   8.492  15.446  0.00  0.00    +0.000 C 
ATOM      2  C   UNL     1      50.151   9.920  15.712  0.00  0.00    +0.000 C 
ATOM      3  C   UNL     1      50.827   7.597  15.102  0.00  0.00    +0.000 C 
ENDROOT
BRANCH   1   8
ATOM      4  C   UNL     1      48.314   5.923  18.041  0.00  0.00    +0.000 A 
ATOM      5  C   UNL     1      47.684   6.737  18.974  0.00  0.00    +0.000 A 
ATOM      6  C   UNL     1      47.646   8.114  18.768  0.00  0.00    +0.000 A 
ATOM      7  C   UNL     1      48.244   8.681  17.638  0.00  0.00    +0.000 A 
ATOM      8  C   UNL     1      48.894   7.885  16.678  0.00  0.00    +0.000 A 
ATOM      9  C   UNL     1      48.892   6.490  16.898  0.00  0.00    +0.000 A 
BRANCH   4  10
ATOM     10  O   UNL     1      48.403   4.555  18.144  0.00  0.00    +0.000 OA
BRANCH  10  15
ATOM     11  C   UNL     1      51.307   2.575  17.430  0.00  0.00    +0.000 C 
ATOM     12  C   UNL     1      49.791   2.535  17.475  0.00  0.00    +0.000 C 
ATOM     13  N   UNL     1      49.230   1.858  16.283  0.00  0.00    +0.000 NA
ATOM     14  C   UNL     1      48.142   2.853  16.246  0.00  0.00    +0.000 C 
ATOM     15  C   UNL     1      49.030   3.827  17.058  0.00  0.00    +0.000 C 
ATOM     16  H   UNL     1      48.924   0.899  16.446  0.00  0.00    +0.000 HD
ENDBRANCH  10  15
ENDBRANCH   4  10
ENDBRANCH   1   8
BRANCH   1  17
ATOM     17  C   UNL     1      48.620   8.544  14.242  0.00  0.00    +0.000 C 
BRANCH  17  18
ATOM     18  N   UNL     1      48.743   7.388  13.343  0.00  0.00    +0.000 N 
ATOM     19  H   UNL     1      49.588   6.837  13.458  0.00  0.00    +0.000 HD
BRANCH  18  20
ATOM     20  C   UNL     1      47.630   6.593  13.060  0.00  0.00    +0.000 A 
ATOM     21  C   UNL     1      47.327   5.419  13.761  0.00  0.00    +0.000 A 
ATOM     22  C   UNL     1      46.140   4.720  13.527  0.00  0.00    +0.000 A 
ATOM     23  C   UNL     1      45.220   5.218  12.607  0.00  0.00    +0.000 A 
ATOM     24  C   UNL     1      45.498   6.379  11.886  0.00  0.00    +0.000 A 
ATOM     25  C   UNL     1      46.692   7.064  12.126  0.00  0.00    +0.000 A 
BRANCH  23  26
ATOM     26  S   UNL     1      43.673   4.394  12.394  0.00  0.00    +0.000 S 
ATOM     27  O   UNL     1      43.221   4.571  11.032  0.00  0.00    +0.000 OA
ATOM     28  O   UNL     1      43.724   3.103  13.035  0.00  0.00    +0.000 OA
BRANCH  26  29
ATOM     29  N   UNL     1      42.672   5.346  13.346  0.00  0.00    +0.000 NA
ATOM     30  H   UNL     1      41.892   4.796  13.703  0.00  0.00    +0.000 HD
ATOM     31  H   UNL     1      43.217   5.828  14.061  0.00  0.00    +0.000 HD
ENDBRANCH  26  29
ENDBRANCH  23  26
ENDBRANCH  18  20
ENDBRANCH  17  18
ENDBRANCH   1  17
TORSDOF 8
ENDMDL
MODEL 4
REMARK VINA RESULT:    -6.922      3.838      5.896
REMARK INTER + INTRA:         -10.842
REMARK INTER:                  -9.488
REMARK INTRA:                  -1.353
REMARK UNBOUND:                -0.885
REMARK  Name = 
REMARK  11 active torsions:
REMARK  status: ('A' for Active; 'I' for Inactive)
REMARK    1  A    between atoms: C_1  and  C_2
REMARK    2  A    between atoms: C_5  and  O_6
REMARK    3  A    between atoms: O_6  and  C_7
REMARK    4  A    between atoms: C_11  and  C_12
REMARK    5  A    between atoms: C_12  and  C_13
REMARK    6  A    between atoms: C_12  and  C_14
REMARK    7  A    between atoms: C_12  and  C_15
REMARK    8  A    between atoms: C_15  and  N_16
REMARK    9  A    between atoms: N_16  and  C_17
REMARK   10  A    between atoms: C_20  and  S_21
REMARK   11  A    between atoms: S_21  and  N_22
REMARK                            x       y       z     vdW  Elec       q    Type
REMARK                         _______ _______ _______ _____ _____    ______ ____
ROOT
ATOM      1  C   UNL     1      49.643   8.747  14.214  0.00  0.00    +0.000 C 
ATOM      2  C   UNL     1      48.232   9.082  14.760  0.00  0.00    +0.000 C 
ATOM      3  C   UNL     1      50.408  10.083  14.061  0.00  0.00    +0.000 C 
ENDROOT
BRANCH   1   8
ATOM      4  C   UNL     1      50.496   6.112  16.925  0.00  0.00    +0.000 A 
ATOM      5  C   UNL     1      51.883   6.061  16.862  0.00  0.00    +0.000 A 
ATOM      6  C   UNL     1      52.561   6.888  15.969  0.00  0.00    +0.000 A 
ATOM      7  C   UNL     1      51.855   7.759  15.133  0.00  0.00    +0.000 A 
ATOM      8  C   UNL     1      50.451   7.831  15.168  0.00  0.00    +0.000 A 
ATOM      9  C   UNL     1      49.793   7.002  16.103  0.00  0.00    +0.000 A 
BRANCH   4  10
ATOM     10  O   UNL     1      49.732   5.344  17.773  0.00  0.00    +0.000 OA
BRANCH  10  15
ATOM     11  C   UNL     1      48.534   2.257  16.397  0.00  0.00    +0.000 C 
ATOM     12  C   UNL     1      48.351   3.224  17.550  0.00  0.00    +0.000 C 
ATOM     13  N   UNL     1      46.917   3.476  17.825  0.00  0.00    +0.000 NA
ATOM     14  C   UNL     1      47.228   4.896  18.077  0.00  0.00    +0.000 C 
ATOM     15  C   UNL     1      48.524   4.741  17.245  0.00  0.00    +0.000 C 
ATOM     16  H   UNL     1      46.545   2.972  18.630  0.00  0.00    +0.000 HD
ENDBRANCH  10  15
ENDBRANCH   4  10
ENDBRANCH   1   8
BRANCH   1  17
ATOM     17  C   UNL     1      49.494   8.046  12.828  0.00  0.00    +0.000 C 
BRANCH  17  18
ATOM     18  N   UNL     1      49.134   6.626  12.935  0.00  0.00    +0.000 N 
ATOM     19  H   UNL     1      49.641   6.102  13.643  0.00  0.00    +0.000 HD
BRANCH  18  20
ATOM     20  C   UNL     1      47.798   6.227  12.841  0.00  0.00    +0.000 A 
ATOM     21  C   UNL     1      46.961   6.596  11.781  0.00  0.00    +0.000 A 
ATOM     22  C   UNL     1      45.669   6.076  11.662  0.00  0.00    +0.000 A 
ATOM     23  C   UNL     1      45.217   5.143  12.592  0.00  0.00    +0.000 A 
ATOM     24  C   UNL     1      46.023   4.764  13.664  0.00  0.00    +0.000 A 
ATOM     25  C   UNL     1      47.310   5.297  13.774  0.00  0.00    +0.000 A 
BRANCH  23  26
ATOM     26  S   UNL     1      43.627   4.405  12.377  0.00  0.00    +0.000 S 
ATOM     27  O   UNL     1      43.180   4.618  11.018  0.00  0.00    +0.000 OA
ATOM     28  O   UNL     1      43.611   3.108  13.006  0.00  0.00    +0.000 OA
BRANCH  26  29
ATOM     29  N   UNL     1      42.681   5.401  13.341  0.00  0.00    +0.000 NA
ATOM     30  H   UNL     1      42.011   4.848  13.874  0.00  0.00    +0.000 HD
ATOM     31  H   UNL     1      43.272   6.013  13.904  0.00  0.00    +0.000 HD
ENDBRANCH  26  29
ENDBRANCH  23  26
ENDBRANCH  18  20
ENDBRANCH  17  18
ENDBRANCH   1  17
TORSDOF 8
ENDMDL
MODEL 5
REMARK VINA RESULT:    -6.875      2.761      3.241
REMARK INTER + INTRA:         -10.773
REMARK INTER:                  -9.700
REMARK INTRA:                  -1.074
REMARK UNBOUND:                -0.885
REMARK  Name = 
REMARK  11 active torsions:
REMARK  status: ('A' for Active; 'I' for Inactive)
REMARK    1  A    between atoms: C_1  and  C_2
REMARK    2  A    between atoms: C_5  and  O_6
REMARK    3  A    between atoms: O_6  and  C_7
REMARK    4  A    between atoms: C_11  and  C_12
REMARK    5  A    between atoms: C_12  and  C_13
REMARK    6  A    between atoms: C_12  and  C_14
REMARK    7  A    between atoms: C_12  and  C_15
REMARK    8  A    between atoms: C_15  and  N_16
REMARK    9  A    between atoms: N_16  and  C_17
REMARK   10  A    between atoms: C_20  and  S_21
REMARK   11  A    between atoms: S_21  and  N_22
REMARK                            x       y       z     vdW  Elec       q    Type
REMARK                         _______ _______ _______ _____ _____    ______ ____
ROOT
ATOM      1  C   UNL     1      44.089   4.646  12.408  0.00  0.00    +0.000 C 
ATOM      2  C   UNL     1      44.907   3.335  12.531  0.00  0.00    +0.000 C 
ATOM      3  C   UNL     1      43.135   4.711  13.624  0.00  0.00    +0.000 C 
ENDROOT
BRANCH   1   8
ATOM      4  C   UNL     1      47.221   6.929  12.380  0.00  0.00    +0.000 A 
ATOM      5  C   UNL     1      46.660   8.199  12.342  0.00  0.00    +0.000 A 
ATOM      6  C   UNL     1      45.275   8.339  12.350  0.00  0.00    +0.000 A 
ATOM      7  C   UNL     1      44.447   7.212  12.387  0.00  0.00    +0.000 A 
ATOM      8  C   UNL     1      44.983   5.912  12.421  0.00  0.00    +0.000 A 
ATOM      9  C   UNL     1      46.391   5.802  12.441  0.00  0.00    +0.000 A 
BRANCH   4  10
ATOM     10  O   UNL     1      48.573   6.680  12.382  0.00  0.00    +0.000 OA
BRANCH  10  15
ATOM     11  C   UNL     1      50.237   8.819  14.731  0.00  0.00    +0.000 C 
ATOM     12  C   UNL     1      50.479   7.816  13.619  0.00  0.00    +0.000 C 
ATOM     13  N   UNL     1      51.533   8.282  12.688  0.00  0.00    +0.000 NA
ATOM     14  C   UNL     1      50.753   7.745  11.557  0.00  0.00    +0.000 C 
ATOM     15  C   UNL     1      49.476   7.814  12.429  0.00  0.00    +0.000 C 
ATOM     16  H   UNL     1      52.443   7.842  12.825  0.00  0.00    +0.000 HD
ENDBRANCH  10  15
ENDBRANCH   4  10
ENDBRANCH   1   8
BRANCH   1  17
ATOM     17  C   UNL     1      43.270   4.605  11.079  0.00  0.00    +0.000 C 
BRANCH  17  18
ATOM     18  N   UNL     1      43.992   5.186   9.939  0.00  0.00    +0.000 N 
ATOM     19  H   UNL     1      44.375   6.114  10.095  0.00  0.00    +0.000 HD
BRANCH  18  20
ATOM     20  C   UNL     1      44.837   4.392   9.159  0.00  0.00    +0.000 A 
ATOM     21  C   UNL     1      44.611   3.030   8.927  0.00  0.00    +0.000 A 
ATOM     22  C   UNL     1      45.411   2.302   8.043  0.00  0.00    +0.000 A 
ATOM     23  C   UNL     1      46.430   2.949   7.348  0.00  0.00    +0.000 A 
ATOM     24  C   UNL     1      46.686   4.303   7.564  0.00  0.00    +0.000 A 
ATOM     25  C   UNL     1      45.881   5.017   8.457  0.00  0.00    +0.000 A 
BRANCH  23  26
ATOM     26  S   UNL     1      47.367   2.053   6.150  0.00  0.00    +0.000 S 
ATOM     27  O   UNL     1      47.327   0.643   6.468  0.00  0.00    +0.000 OA
ATOM     28  O   UNL     1      47.074   2.561   4.833  0.00  0.00    +0.000 OA
BRANCH  26  29
ATOM     29  N   UNL     1      48.922   2.569   6.512  0.00  0.00    +0.000 NA
ATOM     30  H   UNL     1      49.204   2.229   7.430  0.00  0.00    +0.000 HD
ATOM     31  H   UNL     1      49.561   2.329   5.754  0.00  0.00    +0.000 HD
ENDBRANCH  26  29
ENDBRANCH  23  26
ENDBRANCH  18  20
ENDBRANCH  17  18
ENDBRANCH   1  17
TORSDOF 8
ENDMDL
MODEL 6
REMARK VINA RESULT:    -6.852      3.818      8.000
REMARK INTER + INTRA:         -10.741
REMARK INTER:                  -9.467
REMARK INTRA:                  -1.273
REMARK UNBOUND:                -0.885
REMARK  Name = 
REMARK  11 active torsions:
REMARK  status: ('A' for Active; 'I' for Inactive)
REMARK    1  A    between atoms: C_1  and  C_2
REMARK    2  A    between atoms: C_5  and  O_6
REMARK    3  A    between atoms: O_6  and  C_7
REMARK    4  A    between atoms: C_11  and  C_12
REMARK    5  A    between atoms: C_12  and  C_13
REMARK    6  A    between atoms: C_12  and  C_14
REMARK    7  A    between atoms: C_12  and  C_15
REMARK    8  A    between atoms: C_15  and  N_16
REMARK    9  A    between atoms: N_16  and  C_17
REMARK   10  A    between atoms: C_20  and  S_21
REMARK   11  A    between atoms: S_21  and  N_22
REMARK                            x       y       z     vdW  Elec       q    Type
REMARK                         _______ _______ _______ _____ _____    ______ ____
ROOT
ATOM      1  C   UNL     1      49.229   8.827  12.205  0.00  0.00    +0.000 C 
ATOM      2  C   UNL     1      50.155   7.761  11.568  0.00  0.00    +0.000 C 
ATOM      3  C   UNL     1      49.415  10.138  11.405  0.00  0.00    +0.000 C 
ENDROOT
BRANCH   1   8
ATOM      4  C   UNL     1      45.983   6.843  11.460  0.00  0.00    +0.000 A 
ATOM      5  C   UNL     1      45.016   7.607  12.101  0.00  0.00    +0.000 A 
ATOM      6  C   UNL     1      45.389   8.778  12.756  0.00  0.00    +0.000 A 
ATOM      7  C   UNL     1      46.728   9.183  12.780  0.00  0.00    +0.000 A 
ATOM      8  C   UNL     1      47.732   8.430  12.146  0.00  0.00    +0.000 A 
ATOM      9  C   UNL     1      47.320   7.263  11.465  0.00  0.00    +0.000 A 
BRANCH   4  10
ATOM     10  O   UNL     1      45.722   5.676  10.780  0.00  0.00    +0.000 OA
BRANCH  10  15
ATOM     11  C   UNL     1      44.196   2.489  10.165  0.00  0.00    +0.000 C 
ATOM     12  C   UNL     1      45.224   3.198  11.027  0.00  0.00    +0.000 C 
ATOM     13  N   UNL     1      45.103   2.804  12.450  0.00  0.00    +0.000 NA
ATOM     14  C   UNL     1      45.374   4.199  12.845  0.00  0.00    +0.000 C 
ATOM     15  C   UNL     1      44.919   4.666  11.442  0.00  0.00    +0.000 C 
ATOM     16  H   UNL     1      45.800   2.130  12.764  0.00  0.00    +0.000 HD
ENDBRANCH  10  15
ENDBRANCH   4  10
ENDBRANCH   1   8
BRANCH   1  17
ATOM     17  C   UNL     1      49.650   9.035  13.694  0.00  0.00    +0.000 C 
BRANCH  17  18
ATOM     18  N   UNL     1      50.443   7.921  14.230  0.00  0.00    +0.000 N 
ATOM     19  H   UNL     1      51.383   8.161  14.530  0.00  0.00    +0.000 HD
BRANCH  18  20
ATOM     20  C   UNL     1      49.850   6.971  15.066  0.00  0.00    +0.000 A 
ATOM     21  C   UNL     1      50.390   6.593  16.301  0.00  0.00    +0.000 A 
ATOM     22  C   UNL     1      49.703   5.731  17.160  0.00  0.00    +0.000 A 
ATOM     23  C   UNL     1      48.439   5.268  16.801  0.00  0.00    +0.000 A 
ATOM     24  C   UNL     1      47.879   5.619  15.573  0.00  0.00    +0.000 A 
ATOM     25  C   UNL     1      48.581   6.476  14.721  0.00  0.00    +0.000 A 
BRANCH  23  26
ATOM     26  S   UNL     1      47.526   4.269  17.936  0.00  0.00    +0.000 S 
ATOM     27  O   UNL     1      46.667   3.370  17.197  0.00  0.00    +0.000 OA
ATOM     28  O   UNL     1      48.401   3.818  18.990  0.00  0.00    +0.000 OA
BRANCH  26  29
ATOM     29  N   UNL     1      46.516   5.417  18.627  0.00  0.00    +0.000 NA
ATOM     30  H   UNL     1      46.298   5.164  19.590  0.00  0.00    +0.000 HD
ATOM     31  H   UNL     1      46.909   6.351  18.511  0.00  0.00    +0.000 HD
ENDBRANCH  26  29
ENDBRANCH  23  26
ENDBRANCH  18  20
ENDBRANCH  17  18
ENDBRANCH   1  17
TORSDOF 8
ENDMDL
MODEL 7
REMARK VINA RESULT:    -6.685      3.046      5.071
REMARK INTER + INTRA:         -10.501
REMARK INTER:                  -9.392
REMARK INTRA:                  -1.109
REMARK UNBOUND:                -0.885
REMARK  Name = 
REMARK  11 active torsions:
REMARK  status: ('A' for Active; 'I' for Inactive)
REMARK    1  A    between atoms: C_1  and  C_2
REMARK    2  A    between atoms: C_5  and  O_6
REMARK    3  A    between atoms: O_6  and  C_7
REMARK    4  A    between atoms: C_11  and  C_12
REMARK    5  A    between atoms: C_12  and  C_13
REMARK    6  A    between atoms: C_12  and  C_14
REMARK    7  A    between atoms: C_12  and  C_15
REMARK    8  A    between atoms: C_15  and  N_16
REMARK    9  A    between atoms: N_16  and  C_17
REMARK   10  A    between atoms: C_20  and  S_21
REMARK   11  A    between atoms: S_21  and  N_22
REMARK                            x       y       z     vdW  Elec       q    Type
REMARK                         _______ _______ _______ _____ _____    ______ ____
ROOT
ATOM      1  C   UNL     1      48.931   8.542  13.249  0.00  0.00    +0.000 C 
ATOM      2  C   UNL     1      49.864   9.720  12.873  0.00  0.00    +0.000 C 
ATOM      3  C   UNL     1      49.329   7.337  12.363  0.00  0.00    +0.000 C 
ENDROOT
BRANCH   1   8
ATOM      4  C   UNL     1      49.450   6.367  16.415  0.00  0.00    +0.000 A 
ATOM      5  C   UNL     1      49.428   7.315  17.431  0.00  0.00    +0.000 A 
ATOM      6  C   UNL     1      49.222   8.655  17.115  0.00  0.00    +0.000 A 
ATOM      7  C   UNL     1      49.046   9.054  15.786  0.00  0.00    +0.000 A 
ATOM      8  C   UNL     1      49.068   8.121  14.734  0.00  0.00    +0.000 A 
ATOM      9  C   UNL     1      49.250   6.765  15.086  0.00  0.00    +0.000 A 
BRANCH   4  10
ATOM     10  O   UNL     1      49.639   5.021  16.617  0.00  0.00    +0.000 OA
BRANCH  10  15
ATOM     11  C   UNL     1      46.772   5.600  18.692  0.00  0.00    +0.000 C 
ATOM     12  C   UNL     1      47.300   4.733  17.566  0.00  0.00    +0.000 C 
ATOM     13  N   UNL     1      46.970   3.304  17.780  0.00  0.00    +0.000 NA
ATOM     14  C   UNL     1      48.301   2.933  17.263  0.00  0.00    +0.000 C 
ATOM     15  C   UNL     1      48.810   4.355  17.603  0.00  0.00    +0.000 C 
ATOM     16  H   UNL     1      46.187   2.963  17.223  0.00  0.00    +0.000 HD
ENDBRANCH  10  15
ENDBRANCH   4  10
ENDBRANCH   1   8
BRANCH   1  17
ATOM     17  C   UNL     1      47.454   8.959  12.963  0.00  0.00    +0.000 C 
BRANCH  17  18
ATOM     18  N   UNL     1      46.472   8.110  13.653  0.00  0.00    +0.000 N 
ATOM     19  H   UNL     1      45.849   8.597  14.290  0.00  0.00    +0.000 HD
BRANCH  18  20
ATOM     20  C   UNL     1      45.824   7.080  12.966  0.00  0.00    +0.000 A 
ATOM     21  C   UNL     1      45.002   7.298  11.853  0.00  0.00    +0.000 A 
ATOM     22  C   UNL     1      44.472   6.232  11.123  0.00  0.00    +0.000 A 
ATOM     23  C   UNL     1      44.795   4.926  11.483  0.00  0.00    +0.000 A 
ATOM     24  C   UNL     1      45.602   4.676  12.592  0.00  0.00    +0.000 A 
ATOM     25  C   UNL     1      46.120   5.753  13.318  0.00  0.00    +0.000 A 
BRANCH  23  26
ATOM     26  S   UNL     1      44.214   3.584  10.493  0.00  0.00    +0.000 S 
ATOM     27  O   UNL     1      45.335   2.761  10.096  0.00  0.00    +0.000 OA
ATOM     28  O   UNL     1      43.017   3.035  11.082  0.00  0.00    +0.000 OA
BRANCH  26  29
ATOM     29  N   UNL     1      43.721   4.399   9.111  0.00  0.00    +0.000 NA
ATOM     30  H   UNL     1      43.069   3.827   8.575  0.00  0.00    +0.000 HD
ATOM     31  H   UNL     1      43.375   5.327   9.353  0.00  0.00    +0.000 HD
ENDBRANCH  26  29
ENDBRANCH  23  26
ENDBRANCH  18  20
ENDBRANCH  17  18
ENDBRANCH   1  17
TORSDOF 8
ENDMDL
MODEL 8
REMARK VINA RESULT:    -6.554      2.359      3.994
REMARK INTER + INTRA:         -10.313
REMARK INTER:                  -9.705
REMARK INTRA:                  -0.608
REMARK UNBOUND:                -0.885
REMARK  Name = 
REMARK  11 active torsions:
REMARK  status: ('A' for Active; 'I' for Inactive)
REMARK    1  A    between atoms: C_1  and  C_2
REMARK    2  A    between atoms: C_5  and  O_6
REMARK    3  A    between atoms: O_6  and  C_7
REMARK    4  A    between atoms: C_11  and  C_12
REMARK    5  A    between atoms: C_12  and  C_13
REMARK    6  A    between atoms: C_12  and  C_14
REMARK    7  A    between atoms: C_12  and  C_15
REMARK    8  A    between atoms: C_15  and  N_16
REMARK    9  A    between atoms: N_16  and  C_17
REMARK   10  A    between atoms: C_20  and  S_21
REMARK   11  A    between atoms: S_21  and  N_22
REMARK                            x       y       z     vdW  Elec       q    Type
REMARK                         _______ _______ _______ _____ _____    ______ ____
ROOT
ATOM      1  C   UNL     1      44.461   4.902  12.523  0.00  0.00    +0.000 C 
ATOM      2  C   UNL     1      44.436   3.365  12.333  0.00  0.00    +0.000 C 
ATOM      3  C   UNL     1      43.249   5.279  13.408  0.00  0.00    +0.000 C 
ENDROOT
BRANCH   1   8
ATOM      4  C   UNL     1      47.425   7.159  13.594  0.00  0.00    +0.000 A 
ATOM      5  C   UNL     1      48.048   6.387  14.566  0.00  0.00    +0.000 A 
ATOM      6  C   UNL     1      47.541   5.126  14.871  0.00  0.00    +0.000 A 
ATOM      7  C   UNL     1      46.408   4.638  14.212  0.00  0.00    +0.000 A 
ATOM      8  C   UNL     1      45.750   5.397  13.227  0.00  0.00    +0.000 A 
ATOM      9  C   UNL     1      46.303   6.659  12.919  0.00  0.00    +0.000 A 
BRANCH   4  10
ATOM     10  O   UNL     1      47.846   8.412  13.214  0.00  0.00    +0.000 OA
BRANCH  10  15
ATOM     11  C   UNL     1      49.062  10.893  10.927  0.00  0.00    +0.000 C 
ATOM     12  C   UNL     1      49.504   9.796  11.877  0.00  0.00    +0.000 C 
ATOM     13  N   UNL     1      50.561   8.950  11.274  0.00  0.00    +0.000 NA
ATOM     14  C   UNL     1      49.937   7.760  11.883  0.00  0.00    +0.000 C 
ATOM     15  C   UNL     1      48.599   8.534  11.980  0.00  0.00    +0.000 C 
ATOM     16  H   UNL     1      51.504   9.152  11.604  0.00  0.00    +0.000 HD
ENDBRANCH  10  15
ENDBRANCH   4  10
ENDBRANCH   1   8
BRANCH   1  17
ATOM     17  C   UNL     1      44.342   5.585  11.124  0.00  0.00    +0.000 C 
BRANCH  17  18
ATOM     18  N   UNL     1      43.742   4.713  10.106  0.00  0.00    +0.000 N 
ATOM     19  H   UNL     1      42.881   5.057   9.692  0.00  0.00    +0.000 HD
BRANCH  18  20
ATOM     20  C   UNL     1      44.550   4.058   9.172  0.00  0.00    +0.000 A 
ATOM     21  C   UNL     1      45.530   4.710   8.414  0.00  0.00    +0.000 A 
ATOM     22  C   UNL     1      46.397   3.998   7.582  0.00  0.00    +0.000 A 
ATOM     23  C   UNL     1      46.313   2.608   7.532  0.00  0.00    +0.000 A 
ATOM     24  C   UNL     1      45.341   1.931   8.268  0.00  0.00    +0.000 A 
ATOM     25  C   UNL     1      44.476   2.657   9.091  0.00  0.00    +0.000 A 
BRANCH  23  26
ATOM     26  S   UNL     1      47.481   1.703   6.566  0.00  0.00    +0.000 S 
ATOM     27  O   UNL     1      48.821   2.104   6.936  0.00  0.00    +0.000 OA
ATOM     28  O   UNL     1      47.076   0.321   6.493  0.00  0.00    +0.000 OA
BRANCH  26  29
ATOM     29  N   UNL     1      47.204   2.351   5.043  0.00  0.00    +0.000 NA
ATOM     30  H   UNL     1      48.076   2.413   4.519  0.00  0.00    +0.000 HD
ATOM     31  H   UNL     1      46.459   1.839   4.571  0.00  0.00    +0.000 HD
ENDBRANCH  26  29
ENDBRANCH  23  26
ENDBRANCH  18  20
ENDBRANCH  17  18
ENDBRANCH   1  17
TORSDOF 8
ENDMDL
MODEL 9
REMARK VINA RESULT:    -6.388      3.014      7.918
REMARK INTER + INTRA:         -10.073
REMARK INTER:                  -9.226
REMARK INTRA:                  -0.848
REMARK UNBOUND:                -0.885
REMARK  Name = 
REMARK  11 active torsions:
REMARK  status: ('A' for Active; 'I' for Inactive)
REMARK    1  A    between atoms: C_1  and  C_2
REMARK    2  A    between atoms: C_5  and  O_6
REMARK    3  A    between atoms: O_6  and  C_7
REMARK    4  A    between atoms: C_11  and  C_12
REMARK    5  A    between atoms: C_12  and  C_13
REMARK    6  A    between atoms: C_12  and  C_14
REMARK    7  A    between atoms: C_12  and  C_15
REMARK    8  A    between atoms: C_15  and  N_16
REMARK    9  A    between atoms: N_16  and  C_17
REMARK   10  A    between atoms: C_20  and  S_21
REMARK   11  A    between atoms: S_21  and  N_22
REMARK                            x       y       z     vdW  Elec       q    Type
REMARK                         _______ _______ _______ _____ _____    ______ ____
ROOT
ATOM      1  C   UNL     1      43.699   4.404  12.091  0.00  0.00    +0.000 C 
ATOM      2  C   UNL     1      42.349   5.158  11.994  0.00  0.00    +0.000 C 
ATOM      3  C   UNL     1      43.389   2.890  12.013  0.00  0.00    +0.000 C 
ENDROOT
BRANCH   1   8
ATOM      4  C   UNL     1      45.657   4.220   8.751  0.00  0.00    +0.000 A 
ATOM      5  C   UNL     1      46.350   5.424   8.747  0.00  0.00    +0.000 A 
ATOM      6  C   UNL     1      46.217   6.295   9.826  0.00  0.00    +0.000 A 
ATOM      7  C   UNL     1      45.387   5.971  10.904  0.00  0.00    +0.000 A 
ATOM      8  C   UNL     1      44.668   4.763  10.936  0.00  0.00    +0.000 A 
ATOM      9  C   UNL     1      44.844   3.886   9.843  0.00  0.00    +0.000 A 
BRANCH   4  10
ATOM     10  O   UNL     1      45.721   3.287   7.742  0.00  0.00    +0.000 OA
BRANCH  10  15
ATOM     11  C   UNL     1      46.736  -0.151   7.644  0.00  0.00    +0.000 C 
ATOM     12  C   UNL     1      46.745   1.141   6.849  0.00  0.00    +0.000 C 
ATOM     13  N   UNL     1      48.066   1.385   6.225  0.00  0.00    +0.000 NA
ATOM     14  C   UNL     1      47.933   2.821   6.535  0.00  0.00    +0.000 C 
ATOM     15  C   UNL     1      46.913   2.468   7.645  0.00  0.00    +0.000 C 
ATOM     16  H   UNL     1      48.111   1.167   5.230  0.00  0.00    +0.000 HD
ENDBRANCH  10  15
ENDBRANCH   4  10
ENDBRANCH   1   8
BRANCH   1  17
ATOM     17  C   UNL     1      44.372   4.750  13.456  0.00  0.00    +0.000 C 
BRANCH  17  18
ATOM     18  N   UNL     1      45.711   4.163  13.604  0.00  0.00    +0.000 N 
ATOM     19  H   UNL     1      46.111   3.775  12.755  0.00  0.00    +0.000 HD
BRANCH  18  20
ATOM     20  C   UNL     1      46.672   4.789  14.402  0.00  0.00    +0.000 A 
ATOM     21  C   UNL     1      47.105   4.272  15.629  0.00  0.00    +0.000 A 
ATOM     22  C   UNL     1      48.154   4.864  16.336  0.00  0.00    +0.000 A 
ATOM     23  C   UNL     1      48.810   5.967  15.794  0.00  0.00    +0.000 A 
ATOM     24  C   UNL     1      48.396   6.511  14.579  0.00  0.00    +0.000 A 
ATOM     25  C   UNL     1      47.340   5.912  13.886  0.00  0.00    +0.000 A 
BRANCH  23  26
ATOM     26  S   UNL     1      50.207   6.646  16.636  0.00  0.00    +0.000 S 
ATOM     27  O   UNL     1      51.027   7.372  15.692  0.00  0.00    +0.000 OA
ATOM     28  O   UNL     1      49.783   7.210  17.893  0.00  0.00    +0.000 OA
BRANCH  26  29
ATOM     29  N   UNL     1      51.058   5.250  17.016  0.00  0.00    +0.000 NA
ATOM     30  H   UNL     1      52.048   5.458  17.132  0.00  0.00    +0.000 HD
ATOM     31  H   UNL     1      50.626   4.777  17.809  0.00  0.00    +0.000 HD
ENDBRANCH  26  29
ENDBRANCH  23  26
ENDBRANCH  18  20
ENDBRANCH  17  18
ENDBRANCH   1  17
TORSDOF 8
ENDMDL
