MODEL 1
REMARK VINA RESULT:    -7.019      0.000      0.000
REMARK INTER + INTRA:          -9.314
REMARK INTER:                  -8.866
REMARK INTRA:                  -0.448
REMARK UNBOUND:                -0.448
REMARK  Name = 
REMARK  8 active torsions:
REMARK  status: ('A' for Active; 'I' for Inactive)
REMARK    1  A    between atoms: C_1  and  C_2
REMARK    2  A    between atoms: C_2  and  C_3
REMARK    3  A    between atoms: C_2  and  C_4
REMARK    4  A    between atoms: C_2  and  C_5
REMARK    5  A    between atoms: N_7  and  C_8
REMARK    6  A    between atoms: C_8  and  C_9
REMARK    7  A    between atoms: CA_18  and  C_19
REMARK    8  A    between atoms: C_19  and  OXT_21
REMARK                            x       y       z     vdW  Elec       q    Type
REMARK                         _______ _______ _______ _____ _____    ______ ____
ROOT
ATOM      1  C   UNL     1      46.375   7.052  12.152  0.00  0.00    +0.000 A 
ATOM      2  C   UNL     1      45.615   6.725  11.037  0.00  0.00    +0.000 A 
ATOM      3  N   UNL     1      45.240   5.406  11.110  0.00  0.00    +0.000 N 
ATOM      4  C   UNL     1      45.798   4.833  12.234  0.00  0.00    +0.000 A 
ATOM      5  C   UNL     1      45.793   3.521  12.735  0.00  0.00    +0.000 A 
ATOM      6  C   UNL     1      46.407   3.322  13.964  0.00  0.00    +0.000 A 
ATOM      7  CA  UNL     1      47.010   4.397  14.614  0.00  0.00    +0.000 A 
ATOM      8  N   UNL     1      47.072   5.664  14.133  0.00  0.00    +0.000 NA
ATOM      9  C   UNL     1      46.464   5.850  12.926  0.00  0.00    +0.000 A 
ENDROOT
BRANCH   1  11
ATOM     10  C   UNL     1      45.985   9.504  11.865  0.00  0.00    +0.000 C 
ATOM     11  C   UNL     1      46.945   8.438  12.433  0.00  0.00    +0.000 C 
ATOM     12  C   UNL     1      48.322   8.593  11.754  0.00  0.00    +0.000 C 
ATOM     13  C   UNL     1      47.133   8.720  13.934  0.00  0.00    +0.000 C 
ENDBRANCH   1  11
BRANCH   7  14
ATOM     14  C   UNL     1      47.617   4.176  15.962  0.00  0.00    +0.000 C 
ATOM     15  O   UNL     1      48.752   4.508  16.266  0.00  0.00    +0.000 OA
BRANCH  14  16
ATOM     16  OXT UNL     1      46.762   3.564  16.817  0.00  0.00    +0.000 OA
ATOM     17  HXT UNL     1      46.833   3.972  17.710  0.00  0.00    +0.000 HD
ENDBRANCH  14  16
ENDBRANCH   7  14
BRANCH   3  18
ATOM     18  C   UNL     1      44.293   4.798  10.172  0.00  0.00    +0.000 C 
BRANCH  18  19
ATOM     19  C   UNL     1      44.996   3.892   9.196  0.00  0.00    +0.000 A 
ATOM     20  C   UNL     1      44.935   2.505   9.347  0.00  0.00    +0.000 A 
ATOM     21  C   UNL     1      45.734   1.713   8.538  0.00  0.00    +0.000 A 
ATOM     22  N   UNL     1      46.552   2.200   7.584  0.00  0.00    +0.000 NA
ATOM     23  C   UNL     1      46.559   3.538   7.415  0.00  0.00    +0.000 A 
ATOM     24  C   UNL     1      45.796   4.413   8.172  0.00  0.00    +0.000 A 
ENDBRANCH  18  19
ENDBRANCH   3  18
TORSDOF 5
ENDMDL
MODEL 2
REMARK VINA RESULT:    -6.607      1.135      1.253
REMARK INTER + INTRA:          -8.792
REMARK INTER:                  -8.403
REMARK INTRA:                  -0.389
REMARK UNBOUND:                -0.448
REMARK  Name = 
REMARK  8 active torsions:
REMARK  status: ('A' for Active; 'I' for Inactive)
REMARK    1  A    between atoms: C_1  and  C_2
REMARK    2  A    between atoms: C_2  and  C_3
REMARK    3  A    between atoms: C_2  and  C_4
REMARK    4  A    between atoms: C_2  and  C_5
REMARK    5  A    between atoms: N_7  and  C_8
REMARK    6  A    between atoms: C_8  and  C_9
REMARK    7  A    between atoms: CA_18  and  C_19
REMARK    8  A    between atoms: C_19  and  OXT_21
REMARK                            x       y       z     vdW  Elec       q    Type
REMARK                         _______ _______ _______ _____ _____    ______ ____
ROOT
ATOM      1  C   UNL     1      47.775   7.085  12.218  0.00  0.00    +0.000 A 
ATOM      2  C   UNL     1      46.884   6.928  11.164  0.00  0.00    +0.000 A 
ATOM      3  N   UNL     1      46.018   5.901  11.446  0.00  0.00    +0.000 N 
ATOM      4  C   UNL     1      46.364   5.328  12.652  0.00  0.00    +0.000 A 
ATOM      5  C   UNL     1      45.865   4.222  13.358  0.00  0.00    +0.000 A 
ATOM      6  C   UNL     1      46.417   3.980  14.608  0.00  0.00    +0.000 A 
ATOM      7  CA  UNL     1      47.436   4.805  15.082  0.00  0.00    +0.000 A 
ATOM      8  N   UNL     1      47.972   5.850  14.403  0.00  0.00    +0.000 NA
ATOM      9  C   UNL     1      47.421   6.081  13.177  0.00  0.00    +0.000 A 
ENDROOT
BRANCH   1  11
ATOM     10  C   UNL     1      48.322   9.464  11.681  0.00  0.00    +0.000 C 
ATOM     11  C   UNL     1      48.866   8.148  12.277  0.00  0.00    +0.000 C 
ATOM     12  C   UNL     1      50.091   7.696  11.454  0.00  0.00    +0.000 C 
ATOM     13  C   UNL     1      49.348   8.439  13.709  0.00  0.00    +0.000 C 
ENDBRANCH   1  11
BRANCH   7  14
ATOM     14  C   UNL     1      47.981   4.564  16.453  0.00  0.00    +0.000 C 
ATOM     15  O   UNL     1      49.019   3.963  16.682  0.00  0.00    +0.000 OA
BRANCH  14  16
ATOM     16  OXT UNL     1      47.192   5.091  17.419  0.00  0.00    +0.000 OA
ATOM     17  HXT UNL     1      46.519   5.685  17.015  0.00  0.00    +0.000 HD
ENDBRANCH  14  16
ENDBRANCH   7  14
BRANCH   3  18
ATOM     18  C   UNL     1      44.855   5.592  10.610  0.00  0.00    +0.000 C 
BRANCH  18  19
ATOM     19  C   UNL     1      45.154   4.471   9.650  0.00  0.00    +0.000 A 
ATOM     20  C   UNL     1      44.786   3.159   9.957  0.00  0.00    +0.000 A 
ATOM     21  C   UNL     1      45.230   2.136   9.136  0.00  0.00    +0.000 A 
ATOM     22  N   UNL     1      45.977   2.330   8.031  0.00  0.00    +0.000 NA
ATOM     23  C   UNL     1      46.279   3.607   7.719  0.00  0.00    +0.000 A 
ATOM     24  C   UNL     1      45.880   4.698   8.476  0.00  0.00    +0.000 A 
ENDBRANCH  18  19
ENDBRANCH   3  18
TORSDOF 5
ENDMDL
MODEL 3
REMARK VINA RESULT:    -6.097      2.593      5.278
REMARK INTER + INTRA:          -8.149
REMARK INTER:                  -7.528
REMARK INTRA:                  -0.621
REMARK UNBOUND:                -0.448
REMARK  Name = 
REMARK  8 active torsions:
REMARK  status: ('A' for Active; 'I' for Inactive)
REMARK    1  A    between atoms: C_1  and  C_2
REMARK    2  A    between atoms: C_2  and  C_3
REMARK    3  A    between atoms: C_2  and  C_4
REMARK    4  A    between atoms: C_2  and  C_5
REMARK    5  A    between atoms: N_7  and  C_8
REMARK    6  A    between atoms: C_8  and  C_9
REMARK    7  A    between atoms: CA_18  and  C_19
REMARK    8  A    between atoms: C_19  and  OXT_21
REMARK                            x       y       z     vdW  Elec       q    Type
REMARK                         _______ _______ _______ _____ _____    ______ ____
ROOT
ATOM      1  C   UNL     1      46.064   5.653  12.865  0.00  0.00    +0.000 A 
ATOM      2  C   UNL     1      46.468   6.901  12.410  0.00  0.00    +0.000 A 
ATOM      3  N   UNL     1      47.435   7.402  13.245  0.00  0.00    +0.000 N 
ATOM      4  C   UNL     1      47.635   6.525  14.291  0.00  0.00    +0.000 A 
ATOM      5  C   UNL     1      48.441   6.583  15.439  0.00  0.00    +0.000 A 
ATOM      6  C   UNL     1      48.450   5.457  16.251  0.00  0.00    +0.000 A 
ATOM      7  CA  UNL     1      47.656   4.362  15.916  0.00  0.00    +0.000 A 
ATOM      8  N   UNL     1      46.831   4.296  14.842  0.00  0.00    +0.000 NA
ATOM      9  C   UNL     1      46.832   5.406  14.049  0.00  0.00    +0.000 A 
ENDROOT
BRANCH   1  11
ATOM     10  C   UNL     1      44.872   5.230  10.709  0.00  0.00    +0.000 C 
ATOM     11  C   UNL     1      45.024   4.776  12.176  0.00  0.00    +0.000 C 
ATOM     12  C   UNL     1      43.661   4.915  12.885  0.00  0.00    +0.000 C 
ATOM     13  C   UNL     1      45.399   3.284  12.175  0.00  0.00    +0.000 C 
ENDBRANCH   1  11
BRANCH   7  14
ATOM     14  C   UNL     1      47.720   3.137  16.772  0.00  0.00    +0.000 C 
ATOM     15  O   UNL     1      48.661   2.359  16.785  0.00  0.00    +0.000 OA
BRANCH  14  16
ATOM     16  OXT UNL     1      46.613   2.986  17.537  0.00  0.00    +0.000 OA
ATOM     17  HXT UNL     1      45.852   3.452  17.121  0.00  0.00    +0.000 HD
ENDBRANCH  14  16
ENDBRANCH   7  14
BRANCH   3  18
ATOM     18  C   UNL     1      48.185   8.625  12.947  0.00  0.00    +0.000 C 
BRANCH  18  19
ATOM     19  C   UNL     1      49.597   8.312  12.529  0.00  0.00    +0.000 A 
ATOM     20  C   UNL     1      50.675   8.697  13.330  0.00  0.00    +0.000 A 
ATOM     21  C   UNL     1      51.959   8.550  12.832  0.00  0.00    +0.000 A 
ATOM     22  N   UNL     1      52.239   8.024  11.622  0.00  0.00    +0.000 NA
ATOM     23  C   UNL     1      51.190   7.609  10.883  0.00  0.00    +0.000 A 
ATOM     24  C   UNL     1      49.870   7.712  11.294  0.00  0.00    +0.000 A 
ENDBRANCH  18  19
ENDBRANCH   3  18
TORSDOF 5
ENDMDL
MODEL 4
REMARK VINA RESULT:    -5.972      3.048      6.521
REMARK INTER + INTRA:          -7.991
REMARK INTER:                  -7.621
REMARK INTRA:                  -0.370
REMARK UNBOUND:                -0.448
REMARK  Name = 
REMARK  8 active torsions:
REMARK  status: ('A' for Active; 'I' for Inactive)
REMARK    1  A    between atoms: C_1  and  C_2
REMARK    2  A    between atoms: C_2  and  C_3
REMARK    3  A    between atoms: C_2  and  C_4
REMARK    4  A    between atoms: C_2  and  C_5
REMARK    5  A    between atoms: N_7  and  C_8
REMARK    6  A    between atoms: C_8  and  C_9
REMARK    7  A    between atoms: CA_18  and  C_19
REMARK    8  A    between atoms: C_19  and  OXT_21
REMARK                            x       y       z     vdW  Elec       q    Type
REMARK                         _______ _______ _______ _____ _____    ______ ____
ROOT
ATOM      1  C   UNL     1      47.276   6.531  13.387  0.00  0.00    +0.000 A 
ATOM      2  C   UNL     1      47.591   5.892  14.579  0.00  0.00    +0.000 A 
ATOM      3  N   UNL     1      47.089   4.614  14.558  0.00  0.00    +0.000 N 
ATOM      4  C   UNL     1      46.387   4.416  13.387  0.00  0.00    +0.000 A 
ATOM      5  C   UNL     1      45.631   3.338  12.903  0.00  0.00    +0.000 A 
ATOM      6  C   UNL     1      45.120   3.462  11.618  0.00  0.00    +0.000 A 
ATOM      7  CA  UNL     1      45.349   4.633  10.897  0.00  0.00    +0.000 A 
ATOM      8  N   UNL     1      46.034   5.710  11.357  0.00  0.00    +0.000 NA
ATOM      9  C   UNL     1      46.534   5.576  12.619  0.00  0.00    +0.000 A 
ENDROOT
BRANCH   1  11
ATOM     10  C   UNL     1      48.482   8.558  14.215  0.00  0.00    +0.000 C 
ATOM     11  C   UNL     1      47.693   7.955  13.034  0.00  0.00    +0.000 C 
ATOM     12  C   UNL     1      46.444   8.823  12.773  0.00  0.00    +0.000 C 
ATOM     13  C   UNL     1      48.581   8.030  11.780  0.00  0.00    +0.000 C 
ENDBRANCH   1  11
BRANCH   7  14
ATOM     14  C   UNL     1      44.840   4.728   9.495  0.00  0.00    +0.000 C 
ATOM     15  O   UNL     1      45.555   4.742   8.506  0.00  0.00    +0.000 OA
BRANCH  14  16
ATOM     16  OXT UNL     1      43.488   4.794   9.443  0.00  0.00    +0.000 OA
ATOM     17  HXT UNL     1      43.172   5.583   9.940  0.00  0.00    +0.000 HD
ENDBRANCH  14  16
ENDBRANCH   7  14
BRANCH   3  18
ATOM     18  C   UNL     1      47.393   3.626  15.597  0.00  0.00    +0.000 C 
BRANCH  18  19
ATOM     19  C   UNL     1      47.939   4.285  16.835  0.00  0.00    +0.000 A 
ATOM     20  C   UNL     1      49.304   4.228  17.125  0.00  0.00    +0.000 A 
ATOM     21  C   UNL     1      49.742   4.691  18.355  0.00  0.00    +0.000 A 
ATOM     22  N   UNL     1      48.929   5.226  19.288  0.00  0.00    +0.000 NA
ATOM     23  C   UNL     1      47.622   5.323  18.972  0.00  0.00    +0.000 A 
ATOM     24  C   UNL     1      47.088   4.890  17.768  0.00  0.00    +0.000 A 
ENDBRANCH  18  19
ENDBRANCH   3  18
TORSDOF 5
ENDMDL
MODEL 5
REMARK VINA RESULT:    -5.742      3.747      7.287
REMARK INTER + INTRA:          -7.701
REMARK INTER:                  -6.956
REMARK INTRA:                  -0.745
REMARK UNBOUND:                -0.448
REMARK  Name = 
REMARK  8 active torsions:
REMARK  status: ('A' for Active; 'I' for Inactive)
REMARK    1  A    between atoms: C_1  and  C_2
REMARK    2  A    between atoms: C_2  and  C_3
REMARK    3  A    between atoms: C_2  and  C_4
REMARK    4  A    between atoms: C_2  and  C_5
REMARK    5  A    between atoms: N_7  and  C_8
REMARK    6  A    between atoms: C_8  and  C_9
REMARK    7  A    between atoms: CA_18  and  C_19
REMARK    8  A    between atoms: C_19  and  OXT_21
REMARK                            x       y       z     vdW  Elec       q    Type
REMARK                         _______ _______ _______ _____ _____    ______ ____
ROOT
ATOM      1  C   UNL     1      45.872   5.887  12.420  0.00  0.00    +0.000 A 
ATOM      2  C   UNL     1      47.120   5.684  12.994  0.00  0.00    +0.000 A 
ATOM      3  N   UNL     1      47.746   6.894  13.167  0.00  0.00    +0.000 N 
ATOM      4  C   UNL     1      46.951   7.898  12.654  0.00  0.00    +0.000 A 
ATOM      5  C   UNL     1      47.141   9.281  12.510  0.00  0.00    +0.000 A 
ATOM      6  C   UNL     1      46.069  10.009  12.012  0.00  0.00    +0.000 A 
ATOM      7  CA  UNL     1      44.895   9.347  11.657  0.00  0.00    +0.000 A 
ATOM      8  N   UNL     1      44.699   8.007  11.738  0.00  0.00    +0.000 NA
ATOM      9  C   UNL     1      45.758   7.302  12.232  0.00  0.00    +0.000 A 
ENDROOT
BRANCH   1  11
ATOM     10  C   UNL     1      45.486   3.419  12.510  0.00  0.00    +0.000 C 
ATOM     11  C   UNL     1      44.875   4.777  12.106  0.00  0.00    +0.000 C 
ATOM     12  C   UNL     1      44.566   4.756  10.594  0.00  0.00    +0.000 C 
ATOM     13  C   UNL     1      43.538   4.938  12.851  0.00  0.00    +0.000 C 
ENDBRANCH   1  11
BRANCH   7  14
ATOM     14  C   UNL     1      43.731  10.153  11.174  0.00  0.00    +0.000 C 
ATOM     15  O   UNL     1      43.279  11.123  11.761  0.00  0.00    +0.000 OA
BRANCH  14  16
ATOM     16  OXT UNL     1      43.233   9.686  10.005  0.00  0.00    +0.000 OA
ATOM     17  HXT UNL     1      43.882   9.078   9.583  0.00  0.00    +0.000 HD
ENDBRANCH  14  16
ENDBRANCH   7  14
BRANCH   3  18
ATOM     18  C   UNL     1      49.007   7.037  13.900  0.00  0.00    +0.000 C 
BRANCH  18  19
ATOM     19  C   UNL     1      48.763   7.229  15.373  0.00  0.00    +0.000 A 
ATOM     20  C   UNL     1      48.647   8.513  15.911  0.00  0.00    +0.000 A 
ATOM     21  C   UNL     1      48.599   8.655  17.287  0.00  0.00    +0.000 A 
ATOM     22  N   UNL     1      48.628   7.619  18.150  0.00  0.00    +0.000 NA
ATOM     23  C   UNL     1      48.687   6.383  17.614  0.00  0.00    +0.000 A 
ATOM     24  C   UNL     1      48.737   6.138  16.250  0.00  0.00    +0.000 A 
ENDBRANCH  18  19
ENDBRANCH   3  18
TORSDOF 5
ENDMDL
MODEL 6
REMARK VINA RESULT:    -5.733      3.218      6.209
REMARK INTER + INTRA:          -7.689
REMARK INTER:                  -7.208
REMARK INTRA:                  -0.481
REMARK UNBOUND:                -0.448
REMARK  Name = 
REMARK  8 active torsions:
REMARK  status: ('A' for Active; 'I' for Inactive)
REMARK    1  A    between atoms: C_1  and  C_2
REMARK    2  A    between atoms: C_2  and  C_3
REMARK    3  A    between atoms: C_2  and  C_4
REMARK    4  A    between atoms: C_2  and  C_5
REMARK    5  A    between atoms: N_7  and  C_8
REMARK    6  A    between atoms: C_8  and  C_9
REMARK    7  A    between atoms: CA_18  and  C_19
REMARK    8  A    between atoms: C_19  and  OXT_21
REMARK                            x       y       z     vdW  Elec       q    Type
REMARK                         _______ _______ _______ _____ _____    ______ ____
ROOT
ATOM      1  C   UNL     1      48.020   5.358  15.486  0.00  0.00    +0.000 A 
ATOM      2  C   UNL     1      48.699   6.559  15.334  0.00  0.00    +0.000 A 
ATOM      3  N   UNL     1      48.305   7.163  14.166  0.00  0.00    +0.000 N 
ATOM      4  C   UNL     1      47.414   6.344  13.505  0.00  0.00    +0.000 A 
ATOM      5  C   UNL     1      46.773   6.444  12.260  0.00  0.00    +0.000 A 
ATOM      6  C   UNL     1      45.859   5.447  11.947  0.00  0.00    +0.000 A 
ATOM      7  CA  UNL     1      45.647   4.403  12.845  0.00  0.00    +0.000 A 
ATOM      8  N   UNL     1      46.286   4.253  14.032  0.00  0.00    +0.000 NA
ATOM      9  C   UNL     1      47.180   5.239  14.331  0.00  0.00    +0.000 A 
ENDROOT
BRANCH   1  11
ATOM     10  C   UNL     1      48.071   2.962  16.193  0.00  0.00    +0.000 C 
ATOM     11  C   UNL     1      48.174   4.422  16.680  0.00  0.00    +0.000 C 
ATOM     12  C   UNL     1      47.055   4.686  17.708  0.00  0.00    +0.000 C 
ATOM     13  C   UNL     1      49.521   4.588  17.405  0.00  0.00    +0.000 C 
ENDBRANCH   1  11
BRANCH   7  14
ATOM     14  C   UNL     1      44.619   3.368  12.518  0.00  0.00    +0.000 C 
ATOM     15  O   UNL     1      43.596   3.190  13.161  0.00  0.00    +0.000 OA
BRANCH  14  16
ATOM     16  OXT UNL     1      44.948   2.646  11.420  0.00  0.00    +0.000 OA
ATOM     17  HXT UNL     1      44.553   3.057  10.618  0.00  0.00    +0.000 HD
ENDBRANCH  14  16
ENDBRANCH   7  14
BRANCH   3  18
ATOM     18  C   UNL     1      48.713   8.522  13.799  0.00  0.00    +0.000 C 
BRANCH  18  19
ATOM     19  C   UNL     1      50.006   8.515  13.028  0.00  0.00    +0.000 A 
ATOM     20  C   UNL     1      50.027   8.137  11.683  0.00  0.00    +0.000 A 
ATOM     21  C   UNL     1      51.252   7.975  11.058  0.00  0.00    +0.000 A 
ATOM     22  N   UNL     1      52.438   8.190  11.663  0.00  0.00    +0.000 NA
ATOM     23  C   UNL     1      52.399   8.605  12.945  0.00  0.00    +0.000 A 
ATOM     24  C   UNL     1      51.224   8.799  13.656  0.00  0.00    +0.000 A 
ENDBRANCH  18  19
ENDBRANCH   3  18
TORSDOF 5
ENDMDL
MODEL 7
REMARK VINA RESULT:    -5.687      3.741      6.804
REMARK INTER + INTRA:          -7.631
REMARK INTER:                  -6.959
REMARK INTRA:                  -0.671
REMARK UNBOUND:                -0.448
REMARK  Name = 
REMARK  8 active torsions:
REMARK  status: ('A' for Active; 'I' for Inactive)
REMARK    1  A    between atoms: C_1  and  C_2
REMARK    2  A    between atoms: C_2  and  C_3
REMARK    3  A    between atoms: C_2  and  C_4
REMARK    4  A    between atoms: C_2  and  C_5
REMARK    5  A    between atoms: N_7  and  C_8
REMARK    6  A    between atoms: C_8  and  C_9
REMARK    7  A    between atoms: CA_18  and  C_19
REMARK    8  A    between atoms: C_19  and  OXT_21
REMARK                            x       y       z     vdW  Elec       q    Type
REMARK                         _______ _______ _______ _____ _____    ______ ____
ROOT
ATOM      1  C   UNL     1      45.362   5.782  12.149  0.00  0.00    +0.000 A 
ATOM      2  C   UNL     1      46.530   5.727  12.897  0.00  0.00    +0.000 A 
ATOM      3  N   UNL     1      46.976   7.001  13.144  0.00  0.00    +0.000 N 
ATOM      4  C   UNL     1      46.148   7.906  12.512  0.00  0.00    +0.000 A 
ATOM      5  C   UNL     1      46.191   9.304  12.382  0.00  0.00    +0.000 A 
ATOM      6  C   UNL     1      45.121   9.901  11.729  0.00  0.00    +0.000 A 
ATOM      7  CA  UNL     1      44.097   9.106  11.217  0.00  0.00    +0.000 A 
ATOM      8  N   UNL     1      44.053   7.752  11.284  0.00  0.00    +0.000 NA
ATOM      9  C   UNL     1      45.107   7.175  11.931  0.00  0.00    +0.000 A 
ENDROOT
BRANCH   1  11
ATOM     10  C   UNL     1      45.230   3.289  12.261  0.00  0.00    +0.000 C 
ATOM     11  C   UNL     1      44.559   4.563  11.707  0.00  0.00    +0.000 C 
ATOM     12  C   UNL     1      44.525   4.481  10.167  0.00  0.00    +0.000 C 
ATOM     13  C   UNL     1      43.102   4.588  12.204  0.00  0.00    +0.000 C 
ENDBRANCH   1  11
BRANCH   7  14
ATOM     14  C   UNL     1      42.927   9.770  10.565  0.00  0.00    +0.000 C 
ATOM     15  O   UNL     1      43.019  10.662   9.737  0.00  0.00    +0.000 OA
BRANCH  14  16
ATOM     16  OXT UNL     1      41.745   9.266  10.994  0.00  0.00    +0.000 OA
ATOM     17  HXT UNL     1      41.805   9.039  11.950  0.00  0.00    +0.000 HD
ENDBRANCH  14  16
ENDBRANCH   7  14
BRANCH   3  18
ATOM     18  C   UNL     1      48.093   7.290  14.047  0.00  0.00    +0.000 C 
BRANCH  18  19
ATOM     19  C   UNL     1      49.234   7.942  13.314  0.00  0.00    +0.000 A 
ATOM     20  C   UNL     1      49.762   9.156  13.762  0.00  0.00    +0.000 A 
ATOM     21  C   UNL     1      50.688   9.811  12.967  0.00  0.00    +0.000 A 
ATOM     22  N   UNL     1      51.141   9.332  11.791  0.00  0.00    +0.000 NA
ATOM     23  C   UNL     1      50.661   8.134  11.399  0.00  0.00    +0.000 A 
ATOM     24  C   UNL     1      49.734   7.402  12.124  0.00  0.00    +0.000 A 
ENDBRANCH  18  19
ENDBRANCH   3  18
TORSDOF 5
ENDMDL
MODEL 8
REMARK VINA RESULT:    -5.589      2.923      5.102
REMARK INTER + INTRA:          -7.507
REMARK INTER:                  -6.854
REMARK INTRA:                  -0.653
REMARK UNBOUND:                -0.448
REMARK  Name = 
REMARK  8 active torsions:
REMARK  status: ('A' for Active; 'I' for Inactive)
REMARK    1  A    between atoms: C_1  and  C_2
REMARK    2  A    between atoms: C_2  and  C_3
REMARK    3  A    between atoms: C_2  and  C_4
REMARK    4  A    between atoms: C_2  and  C_5
REMARK    5  A    between atoms: N_7  and  C_8
REMARK    6  A    between atoms: C_8  and  C_9
REMARK    7  A    between atoms: CA_18  and  C_19
REMARK    8  A    between atoms: C_19  and  OXT_21
REMARK                            x       y       z     vdW  Elec       q    Type
REMARK                         _______ _______ _______ _____ _____    ______ ____
ROOT
ATOM      1  C   UNL     1      47.722   4.631  15.835  0.00  0.00    +0.000 A 
ATOM      2  C   UNL     1      46.962   3.704  15.135  0.00  0.00    +0.000 A 
ATOM      3  N   UNL     1      46.744   4.160  13.858  0.00  0.00    +0.000 N 
ATOM      4  C   UNL     1      47.300   5.415  13.720  0.00  0.00    +0.000 A 
ATOM      5  C   UNL     1      47.304   6.343  12.666  0.00  0.00    +0.000 A 
ATOM      6  C   UNL     1      48.049   7.498  12.857  0.00  0.00    +0.000 A 
ATOM      7  CA  UNL     1      48.716   7.695  14.064  0.00  0.00    +0.000 A 
ATOM      8  N   UNL     1      48.691   6.841  15.117  0.00  0.00    +0.000 NA
ATOM      9  C   UNL     1      47.959   5.707  14.919  0.00  0.00    +0.000 A 
ENDROOT
BRANCH   1  11
ATOM     10  C   UNL     1      47.803   3.044  17.763  0.00  0.00    +0.000 C 
ATOM     11  C   UNL     1      48.188   4.456  17.276  0.00  0.00    +0.000 C 
ATOM     12  C   UNL     1      47.505   5.501  18.184  0.00  0.00    +0.000 C 
ATOM     13  C   UNL     1      49.709   4.618  17.442  0.00  0.00    +0.000 C 
ENDBRANCH   1  11
BRANCH   7  14
ATOM     14  C   UNL     1      49.559   8.919  14.231  0.00  0.00    +0.000 C 
ATOM     15  O   UNL     1      50.209   9.431  13.333  0.00  0.00    +0.000 OA
BRANCH  14  16
ATOM     16  OXT UNL     1      49.518   9.403  15.495  0.00  0.00    +0.000 OA
ATOM     17  HXT UNL     1      49.933   8.759  16.113  0.00  0.00    +0.000 HD
ENDBRANCH  14  16
ENDBRANCH   7  14
BRANCH   3  18
ATOM     18  C   UNL     1      46.119   3.339  12.818  0.00  0.00    +0.000 C 
BRANCH  18  19
ATOM     19  C   UNL     1      44.848   3.970  12.315  0.00  0.00    +0.000 A 
ATOM     20  C   UNL     1      44.673   4.218  10.952  0.00  0.00    +0.000 A 
ATOM     21  C   UNL     1      43.572   4.955  10.547  0.00  0.00    +0.000 A 
ATOM     22  N   UNL     1      42.633   5.428  11.392  0.00  0.00    +0.000 NA
ATOM     23  C   UNL     1      42.789   5.135  12.698  0.00  0.00    +0.000 A 
ATOM     24  C   UNL     1      43.855   4.403  13.200  0.00  0.00    +0.000 A 
ENDBRANCH  18  19
ENDBRANCH   3  18
TORSDOF 5
ENDMDL
MODEL 9
REMARK VINA RESULT:    -5.024      3.127      4.051
REMARK INTER + INTRA:          -6.793
REMARK INTER:                  -6.685
REMARK INTRA:                  -0.108
REMARK UNBOUND:                -0.448
REMARK  Name = 
REMARK  8 active torsions:
REMARK  status: ('A' for Active; 'I' for Inactive)
REMARK    1  A    between atoms: C_1  and  C_2
REMARK    2  A    between atoms: C_2  and  C_3
REMARK    3  A    between atoms: C_2  and  C_4
REMARK    4  A    between atoms: C_2  and  C_5
REMARK    5  A    between atoms: N_7  and  C_8
REMARK    6  A    between atoms: C_8  and  C_9
REMARK    7  A    between atoms: CA_18  and  C_19
REMARK    8  A    between atoms: C_19  and  OXT_21
REMARK                            x       y       z     vdW  Elec       q    Type
REMARK                         _______ _______ _______ _____ _____    ______ ____
ROOT
ATOM      1  C   UNL     1      48.438   6.662  14.480  0.00  0.00    +0.000 A 
ATOM      2  C   UNL     1      47.769   5.960  13.487  0.00  0.00    +0.000 A 
ATOM      3  N   UNL     1      47.139   4.873  14.040  0.00  0.00    +0.000 N 
ATOM      4  C   UNL     1      47.436   4.808  15.386  0.00  0.00    +0.000 A 
ATOM      5  C   UNL     1      47.117   3.875  16.386  0.00  0.00    +0.000 A 
ATOM      6  C   UNL     1      47.528   4.181  17.676  0.00  0.00    +0.000 A 
ATOM      7  CA  UNL     1      48.245   5.353  17.910  0.00  0.00    +0.000 A 
ATOM      8  N   UNL     1      48.610   6.247  16.958  0.00  0.00    +0.000 NA
ATOM      9  C   UNL     1      48.199   5.939  15.694  0.00  0.00    +0.000 A 
ENDROOT
BRANCH   1  11
ATOM     10  C   UNL     1      49.259   8.255  12.738  0.00  0.00    +0.000 C 
ATOM     11  C   UNL     1      49.227   7.946  14.249  0.00  0.00    +0.000 C 
ATOM     12  C   UNL     1      50.675   7.776  14.755  0.00  0.00    +0.000 C 
ATOM     13  C   UNL     1      48.623   9.164  14.971  0.00  0.00    +0.000 C 
ENDBRANCH   1  11
BRANCH   7  14
ATOM     14  C   UNL     1      48.632   5.694  19.314  0.00  0.00    +0.000 C 
ATOM     15  O   UNL     1      49.143   4.906  20.094  0.00  0.00    +0.000 OA
BRANCH  14  16
ATOM     16  OXT UNL     1      48.353   6.982  19.625  0.00  0.00    +0.000 OA
ATOM     17  HXT UNL     1      47.743   7.364  18.954  0.00  0.00    +0.000 HD
ENDBRANCH  14  16
ENDBRANCH   7  14
BRANCH   3  18
ATOM     18  C   UNL     1      46.212   4.025  13.287  0.00  0.00    +0.000 C 
BRANCH  18  19
ATOM     19  C   UNL     1      45.041   4.818  12.771  0.00  0.00    +0.000 A 
ATOM     20  C   UNL     1      43.734   4.402  13.032  0.00  0.00    +0.000 A 
ATOM     21  C   UNL     1      42.690   5.055  12.398  0.00  0.00    +0.000 A 
ATOM     22  N   UNL     1      42.855   6.097  11.558  0.00  0.00    +0.000 NA
ATOM     23  C   UNL     1      44.120   6.520  11.358  0.00  0.00    +0.000 A 
ATOM     24  C   UNL     1      45.229   5.934  11.948  0.00  0.00    +0.000 A 
ENDBRANCH  18  19
ENDBRANCH   3  18
TORSDOF 5
ENDMDL
