MODEL 1
REMARK VINA RESULT:    -6.788      0.000      0.000
REMARK INTER + INTRA:         -11.201
REMARK INTER:                  -9.566
REMARK INTRA:                  -1.635
REMARK UNBOUND:                -1.635
REMARK  Name = 
REMARK  10 active torsions:
REMARK  status: ('A' for Active; 'I' for Inactive)
REMARK    1  A    between atoms: C_1  and  N_2
REMARK    2  A    between atoms: N_5  and  C_6
REMARK    3  A    between atoms: C_10  and  C_11
REMARK    4  A    between atoms: C_11  and  C_12
REMARK    5  A    between atoms: C_11  and  C_13
REMARK    6  A    between atoms: C_11  and  C_14
REMARK    7  A    between atoms: C_14  and  N_15
REMARK    8  A    between atoms: N_15  and  C_16
REMARK    9  A    between atoms: C_19  and  C_20
REMARK   10  A    between atoms: C_21  and  C_22
REMARK                            x       y       z     vdW  Elec       q    Type
REMARK                         _______ _______ _______ _____ _____    ______ ____
ROOT
ATOM      1  C   UNL     1      49.755   9.098  12.255  0.00  0.00    +0.000 C 
ATOM      2  C   UNL     1      50.480   7.970  11.481  0.00  0.00    +0.000 C 
ATOM      3  C   UNL     1      50.142  10.471  11.663  0.00  0.00    +0.000 C 
ENDROOT
BRANCH   1   8
ATOM      4  C   UNL     1      46.364   7.270  11.780  0.00  0.00    +0.000 A 
ATOM      5  C   UNL     1      45.468   8.322  11.984  0.00  0.00    +0.000 A 
ATOM      6  C   UNL     1      45.914   9.622  12.220  0.00  0.00    +0.000 A 
ATOM      7  C   UNL     1      47.281   9.898  12.281  0.00  0.00    +0.000 A 
ATOM      8  C   UNL     1      48.227   8.882  12.092  0.00  0.00    +0.000 A 
ATOM      9  C   UNL     1      47.732   7.589  11.804  0.00  0.00    +0.000 A 
BRANCH   4  14
ATOM     10  C   UNL     1      43.249   2.682  11.650  0.00  0.00    +0.000 C 
ATOM     11  N   UNL     1      44.478   3.460  11.523  0.00  0.00    +0.000 NA
ATOM     12  C   UNL     1      44.319   4.518  10.498  0.00  0.00    +0.000 C 
ATOM     13  C   UNL     1      45.583   5.395  10.343  0.00  0.00    +0.000 C 
ATOM     14  N   UNL     1      45.949   5.963  11.647  0.00  0.00    +0.000 N 
ATOM     15  C   UNL     1      46.106   4.970  12.720  0.00  0.00    +0.000 C 
ATOM     16  C   UNL     1      44.837   4.090  12.816  0.00  0.00    +0.000 C 
ENDBRANCH   4  14
ENDBRANCH   1   8
BRANCH   1  17
ATOM     17  C   UNL     1      50.204   9.063  13.752  0.00  0.00    +0.000 C 
BRANCH  17  18
ATOM     18  N   UNL     1      50.846   7.796  14.151  0.00  0.00    +0.000 N 
ATOM     19  H   UNL     1      51.052   7.205  13.351  0.00  0.00    +0.000 HD
BRANCH  18  20
ATOM     20  C   UNL     1      50.173   7.037  15.129  0.00  0.00    +0.000 A 
ATOM     21  C   UNL     1      50.849   6.680  16.303  0.00  0.00    +0.000 A 
ATOM     22  C   UNL     1      50.241   5.864  17.268  0.00  0.00    +0.000 A 
ATOM     23  C   UNL     1      48.933   5.415  17.081  0.00  0.00    +0.000 A 
ATOM     24  C   UNL     1      48.205   5.881  15.987  0.00  0.00    +0.000 A 
ATOM     25  C   UNL     1      48.817   6.702  15.034  0.00  0.00    +0.000 A 
BRANCH  23  26
ATOM     26  C   UNL     1      48.384   4.351  17.920  0.00  0.00    +0.000 C 
ATOM     27  C   UNL     1      48.669   3.043  17.943  0.00  0.00    +0.000 C 
BRANCH  27  28
ATOM     28  C   UNL     1      49.624   2.328  17.064  0.00  0.00    +0.000 C 
ATOM     29  N   UNL     1      50.871   2.228  17.601  0.00  0.00    +0.000 N 
ATOM     30  O   UNL     1      49.359   1.866  15.969  0.00  0.00    +0.000 OA
ATOM     31  H   UNL     1      51.134   2.581  18.509  0.00  0.00    +0.000 HD
ATOM     32  H   UNL     1      51.566   1.734  17.056  0.00  0.00    +0.000 HD
ENDBRANCH  27  28
ENDBRANCH  23  26
ENDBRANCH  18  20
ENDBRANCH  17  18
ENDBRANCH   1  17
TORSDOF 7
ENDMDL
MODEL 2
REMARK VINA RESULT:    -6.550      3.426      8.253
REMARK INTER + INTRA:         -10.865
REMARK INTER:                 -10.834
REMARK INTRA:                  -0.031
REMARK UNBOUND:                -1.635
REMARK  Name = 
REMARK  10 active torsions:
REMARK  status: ('A' for Active; 'I' for Inactive)
REMARK    1  A    between atoms: C_1  and  N_2
REMARK    2  A    between atoms: N_5  and  C_6
REMARK    3  A    between atoms: C_10  and  C_11
REMARK    4  A    between atoms: C_11  and  C_12
REMARK    5  A    between atoms: C_11  and  C_13
REMARK    6  A    between atoms: C_11  and  C_14
REMARK    7  A    between atoms: C_14  and  N_15
REMARK    8  A    between atoms: N_15  and  C_16
REMARK    9  A    between atoms: C_19  and  C_20
REMARK   10  A    between atoms: C_21  and  C_22
REMARK                            x       y       z     vdW  Elec       q    Type
REMARK                         _______ _______ _______ _____ _____    ______ ____
ROOT
ATOM      1  C   UNL     1      45.930   6.556  12.464  0.00  0.00    +0.000 C 
ATOM      2  C   UNL     1      45.470   7.972  12.889  0.00  0.00    +0.000 C 
ATOM      3  C   UNL     1      46.826   6.652  11.210  0.00  0.00    +0.000 C 
ENDROOT
BRANCH   1   8
ATOM      4  C   UNL     1      48.602   6.241  15.261  0.00  0.00    +0.000 A 
ATOM      5  C   UNL     1      48.189   5.063  15.887  0.00  0.00    +0.000 A 
ATOM      6  C   UNL     1      47.104   4.327  15.410  0.00  0.00    +0.000 A 
ATOM      7  C   UNL     1      46.386   4.771  14.299  0.00  0.00    +0.000 A 
ATOM      8  C   UNL     1      46.749   5.950  13.634  0.00  0.00    +0.000 A 
ATOM      9  C   UNL     1      47.885   6.637  14.119  0.00  0.00    +0.000 A 
BRANCH   4  14
ATOM     10  C   UNL     1      53.457   8.022  17.265  0.00  0.00    +0.000 C 
ATOM     11  N   UNL     1      52.069   8.150  16.833  0.00  0.00    +0.000 NA
ATOM     12  C   UNL     1      51.929   7.758  15.411  0.00  0.00    +0.000 C 
ATOM     13  C   UNL     1      50.470   7.845  14.907  0.00  0.00    +0.000 C 
ATOM     14  N   UNL     1      49.603   7.036  15.774  0.00  0.00    +0.000 N 
ATOM     15  C   UNL     1      49.703   7.358  17.205  0.00  0.00    +0.000 C 
ATOM     16  C   UNL     1      51.181   7.297  17.659  0.00  0.00    +0.000 C 
ENDBRANCH   4  14
ENDBRANCH   1   8
BRANCH   1  17
ATOM     17  C   UNL     1      44.675   5.695  12.107  0.00  0.00    +0.000 C 
BRANCH  17  18
ATOM     18  N   UNL     1      44.326   5.719  10.673  0.00  0.00    +0.000 N 
ATOM     19  H   UNL     1      43.334   5.878  10.525  0.00  0.00    +0.000 HD
BRANCH  18  20
ATOM     20  C   UNL     1      44.736   4.605   9.914  0.00  0.00    +0.000 A 
ATOM     21  C   UNL     1      44.313   3.324  10.296  0.00  0.00    +0.000 A 
ATOM     22  C   UNL     1      44.756   2.183   9.612  0.00  0.00    +0.000 A 
ATOM     23  C   UNL     1      45.611   2.312   8.517  0.00  0.00    +0.000 A 
ATOM     24  C   UNL     1      45.922   3.586   8.044  0.00  0.00    +0.000 A 
ATOM     25  C   UNL     1      45.468   4.718   8.727  0.00  0.00    +0.000 A 
BRANCH  23  26
ATOM     26  C   UNL     1      46.302   1.144   7.971  0.00  0.00    +0.000 C 
ATOM     27  C   UNL     1      47.162   1.056   6.948  0.00  0.00    +0.000 C 
BRANCH  27  28
ATOM     28  C   UNL     1      47.612   2.163   6.071  0.00  0.00    +0.000 C 
ATOM     29  N   UNL     1      48.854   2.622   6.385  0.00  0.00    +0.000 N 
ATOM     30  O   UNL     1      46.965   2.640   5.156  0.00  0.00    +0.000 OA
ATOM     31  H   UNL     1      49.433   2.250   7.123  0.00  0.00    +0.000 HD
ATOM     32  H   UNL     1      49.225   3.367   5.809  0.00  0.00    +0.000 HD
ENDBRANCH  27  28
ENDBRANCH  23  26
ENDBRANCH  18  20
ENDBRANCH  17  18
ENDBRANCH   1  17
TORSDOF 7
ENDMDL
MODEL 3
REMARK VINA RESULT:    -6.449      2.484      3.894
REMARK INTER + INTRA:         -10.723
REMARK INTER:                  -9.777
REMARK INTRA:                  -0.946
REMARK UNBOUND:                -1.635
REMARK  Name = 
REMARK  10 active torsions:
REMARK  status: ('A' for Active; 'I' for Inactive)
REMARK    1  A    between atoms: C_1  and  N_2
REMARK    2  A    between atoms: N_5  and  C_6
REMARK    3  A    between atoms: C_10  and  C_11
REMARK    4  A    between atoms: C_11  and  C_12
REMARK    5  A    between atoms: C_11  and  C_13
REMARK    6  A    between atoms: C_11  and  C_14
REMARK    7  A    between atoms: C_14  and  N_15
REMARK    8  A    between atoms: N_15  and  C_16
REMARK    9  A    between atoms: C_19  and  C_20
REMARK   10  A    between atoms: C_21  and  C_22
REMARK                            x       y       z     vdW  Elec       q    Type
REMARK                         _______ _______ _______ _____ _____    ______ ____
ROOT
ATOM      1  C   UNL     1      46.521   6.909  12.766  0.00  0.00    +0.000 C 
ATOM      2  C   UNL     1      47.606   7.102  11.678  0.00  0.00    +0.000 C 
ATOM      3  C   UNL     1      45.906   8.275  13.139  0.00  0.00    +0.000 C 
ENDROOT
BRANCH   1   8
ATOM      4  C   UNL     1      44.747   4.403  10.390  0.00  0.00    +0.000 A 
ATOM      5  C   UNL     1      43.579   4.143  11.109  0.00  0.00    +0.000 A 
ATOM      6  C   UNL     1      43.309   4.785  12.316  0.00  0.00    +0.000 A 
ATOM      7  C   UNL     1      44.222   5.696  12.849  0.00  0.00    +0.000 A 
ATOM      8  C   UNL     1      45.416   5.993  12.177  0.00  0.00    +0.000 A 
ATOM      9  C   UNL     1      45.625   5.357  10.932  0.00  0.00    +0.000 A 
BRANCH   4  14
ATOM     10  C   UNL     1      47.522   1.450   6.603  0.00  0.00    +0.000 C 
ATOM     11  N   UNL     1      46.373   2.159   7.156  0.00  0.00    +0.000 NA
ATOM     12  C   UNL     1      45.955   1.551   8.440  0.00  0.00    +0.000 C 
ATOM     13  C   UNL     1      44.757   2.283   9.087  0.00  0.00    +0.000 C 
ATOM     14  N   UNL     1      45.083   3.706   9.249  0.00  0.00    +0.000 N 
ATOM     15  C   UNL     1      45.524   4.374   8.016  0.00  0.00    +0.000 C 
ATOM     16  C   UNL     1      46.696   3.588   7.381  0.00  0.00    +0.000 C 
ENDBRANCH   4  14
ENDBRANCH   1   8
BRANCH   1  17
ATOM     17  C   UNL     1      47.180   6.299  14.045  0.00  0.00    +0.000 C 
BRANCH  17  18
ATOM     18  N   UNL     1      48.134   7.206  14.712  0.00  0.00    +0.000 N 
ATOM     19  H   UNL     1      48.685   7.737  14.044  0.00  0.00    +0.000 HD
BRANCH  18  20
ATOM     20  C   UNL     1      48.994   6.618  15.660  0.00  0.00    +0.000 A 
ATOM     21  C   UNL     1      48.537   5.529  16.416  0.00  0.00    +0.000 A 
ATOM     22  C   UNL     1      49.333   4.962  17.420  0.00  0.00    +0.000 A 
ATOM     23  C   UNL     1      50.612   5.462  17.665  0.00  0.00    +0.000 A 
ATOM     24  C   UNL     1      51.128   6.448  16.826  0.00  0.00    +0.000 A 
ATOM     25  C   UNL     1      50.330   7.002  15.821  0.00  0.00    +0.000 A 
BRANCH  23  26
ATOM     26  C   UNL     1      51.342   5.080  18.875  0.00  0.00    +0.000 C 
ATOM     27  C   UNL     1      52.158   4.041  19.093  0.00  0.00    +0.000 C 
BRANCH  27  28
ATOM     28  C   UNL     1      52.504   2.969  18.131  0.00  0.00    +0.000 C 
ATOM     29  N   UNL     1      51.531   2.025  18.011  0.00  0.00    +0.000 N 
ATOM     30  O   UNL     1      53.542   2.903  17.496  0.00  0.00    +0.000 OA
ATOM     31  H   UNL     1      50.650   2.043  18.503  0.00  0.00    +0.000 HD
ATOM     32  H   UNL     1      51.700   1.274  17.354  0.00  0.00    +0.000 HD
ENDBRANCH  27  28
ENDBRANCH  23  26
ENDBRANCH  18  20
ENDBRANCH  17  18
ENDBRANCH   1  17
TORSDOF 7
ENDMDL
MODEL 4
REMARK VINA RESULT:    -6.373      2.470      6.408
REMARK INTER + INTRA:         -10.616
REMARK INTER:                  -9.079
REMARK INTRA:                  -1.537
REMARK UNBOUND:                -1.635
REMARK  Name = 
REMARK  10 active torsions:
REMARK  status: ('A' for Active; 'I' for Inactive)
REMARK    1  A    between atoms: C_1  and  N_2
REMARK    2  A    between atoms: N_5  and  C_6
REMARK    3  A    between atoms: C_10  and  C_11
REMARK    4  A    between atoms: C_11  and  C_12
REMARK    5  A    between atoms: C_11  and  C_13
REMARK    6  A    between atoms: C_11  and  C_14
REMARK    7  A    between atoms: C_14  and  N_15
REMARK    8  A    between atoms: N_15  and  C_16
REMARK    9  A    between atoms: C_19  and  C_20
REMARK   10  A    between atoms: C_21  and  C_22
REMARK                            x       y       z     vdW  Elec       q    Type
REMARK                         _______ _______ _______ _____ _____    ______ ____
ROOT
ATOM      1  C   UNL     1      48.911   9.268  14.373  0.00  0.00    +0.000 C 
ATOM      2  C   UNL     1      49.223  10.783  14.455  0.00  0.00    +0.000 C 
ATOM      3  C   UNL     1      50.145   8.507  13.842  0.00  0.00    +0.000 C 
ENDROOT
BRANCH   1   8
ATOM      4  C   UNL     1      48.666   6.909  17.446  0.00  0.00    +0.000 A 
ATOM      5  C   UNL     1      48.226   7.800  18.426  0.00  0.00    +0.000 A 
ATOM      6  C   UNL     1      47.951   9.134  18.127  0.00  0.00    +0.000 A 
ATOM      7  C   UNL     1      48.135   9.618  16.831  0.00  0.00    +0.000 A 
ATOM      8  C   UNL     1      48.581   8.772  15.806  0.00  0.00    +0.000 A 
ATOM      9  C   UNL     1      48.799   7.417  16.142  0.00  0.00    +0.000 A 
BRANCH   4  14
ATOM     10  C   UNL     1      50.708   1.766  17.074  0.00  0.00    +0.000 C 
ATOM     11  N   UNL     1      50.060   2.895  17.733  0.00  0.00    +0.000 NA
ATOM     12  C   UNL     1      50.959   4.073  17.748  0.00  0.00    +0.000 C 
ATOM     13  C   UNL     1      50.312   5.311  18.410  0.00  0.00    +0.000 C 
ATOM     14  N   UNL     1      49.041   5.616  17.739  0.00  0.00    +0.000 N 
ATOM     15  C   UNL     1      48.103   4.486  17.670  0.00  0.00    +0.000 C 
ATOM     16  C   UNL     1      48.802   3.258  17.039  0.00  0.00    +0.000 C 
ENDBRANCH   4  14
ENDBRANCH   1   8
BRANCH   1  17
ATOM     17  C   UNL     1      47.728   9.041  13.378  0.00  0.00    +0.000 C 
BRANCH  17  18
ATOM     18  N   UNL     1      47.839   7.795  12.597  0.00  0.00    +0.000 N 
ATOM     19  H   UNL     1      47.953   7.976  11.604  0.00  0.00    +0.000 HD
BRANCH  18  20
ATOM     20  C   UNL     1      46.811   6.849  12.781  0.00  0.00    +0.000 A 
ATOM     21  C   UNL     1      47.139   5.557  13.213  0.00  0.00    +0.000 A 
ATOM     22  C   UNL     1      46.156   4.566  13.339  0.00  0.00    +0.000 A 
ATOM     23  C   UNL     1      44.822   4.863  13.058  0.00  0.00    +0.000 A 
ATOM     24  C   UNL     1      44.467   6.179  12.766  0.00  0.00    +0.000 A 
ATOM     25  C   UNL     1      45.453   7.164  12.652  0.00  0.00    +0.000 A 
BRANCH  23  26
ATOM     26  C   UNL     1      43.835   3.793  12.910  0.00  0.00    +0.000 C 
ATOM     27  C   UNL     1      43.472   3.106  11.820  0.00  0.00    +0.000 C 
BRANCH  27  28
ATOM     28  C   UNL     1      43.981   3.295  10.442  0.00  0.00    +0.000 C 
ATOM     29  N   UNL     1      44.638   2.205   9.961  0.00  0.00    +0.000 N 
ATOM     30  O   UNL     1      43.848   4.307   9.777  0.00  0.00    +0.000 OA
ATOM     31  H   UNL     1      44.761   1.340  10.467  0.00  0.00    +0.000 HD
ATOM     32  H   UNL     1      44.995   2.265   9.016  0.00  0.00    +0.000 HD
ENDBRANCH  27  28
ENDBRANCH  23  26
ENDBRANCH  18  20
ENDBRANCH  17  18
ENDBRANCH   1  17
TORSDOF 7
ENDMDL
MODEL 5
REMARK VINA RESULT:    -6.366      2.599      7.061
REMARK INTER + INTRA:         -10.606
REMARK INTER:                  -9.647
REMARK INTRA:                  -0.959
REMARK UNBOUND:                -1.635
REMARK  Name = 
REMARK  10 active torsions:
REMARK  status: ('A' for Active; 'I' for Inactive)
REMARK    1  A    between atoms: C_1  and  N_2
REMARK    2  A    between atoms: N_5  and  C_6
REMARK    3  A    between atoms: C_10  and  C_11
REMARK    4  A    between atoms: C_11  and  C_12
REMARK    5  A    between atoms: C_11  and  C_13
REMARK    6  A    between atoms: C_11  and  C_14
REMARK    7  A    between atoms: C_14  and  N_15
REMARK    8  A    between atoms: N_15  and  C_16
REMARK    9  A    between atoms: C_19  and  C_20
REMARK   10  A    between atoms: C_21  and  C_22
REMARK                            x       y       z     vdW  Elec       q    Type
REMARK                         _______ _______ _______ _____ _____    ______ ____
ROOT
ATOM      1  C   UNL     1      47.770   7.992  13.062  0.00  0.00    +0.000 C 
ATOM      2  C   UNL     1      48.197   9.331  12.412  0.00  0.00    +0.000 C 
ATOM      3  C   UNL     1      48.507   6.820  12.378  0.00  0.00    +0.000 C 
ENDROOT
BRANCH   1   8
ATOM      4  C   UNL     1      48.932   6.791  16.565  0.00  0.00    +0.000 A 
ATOM      5  C   UNL     1      49.105   8.013  17.218  0.00  0.00    +0.000 A 
ATOM      6  C   UNL     1      48.809   9.222  16.588  0.00  0.00    +0.000 A 
ATOM      7  C   UNL     1      48.353   9.237  15.270  0.00  0.00    +0.000 A 
ATOM      8  C   UNL     1      48.168   8.042  14.561  0.00  0.00    +0.000 A 
ATOM      9  C   UNL     1      48.430   6.838  15.254  0.00  0.00    +0.000 A 
BRANCH   4  14
ATOM     10  C   UNL     1      50.990   1.694  17.306  0.00  0.00    +0.000 C 
ATOM     11  N   UNL     1      50.343   2.939  17.709  0.00  0.00    +0.000 NA
ATOM     12  C   UNL     1      51.237   4.093  17.462  0.00  0.00    +0.000 C 
ATOM     13  C   UNL     1      50.589   5.444  17.843  0.00  0.00    +0.000 C 
ATOM     14  N   UNL     1      49.314   5.593  17.130  0.00  0.00    +0.000 N 
ATOM     15  C   UNL     1      48.379   4.473  17.314  0.00  0.00    +0.000 C 
ATOM     16  C   UNL     1      49.079   3.139  16.960  0.00  0.00    +0.000 C 
ENDBRANCH   4  14
ENDBRANCH   1   8
BRANCH   1  17
ATOM     17  C   UNL     1      46.233   7.791  12.860  0.00  0.00    +0.000 C 
BRANCH  17  18
ATOM     18  N   UNL     1      45.720   6.527  13.423  0.00  0.00    +0.000 N 
ATOM     19  H   UNL     1      46.394   6.084  14.041  0.00  0.00    +0.000 HD
BRANCH  18  20
ATOM     20  C   UNL     1      45.248   5.578  12.496  0.00  0.00    +0.000 A 
ATOM     21  C   UNL     1      45.628   4.236  12.636  0.00  0.00    +0.000 A 
ATOM     22  C   UNL     1      45.239   3.273  11.694  0.00  0.00    +0.000 A 
ATOM     23  C   UNL     1      44.442   3.637  10.609  0.00  0.00    +0.000 A 
ATOM     24  C   UNL     1      43.943   4.937  10.538  0.00  0.00    +0.000 A 
ATOM     25  C   UNL     1      44.327   5.889  11.488  0.00  0.00    +0.000 A 
BRANCH  23  26
ATOM     26  C   UNL     1      44.261   2.726   9.478  0.00  0.00    +0.000 C 
ATOM     27  C   UNL     1      44.912   2.669   8.310  0.00  0.00    +0.000 C 
BRANCH  27  28
ATOM     28  C   UNL     1      45.995   3.572   7.853  0.00  0.00    +0.000 C 
ATOM     29  N   UNL     1      47.057   2.906   7.322  0.00  0.00    +0.000 N 
ATOM     30  O   UNL     1      45.974   4.787   7.930  0.00  0.00    +0.000 OA
ATOM     31  H   UNL     1      47.114   1.904   7.224  0.00  0.00    +0.000 HD
ATOM     32  H   UNL     1      47.823   3.470   6.975  0.00  0.00    +0.000 HD
ENDBRANCH  27  28
ENDBRANCH  23  26
ENDBRANCH  18  20
ENDBRANCH  17  18
ENDBRANCH   1  17
TORSDOF 7
ENDMDL
MODEL 6
REMARK VINA RESULT:    -6.270      2.745      7.578
REMARK INTER + INTRA:         -10.471
REMARK INTER:                  -9.430
REMARK INTRA:                  -1.041
REMARK UNBOUND:                -1.635
REMARK  Name = 
REMARK  10 active torsions:
REMARK  status: ('A' for Active; 'I' for Inactive)
REMARK    1  A    between atoms: C_1  and  N_2
REMARK    2  A    between atoms: N_5  and  C_6
REMARK    3  A    between atoms: C_10  and  C_11
REMARK    4  A    between atoms: C_11  and  C_12
REMARK    5  A    between atoms: C_11  and  C_13
REMARK    6  A    between atoms: C_11  and  C_14
REMARK    7  A    between atoms: C_14  and  N_15
REMARK    8  A    between atoms: N_15  and  C_16
REMARK    9  A    between atoms: C_19  and  C_20
REMARK   10  A    between atoms: C_21  and  C_22
REMARK                            x       y       z     vdW  Elec       q    Type
REMARK                         _______ _______ _______ _____ _____    ______ ____
ROOT
ATOM      1  C   UNL     1      49.231   7.831  14.977  0.00  0.00    +0.000 C 
ATOM      2  C   UNL     1      48.483   9.187  14.980  0.00  0.00    +0.000 C 
ATOM      3  C   UNL     1      50.720   8.056  14.634  0.00  0.00    +0.000 C 
ENDROOT
BRANCH   1   8
ATOM      4  C   UNL     1      49.689   5.346  17.923  0.00  0.00    +0.000 A 
ATOM      5  C   UNL     1      49.172   6.096  18.982  0.00  0.00    +0.000 A 
ATOM      6  C   UNL     1      48.627   7.363  18.778  0.00  0.00    +0.000 A 
ATOM      7  C   UNL     1      48.608   7.925  17.501  0.00  0.00    +0.000 A 
ATOM      8  C   UNL     1      49.120   7.223  16.400  0.00  0.00    +0.000 A 
ATOM      9  C   UNL     1      49.616   5.922  16.643  0.00  0.00    +0.000 A 
BRANCH   4  14
ATOM     10  C   UNL     1      52.892   0.870  17.240  0.00  0.00    +0.000 C 
ATOM     11  N   UNL     1      51.941   1.731  17.936  0.00  0.00    +0.000 NA
ATOM     12  C   UNL     1      52.537   3.063  18.192  0.00  0.00    +0.000 C 
ATOM     13  C   UNL     1      51.560   4.029  18.901  0.00  0.00    +0.000 C 
ATOM     14  N   UNL     1      50.323   4.138  18.116  0.00  0.00    +0.000 N 
ATOM     15  C   UNL     1      49.684   2.851  17.807  0.00  0.00    +0.000 C 
ATOM     16  C   UNL     1      50.705   1.902  17.135  0.00  0.00    +0.000 C 
ENDBRANCH   4  14
ENDBRANCH   1   8
BRANCH   1  17
ATOM     17  C   UNL     1      48.609   6.904  13.884  0.00  0.00    +0.000 C 
BRANCH  17  18
ATOM     18  N   UNL     1      47.144   6.757  13.993  0.00  0.00    +0.000 N 
ATOM     19  H   UNL     1      46.868   6.353  14.883  0.00  0.00    +0.000 HD
BRANCH  18  20
ATOM     20  C   UNL     1      46.509   6.057  12.948  0.00  0.00    +0.000 A 
ATOM     21  C   UNL     1      46.490   6.616  11.663  0.00  0.00    +0.000 A 
ATOM     22  C   UNL     1      45.807   5.989  10.612  0.00  0.00    +0.000 A 
ATOM     23  C   UNL     1      45.152   4.776  10.828  0.00  0.00    +0.000 A 
ATOM     24  C   UNL     1      45.284   4.144  12.063  0.00  0.00    +0.000 A 
ATOM     25  C   UNL     1      45.976   4.772  13.104  0.00  0.00    +0.000 A 
BRANCH  23  26
ATOM     26  C   UNL     1      44.210   4.252   9.839  0.00  0.00    +0.000 C 
ATOM     27  C   UNL     1      44.441   3.716   8.634  0.00  0.00    +0.000 C 
BRANCH  27  28
ATOM     28  C   UNL     1      45.758   3.551   7.975  0.00  0.00    +0.000 C 
ATOM     29  N   UNL     1      46.193   2.261   7.968  0.00  0.00    +0.000 N 
ATOM     30  O   UNL     1      46.414   4.451   7.482  0.00  0.00    +0.000 OA
ATOM     31  H   UNL     1      45.679   1.481   8.350  0.00  0.00    +0.000 HD
ATOM     32  H   UNL     1      47.080   2.080   7.515  0.00  0.00    +0.000 HD
ENDBRANCH  27  28
ENDBRANCH  23  26
ENDBRANCH  18  20
ENDBRANCH  17  18
ENDBRANCH   1  17
TORSDOF 7
ENDMDL
MODEL 7
REMARK VINA RESULT:    -6.143      2.592      6.652
REMARK INTER + INTRA:         -10.292
REMARK INTER:                  -9.032
REMARK INTRA:                  -1.260
REMARK UNBOUND:                -1.635
REMARK  Name = 
REMARK  10 active torsions:
REMARK  status: ('A' for Active; 'I' for Inactive)
REMARK    1  A    between atoms: C_1  and  N_2
REMARK    2  A    between atoms: N_5  and  C_6
REMARK    3  A    between atoms: C_10  and  C_11
REMARK    4  A    between atoms: C_11  and  C_12
REMARK    5  A    between atoms: C_11  and  C_13
REMARK    6  A    between atoms: C_11  and  C_14
REMARK    7  A    between atoms: C_14  and  N_15
REMARK    8  A    between atoms: N_15  and  C_16
REMARK    9  A    between atoms: C_19  and  C_20
REMARK   10  A    between atoms: C_21  and  C_22
REMARK                            x       y       z     vdW  Elec       q    Type
REMARK                         _______ _______ _______ _____ _____    ______ ____
ROOT
ATOM      1  C   UNL     1      49.149   9.803  15.334  0.00  0.00    +0.000 C 
ATOM      2  C   UNL     1      49.014  11.319  15.618  0.00  0.00    +0.000 C 
ATOM      3  C   UNL     1      50.638   9.436  15.149  0.00  0.00    +0.000 C 
ENDROOT
BRANCH   1   8
ATOM      4  C   UNL     1      48.550   6.934  17.878  0.00  0.00    +0.000 A 
ATOM      5  C   UNL     1      47.792   7.596  18.846  0.00  0.00    +0.000 A 
ATOM      6  C   UNL     1      47.417   8.929  18.690  0.00  0.00    +0.000 A 
ATOM      7  C   UNL     1      47.814   9.646  17.560  0.00  0.00    +0.000 A 
ATOM      8  C   UNL     1      48.582   9.037  16.558  0.00  0.00    +0.000 A 
ATOM      9  C   UNL     1      48.897   7.670  16.733  0.00  0.00    +0.000 A 
BRANCH   4  14
ATOM     10  C   UNL     1      50.538   1.837  16.965  0.00  0.00    +0.000 C 
ATOM     11  N   UNL     1      50.062   2.954  17.776  0.00  0.00    +0.000 NA
ATOM     12  C   UNL     1      50.906   4.151  17.557  0.00  0.00    +0.000 C 
ATOM     13  C   UNL     1      50.427   5.377  18.370  0.00  0.00    +0.000 C 
ATOM     14  N   UNL     1      49.018   5.650  18.059  0.00  0.00    +0.000 N 
ATOM     15  C   UNL     1      48.121   4.499  18.235  0.00  0.00    +0.000 C 
ATOM     16  C   UNL     1      48.657   3.285  17.438  0.00  0.00    +0.000 C 
ENDBRANCH   4  14
ENDBRANCH   1   8
BRANCH   1  17
ATOM     17  C   UNL     1      48.390   9.459  14.012  0.00  0.00    +0.000 C 
BRANCH  17  18
ATOM     18  N   UNL     1      47.007   8.988  14.227  0.00  0.00    +0.000 N 
ATOM     19  H   UNL     1      46.879   8.592  15.153  0.00  0.00    +0.000 HD
BRANCH  18  20
ATOM     20  C   UNL     1      46.498   8.094  13.265  0.00  0.00    +0.000 A 
ATOM     21  C   UNL     1      45.441   8.505  12.440  0.00  0.00    +0.000 A 
ATOM     22  C   UNL     1      44.857   7.622  11.521  0.00  0.00    +0.000 A 
ATOM     23  C   UNL     1      45.340   6.320  11.397  0.00  0.00    +0.000 A 
ATOM     24  C   UNL     1      46.479   5.947  12.109  0.00  0.00    +0.000 A 
ATOM     25  C   UNL     1      47.062   6.837  13.017  0.00  0.00    +0.000 A 
BRANCH  23  26
ATOM     26  C   UNL     1      44.579   5.310  10.661  0.00  0.00    +0.000 C 
ATOM     27  C   UNL     1      43.713   4.392  11.110  0.00  0.00    +0.000 C 
BRANCH  27  28
ATOM     28  C   UNL     1      43.329   4.152  12.521  0.00  0.00    +0.000 C 
ATOM     29  N   UNL     1      43.821   2.983  13.016  0.00  0.00    +0.000 N 
ATOM     30  O   UNL     1      42.644   4.897  13.199  0.00  0.00    +0.000 OA
ATOM     31  H   UNL     1      44.404   2.342  12.499  0.00  0.00    +0.000 HD
ATOM     32  H   UNL     1      43.608   2.770  13.982  0.00  0.00    +0.000 HD
ENDBRANCH  27  28
ENDBRANCH  23  26
ENDBRANCH  18  20
ENDBRANCH  17  18
ENDBRANCH   1  17
TORSDOF 7
ENDMDL
MODEL 8
REMARK VINA RESULT:    -5.976      2.496      7.376
REMARK INTER + INTRA:         -10.056
REMARK INTER:                  -9.011
REMARK INTRA:                  -1.046
REMARK UNBOUND:                -1.635
REMARK  Name = 
REMARK  10 active torsions:
REMARK  status: ('A' for Active; 'I' for Inactive)
REMARK    1  A    between atoms: C_1  and  N_2
REMARK    2  A    between atoms: N_5  and  C_6
REMARK    3  A    between atoms: C_10  and  C_11
REMARK    4  A    between atoms: C_11  and  C_12
REMARK    5  A    between atoms: C_11  and  C_13
REMARK    6  A    between atoms: C_11  and  C_14
REMARK    7  A    between atoms: C_14  and  N_15
REMARK    8  A    between atoms: N_15  and  C_16
REMARK    9  A    between atoms: C_19  and  C_20
REMARK   10  A    between atoms: C_21  and  C_22
REMARK                            x       y       z     vdW  Elec       q    Type
REMARK                         _______ _______ _______ _____ _____    ______ ____
ROOT
ATOM      1  C   UNL     1      48.127   4.117  16.603  0.00  0.00    +0.000 C 
ATOM      2  C   UNL     1      48.911   2.909  17.172  0.00  0.00    +0.000 C 
ATOM      3  C   UNL     1      46.983   4.499  17.567  0.00  0.00    +0.000 C 
ENDROOT
BRANCH   1   8
ATOM      4  C   UNL     1      49.579   7.546  15.506  0.00  0.00    +0.000 A 
ATOM      5  C   UNL     1      50.709   7.625  16.322  0.00  0.00    +0.000 A 
ATOM      6  C   UNL     1      51.058   6.586  17.185  0.00  0.00    +0.000 A 
ATOM      7  C   UNL     1      50.263   5.442  17.268  0.00  0.00    +0.000 A 
ATOM      8  C   UNL     1      49.112   5.309  16.479  0.00  0.00    +0.000 A 
ATOM      9  C   UNL     1      48.824   6.362  15.582  0.00  0.00    +0.000 A 
BRANCH   4  14
ATOM     10  C   UNL     1      48.481  10.821  11.167  0.00  0.00    +0.000 C 
ATOM     11  N   UNL     1      48.500  10.443  12.577  0.00  0.00    +0.000 NA
ATOM     12  C   UNL     1      47.756   9.179  12.785  0.00  0.00    +0.000 C 
ATOM     13  C   UNL     1      47.769   8.713  14.260  0.00  0.00    +0.000 C 
ATOM     14  N   UNL     1      49.158   8.599  14.724  0.00  0.00    +0.000 N 
ATOM     15  C   UNL     1      49.966   9.813  14.531  0.00  0.00    +0.000 C 
ATOM     16  C   UNL     1      49.893  10.266  13.054  0.00  0.00    +0.000 C 
ENDBRANCH   4  14
ENDBRANCH   1   8
BRANCH   1  17
ATOM     17  C   UNL     1      47.499   3.719  15.228  0.00  0.00    +0.000 C 
BRANCH  17  18
ATOM     18  N   UNL     1      46.367   4.574  14.822  0.00  0.00    +0.000 N 
ATOM     19  H   UNL     1      45.554   4.436  15.415  0.00  0.00    +0.000 HD
BRANCH  18  20
ATOM     20  C   UNL     1      45.975   4.490  13.472  0.00  0.00    +0.000 A 
ATOM     21  C   UNL     1      46.007   5.645  12.677  0.00  0.00    +0.000 A 
ATOM     22  C   UNL     1      45.558   5.621  11.350  0.00  0.00    +0.000 A 
ATOM     23  C   UNL     1      45.092   4.431  10.789  0.00  0.00    +0.000 A 
ATOM     24  C   UNL     1      45.190   3.251  11.525  0.00  0.00    +0.000 A 
ATOM     25  C   UNL     1      45.649   3.282  12.845  0.00  0.00    +0.000 A 
BRANCH  23  26
ATOM     26  C   UNL     1      44.366   4.440   9.520  0.00  0.00    +0.000 C 
ATOM     27  C   UNL     1      44.699   3.909   8.336  0.00  0.00    +0.000 C 
BRANCH  27  28
ATOM     28  C   UNL     1      45.950   3.185   8.011  0.00  0.00    +0.000 C 
ATOM     29  N   UNL     1      46.832   3.938   7.298  0.00  0.00    +0.000 N 
ATOM     30  O   UNL     1      46.199   2.036   8.328  0.00  0.00    +0.000 OA
ATOM     31  H   UNL     1      46.678   4.897   7.025  0.00  0.00    +0.000 HD
ATOM     32  H   UNL     1      47.716   3.505   7.060  0.00  0.00    +0.000 HD
ENDBRANCH  27  28
ENDBRANCH  23  26
ENDBRANCH  18  20
ENDBRANCH  17  18
ENDBRANCH   1  17
TORSDOF 7
ENDMDL
MODEL 9
REMARK VINA RESULT:    -5.756      3.051      7.140
REMARK INTER + INTRA:          -9.747
REMARK INTER:                  -8.806
REMARK INTRA:                  -0.940
REMARK UNBOUND:                -1.635
REMARK  Name = 
REMARK  10 active torsions:
REMARK  status: ('A' for Active; 'I' for Inactive)
REMARK    1  A    between atoms: C_1  and  N_2
REMARK    2  A    between atoms: N_5  and  C_6
REMARK    3  A    between atoms: C_10  and  C_11
REMARK    4  A    between atoms: C_11  and  C_12
REMARK    5  A    between atoms: C_11  and  C_13
REMARK    6  A    between atoms: C_11  and  C_14
REMARK    7  A    between atoms: C_14  and  N_15
REMARK    8  A    between atoms: N_15  and  C_16
REMARK    9  A    between atoms: C_19  and  C_20
REMARK   10  A    between atoms: C_21  and  C_22
REMARK                            x       y       z     vdW  Elec       q    Type
REMARK                         _______ _______ _______ _____ _____    ______ ____
ROOT
ATOM      1  C   UNL     1      48.096   8.640  12.975  0.00  0.00    +0.000 C 
ATOM      2  C   UNL     1      48.332   9.595  11.780  0.00  0.00    +0.000 C 
ATOM      3  C   UNL     1      48.996   7.393  12.834  0.00  0.00    +0.000 C 
ENDROOT
BRANCH   1   8
ATOM      4  C   UNL     1      48.808   9.304  16.733  0.00  0.00    +0.000 A 
ATOM      5  C   UNL     1      49.334  10.596  16.676  0.00  0.00    +0.000 A 
ATOM      6  C   UNL     1      49.423  11.293  15.471  0.00  0.00    +0.000 A 
ATOM      7  C   UNL     1      49.005  10.698  14.281  0.00  0.00    +0.000 A 
ATOM      8  C   UNL     1      48.476   9.400  14.274  0.00  0.00    +0.000 A 
ATOM      9  C   UNL     1      48.356   8.750  15.523  0.00  0.00    +0.000 A 
BRANCH   4  14
ATOM     10  C   UNL     1      48.569   5.085  20.326  0.00  0.00    +0.000 C 
ATOM     11  N   UNL     1      48.713   6.479  19.919  0.00  0.00    +0.000 NA
ATOM     12  C   UNL     1      49.868   6.637  19.005  0.00  0.00    +0.000 C 
ATOM     13  C   UNL     1      50.050   8.094  18.517  0.00  0.00    +0.000 C 
ATOM     14  N   UNL     1      48.805   8.559  17.893  0.00  0.00    +0.000 N 
ATOM     15  C   UNL     1      47.610   8.416  18.737  0.00  0.00    +0.000 C 
ATOM     16  C   UNL     1      47.487   6.956  19.235  0.00  0.00    +0.000 C 
ENDBRANCH   4  14
ENDBRANCH   1   8
BRANCH   1  17
ATOM     17  C   UNL     1      46.605   8.174  12.973  0.00  0.00    +0.000 C 
BRANCH  17  18
ATOM     18  N   UNL     1      46.398   6.840  13.571  0.00  0.00    +0.000 N 
ATOM     19  H   UNL     1      47.219   6.517  14.074  0.00  0.00    +0.000 HD
BRANCH  18  20
ATOM     20  C   UNL     1      45.960   5.826  12.697  0.00  0.00    +0.000 A 
ATOM     21  C   UNL     1      45.734   6.136  11.348  0.00  0.00    +0.000 A 
ATOM     22  C   UNL     1      45.229   5.175  10.461  0.00  0.00    +0.000 A 
ATOM     23  C   UNL     1      44.966   3.880  10.907  0.00  0.00    +0.000 A 
ATOM     24  C   UNL     1      45.320   3.525  12.208  0.00  0.00    +0.000 A 
ATOM     25  C   UNL     1      45.832   4.487  13.084  0.00  0.00    +0.000 A 
BRANCH  23  26
ATOM     26  C   UNL     1      44.185   2.954  10.087  0.00  0.00    +0.000 C 
ATOM     27  C   UNL     1      44.491   2.377   8.918  0.00  0.00    +0.000 C 
BRANCH  27  28
ATOM     28  C   UNL     1      45.731   2.573   8.130  0.00  0.00    +0.000 C 
ATOM     29  N   UNL     1      46.513   1.460   8.082  0.00  0.00    +0.000 N 
ATOM     30  O   UNL     1      46.052   3.606   7.571  0.00  0.00    +0.000 OA
ATOM     31  H   UNL     1      46.284   0.578   8.515  0.00  0.00    +0.000 HD
ATOM     32  H   UNL     1      47.368   1.525   7.542  0.00  0.00    +0.000 HD
ENDBRANCH  27  28
ENDBRANCH  23  26
ENDBRANCH  18  20
ENDBRANCH  17  18
ENDBRANCH   1  17
TORSDOF 7
ENDMDL
