MODEL 1
REMARK VINA RESULT:    -7.320      0.000      0.000
REMARK INTER + INTRA:          -9.945
REMARK INTER:                  -9.459
REMARK INTRA:                  -0.486
REMARK UNBOUND:                -0.486
REMARK  Name = 
REMARK  6 active torsions:
REMARK  status: ('A' for Active; 'I' for Inactive)
REMARK    1  A    between atoms: C_1  and  O_2
REMARK    2  A    between atoms: O_2  and  C_3
REMARK    3  A    between atoms: C_3  and  C_4
REMARK    4  A    between atoms: C_4  and  N_5
REMARK    5  A    between atoms: C_4  and  C_15
REMARK    6  A    between atoms: C_9  and  C_10
REMARK                            x       y       z     vdW  Elec       q    Type
REMARK                         _______ _______ _______ _____ _____    ______ ____
ROOT
ATOM      1  N   UNL     1      44.785   5.538   9.768  0.00  0.00    +0.000 N 
ATOM      2  C   UNL     1      45.358   4.392   9.196  0.00  0.00    +0.000 A 
ATOM      3  C   UNL     1      46.025   4.527   7.979  0.00  0.00    +0.000 A 
ATOM      4  C   UNL     1      46.568   3.404   7.352  0.00  0.00    +0.000 A 
ATOM      5  C   UNL     1      46.405   2.146   7.926  0.00  0.00    +0.000 A 
ATOM      6  C   UNL     1      45.692   2.091   9.112  0.00  0.00    +0.000 A 
ATOM      7  N   UNL     1      45.177   3.176   9.752  0.00  0.00    +0.000 NA
ATOM      8  H   UNL     1      45.355   6.350   9.561  0.00  0.00    +0.000 HD
ENDROOT
BRANCH   5   9
ATOM      9  C   UNL     1      46.987   0.963   7.244  0.00  0.00    +0.000 C 
ATOM     10  N   UNL     1      46.638  -0.289   7.663  0.00  0.00    +0.000 N 
ATOM     11  O   UNL     1      47.781   1.095   6.319  0.00  0.00    +0.000 OA
ATOM     12  H   UNL     1      46.010  -0.514   8.419  0.00  0.00    +0.000 HD
ATOM     13  H   UNL     1      47.073  -1.063   7.174  0.00  0.00    +0.000 HD
ENDBRANCH   5   9
BRANCH   1  14
ATOM     14  C   UNL     1      44.465   5.462  11.202  0.00  0.00    +0.000 C 
BRANCH  14  15
ATOM     15  C   UNL     1      45.393   6.391  11.984  0.00  0.00    +0.000 A 
ATOM     16  C   UNL     1      45.011   7.722  12.213  0.00  0.00    +0.000 A 
ATOM     17  C   UNL     1      45.864   8.601  12.882  0.00  0.00    +0.000 A 
ATOM     18  C   UNL     1      47.103   8.160  13.342  0.00  0.00    +0.000 A 
ATOM     19  C   UNL     1      47.488   6.836  13.146  0.00  0.00    +0.000 A 
ATOM     20  C   UNL     1      46.639   5.957  12.471  0.00  0.00    +0.000 A 
ENDBRANCH  14  15
BRANCH  14  21
ATOM     21  C   UNL     1      42.983   5.863  11.460  0.00  0.00    +0.000 C 
BRANCH  21  23
ATOM     22  C   UNL     1      43.130   4.192  13.161  0.00  0.00    +0.000 C 
ATOM     23  O   UNL     1      42.335   5.197  12.552  0.00  0.00    +0.000 OA
ENDBRANCH  21  23
ENDBRANCH  14  21
ENDBRANCH   1  14
TORSDOF 5
ENDMDL
MODEL 2
REMARK VINA RESULT:    -6.635      2.613      6.713
REMARK INTER + INTRA:          -9.061
REMARK INTER:                  -8.603
REMARK INTRA:                  -0.458
REMARK UNBOUND:                -0.486
REMARK  Name = 
REMARK  6 active torsions:
REMARK  status: ('A' for Active; 'I' for Inactive)
REMARK    1  A    between atoms: C_1  and  O_2
REMARK    2  A    between atoms: O_2  and  C_3
REMARK    3  A    between atoms: C_3  and  C_4
REMARK    4  A    between atoms: C_4  and  N_5
REMARK    5  A    between atoms: C_4  and  C_15
REMARK    6  A    between atoms: C_9  and  C_10
REMARK                            x       y       z     vdW  Elec       q    Type
REMARK                         _______ _______ _______ _____ _____    ______ ____
ROOT
ATOM      1  N   UNL     1      45.627   4.878  11.368  0.00  0.00    +0.000 N 
ATOM      2  C   UNL     1      45.605   6.276  11.484  0.00  0.00    +0.000 A 
ATOM      3  C   UNL     1      46.746   6.913  11.969  0.00  0.00    +0.000 A 
ATOM      4  C   UNL     1      46.750   8.299  12.145  0.00  0.00    +0.000 A 
ATOM      5  C   UNL     1      45.598   9.033  11.876  0.00  0.00    +0.000 A 
ATOM      6  C   UNL     1      44.493   8.320  11.442  0.00  0.00    +0.000 A 
ATOM      7  N   UNL     1      44.476   6.974  11.238  0.00  0.00    +0.000 NA
ATOM      8  H   UNL     1      46.557   4.566  11.117  0.00  0.00    +0.000 HD
ENDROOT
BRANCH   5   9
ATOM      9  C   UNL     1      45.620  10.504  12.072  0.00  0.00    +0.000 C 
ATOM     10  N   UNL     1      46.808  11.127  12.330  0.00  0.00    +0.000 N 
ATOM     11  O   UNL     1      44.588  11.164  12.014  0.00  0.00    +0.000 OA
ATOM     12  H   UNL     1      47.709  10.684  12.415  0.00  0.00    +0.000 HD
ATOM     13  H   UNL     1      46.767  12.130  12.469  0.00  0.00    +0.000 HD
ENDBRANCH   5   9
BRANCH   1  14
ATOM     14  C   UNL     1      44.608   4.279  10.491  0.00  0.00    +0.000 C 
BRANCH  14  15
ATOM     15  C   UNL     1      45.289   3.598   9.305  0.00  0.00    +0.000 A 
ATOM     16  C   UNL     1      45.339   2.197   9.244  0.00  0.00    +0.000 A 
ATOM     17  C   UNL     1      45.998   1.554   8.195  0.00  0.00    +0.000 A 
ATOM     18  C   UNL     1      46.606   2.300   7.187  0.00  0.00    +0.000 A 
ATOM     19  C   UNL     1      46.545   3.691   7.219  0.00  0.00    +0.000 A 
ATOM     20  C   UNL     1      45.891   4.336   8.270  0.00  0.00    +0.000 A 
ENDBRANCH  14  15
BRANCH  14  21
ATOM     21  C   UNL     1      43.748   3.241  11.270  0.00  0.00    +0.000 C 
BRANCH  21  23
ATOM     22  C   UNL     1      43.084   4.328  13.290  0.00  0.00    +0.000 C 
ATOM     23  O   UNL     1      43.849   3.289  12.698  0.00  0.00    +0.000 OA
ENDBRANCH  21  23
ENDBRANCH  14  21
ENDBRANCH   1  14
TORSDOF 5
ENDMDL
MODEL 3
REMARK VINA RESULT:    -6.398      2.631      5.969
REMARK INTER + INTRA:          -8.754
REMARK INTER:                  -9.448
REMARK INTRA:                   0.694
REMARK UNBOUND:                -0.486
REMARK  Name = 
REMARK  6 active torsions:
REMARK  status: ('A' for Active; 'I' for Inactive)
REMARK    1  A    between atoms: C_1  and  O_2
REMARK    2  A    between atoms: O_2  and  C_3
REMARK    3  A    between atoms: C_3  and  C_4
REMARK    4  A    between atoms: C_4  and  N_5
REMARK    5  A    between atoms: C_4  and  C_15
REMARK    6  A    between atoms: C_9  and  C_10
REMARK                            x       y       z     vdW  Elec       q    Type
REMARK                         _______ _______ _______ _____ _____    ______ ____
ROOT
ATOM      1  N   UNL     1      45.462   5.755  10.246  0.00  0.00    +0.000 N 
ATOM      2  C   UNL     1      45.914   5.466  11.542  0.00  0.00    +0.000 A 
ATOM      3  C   UNL     1      46.485   6.498  12.285  0.00  0.00    +0.000 A 
ATOM      4  C   UNL     1      46.991   6.241  13.562  0.00  0.00    +0.000 A 
ATOM      5  C   UNL     1      46.960   4.945  14.069  0.00  0.00    +0.000 A 
ATOM      6  C   UNL     1      46.418   3.969  13.250  0.00  0.00    +0.000 A 
ATOM      7  N   UNL     1      45.896   4.202  12.015  0.00  0.00    +0.000 NA
ATOM      8  H   UNL     1      45.101   6.701  10.208  0.00  0.00    +0.000 HD
ENDROOT
BRANCH   5   9
ATOM      9  C   UNL     1      47.504   4.691  15.426  0.00  0.00    +0.000 C 
ATOM     10  N   UNL     1      46.979   3.679  16.179  0.00  0.00    +0.000 N 
ATOM     11  O   UNL     1      48.409   5.381  15.883  0.00  0.00    +0.000 OA
ATOM     12  H   UNL     1      46.227   3.063  15.912  0.00  0.00    +0.000 HD
ATOM     13  H   UNL     1      47.376   3.555  17.103  0.00  0.00    +0.000 HD
ENDBRANCH   5   9
BRANCH   1  14
ATOM     14  C   UNL     1      44.515   4.798   9.654  0.00  0.00    +0.000 C 
BRANCH  14  15
ATOM     15  C   UNL     1      45.284   3.730   8.876  0.00  0.00    +0.000 A 
ATOM     16  C   UNL     1      46.165   4.116   7.855  0.00  0.00    +0.000 A 
ATOM     17  C   UNL     1      46.840   3.156   7.099  0.00  0.00    +0.000 A 
ATOM     18  C   UNL     1      46.655   1.800   7.361  0.00  0.00    +0.000 A 
ATOM     19  C   UNL     1      45.803   1.401   8.388  0.00  0.00    +0.000 A 
ATOM     20  C   UNL     1      45.122   2.358   9.141  0.00  0.00    +0.000 A 
ENDBRANCH  14  15
BRANCH  14  21
ATOM     21  C   UNL     1      43.649   4.122  10.757  0.00  0.00    +0.000 C 
BRANCH  21  23
ATOM     22  C   UNL     1      42.689   5.213  12.652  0.00  0.00    +0.000 C 
ATOM     23  O   UNL     1      42.565   4.905  11.272  0.00  0.00    +0.000 OA
ENDBRANCH  21  23
ENDBRANCH  14  21
ENDBRANCH   1  14
TORSDOF 5
ENDMDL
MODEL 4
REMARK VINA RESULT:    -6.394      2.727      6.722
REMARK INTER + INTRA:          -8.749
REMARK INTER:                  -8.385
REMARK INTRA:                  -0.364
REMARK UNBOUND:                -0.486
REMARK  Name = 
REMARK  6 active torsions:
REMARK  status: ('A' for Active; 'I' for Inactive)
REMARK    1  A    between atoms: C_1  and  O_2
REMARK    2  A    between atoms: O_2  and  C_3
REMARK    3  A    between atoms: C_3  and  C_4
REMARK    4  A    between atoms: C_4  and  N_5
REMARK    5  A    between atoms: C_4  and  C_15
REMARK    6  A    between atoms: C_9  and  C_10
REMARK                            x       y       z     vdW  Elec       q    Type
REMARK                         _______ _______ _______ _____ _____    ______ ____
ROOT
ATOM      1  N   UNL     1      45.660   4.661  11.649  0.00  0.00    +0.000 N 
ATOM      2  C   UNL     1      46.254   5.770  12.271  0.00  0.00    +0.000 A 
ATOM      3  C   UNL     1      47.259   5.538  13.208  0.00  0.00    +0.000 A 
ATOM      4  C   UNL     1      47.843   6.611  13.885  0.00  0.00    +0.000 A 
ATOM      5  C   UNL     1      47.389   7.906  13.650  0.00  0.00    +0.000 A 
ATOM      6  C   UNL     1      46.357   8.047  12.737  0.00  0.00    +0.000 A 
ATOM      7  N   UNL     1      45.792   7.018  12.048  0.00  0.00    +0.000 NA
ATOM      8  H   UNL     1      46.345   3.926  11.523  0.00  0.00    +0.000 HD
ENDROOT
BRANCH   5   9
ATOM      9  C   UNL     1      48.021   9.033  14.379  0.00  0.00    +0.000 C 
ATOM     10  N   UNL     1      47.665   9.274  15.676  0.00  0.00    +0.000 N 
ATOM     11  O   UNL     1      48.847   9.755  13.833  0.00  0.00    +0.000 OA
ATOM     12  H   UNL     1      46.989   8.758  16.217  0.00  0.00    +0.000 HD
ATOM     13  H   UNL     1      48.115  10.063  16.125  0.00  0.00    +0.000 HD
ENDBRANCH   5   9
BRANCH   1  14
ATOM     14  C   UNL     1      44.925   4.926  10.402  0.00  0.00    +0.000 C 
BRANCH  14  15
ATOM     15  C   UNL     1      45.432   3.994   9.301  0.00  0.00    +0.000 A 
ATOM     16  C   UNL     1      45.278   2.607   9.442  0.00  0.00    +0.000 A 
ATOM     17  C   UNL     1      45.776   1.734   8.473  0.00  0.00    +0.000 A 
ATOM     18  C   UNL     1      46.423   2.236   7.345  0.00  0.00    +0.000 A 
ATOM     19  C   UNL     1      46.562   3.611   7.178  0.00  0.00    +0.000 A 
ATOM     20  C   UNL     1      46.070   4.485   8.148  0.00  0.00    +0.000 A 
ENDBRANCH  14  15
BRANCH  14  21
ATOM     21  C   UNL     1      43.396   4.718  10.604  0.00  0.00    +0.000 C 
BRANCH  21  23
ATOM     22  C   UNL     1      42.704   5.205  12.837  0.00  0.00    +0.000 C 
ATOM     23  O   UNL     1      42.748   5.642  11.487  0.00  0.00    +0.000 OA
ENDBRANCH  21  23
ENDBRANCH  14  21
ENDBRANCH   1  14
TORSDOF 5
ENDMDL
MODEL 5
REMARK VINA RESULT:    -6.377      1.514      2.079
REMARK INTER + INTRA:          -8.727
REMARK INTER:                  -8.369
REMARK INTRA:                  -0.359
REMARK UNBOUND:                -0.486
REMARK  Name = 
REMARK  6 active torsions:
REMARK  status: ('A' for Active; 'I' for Inactive)
REMARK    1  A    between atoms: C_1  and  O_2
REMARK    2  A    between atoms: O_2  and  C_3
REMARK    3  A    between atoms: C_3  and  C_4
REMARK    4  A    between atoms: C_4  and  N_5
REMARK    5  A    between atoms: C_4  and  C_15
REMARK    6  A    between atoms: C_9  and  C_10
REMARK                            x       y       z     vdW  Elec       q    Type
REMARK                         _______ _______ _______ _____ _____    ______ ____
ROOT
ATOM      1  N   UNL     1      44.671   4.557  10.553  0.00  0.00    +0.000 N 
ATOM      2  C   UNL     1      45.332   3.872   9.522  0.00  0.00    +0.000 A 
ATOM      3  C   UNL     1      45.666   4.582   8.370  0.00  0.00    +0.000 A 
ATOM      4  C   UNL     1      46.282   3.927   7.301  0.00  0.00    +0.000 A 
ATOM      5  C   UNL     1      46.521   2.558   7.375  0.00  0.00    +0.000 A 
ATOM      6  C   UNL     1      46.118   1.917   8.535  0.00  0.00    +0.000 A 
ATOM      7  N   UNL     1      45.541   2.541   9.598  0.00  0.00    +0.000 NA
ATOM      8  H   UNL     1      44.994   5.516  10.594  0.00  0.00    +0.000 HD
ENDROOT
BRANCH   5   9
ATOM      9  C   UNL     1      47.174   1.879   6.229  0.00  0.00    +0.000 C 
ATOM     10  N   UNL     1      47.847   2.625   5.303  0.00  0.00    +0.000 N 
ATOM     11  O   UNL     1      47.111   0.661   6.096  0.00  0.00    +0.000 OA
ATOM     12  H   UNL     1      47.949   3.628   5.304  0.00  0.00    +0.000 HD
ATOM     13  H   UNL     1      48.264   2.115   4.533  0.00  0.00    +0.000 HD
ENDBRANCH   5   9
BRANCH   1  14
ATOM     14  C   UNL     1      44.701   3.926  11.882  0.00  0.00    +0.000 C 
BRANCH  14  15
ATOM     15  C   UNL     1      45.755   4.611  12.751  0.00  0.00    +0.000 A 
ATOM     16  C   UNL     1      46.193   3.988  13.930  0.00  0.00    +0.000 A 
ATOM     17  C   UNL     1      47.119   4.618  14.764  0.00  0.00    +0.000 A 
ATOM     18  C   UNL     1      47.629   5.870  14.426  0.00  0.00    +0.000 A 
ATOM     19  C   UNL     1      47.223   6.490  13.246  0.00  0.00    +0.000 A 
ATOM     20  C   UNL     1      46.293   5.866  12.414  0.00  0.00    +0.000 A 
ENDBRANCH  14  15
BRANCH  14  21
ATOM     21  C   UNL     1      43.309   4.021  12.572  0.00  0.00    +0.000 C 
BRANCH  21  23
ATOM     22  C   UNL     1      42.196   6.004  11.839  0.00  0.00    +0.000 C 
ATOM     23  O   UNL     1      42.863   5.342  12.904  0.00  0.00    +0.000 OA
ENDBRANCH  21  23
ENDBRANCH  14  21
ENDBRANCH   1  14
TORSDOF 5
ENDMDL
MODEL 6
REMARK VINA RESULT:    -5.765      3.614      6.775
REMARK INTER + INTRA:          -7.936
REMARK INTER:                  -7.543
REMARK INTRA:                  -0.392
REMARK UNBOUND:                -0.486
REMARK  Name = 
REMARK  6 active torsions:
REMARK  status: ('A' for Active; 'I' for Inactive)
REMARK    1  A    between atoms: C_1  and  O_2
REMARK    2  A    between atoms: O_2  and  C_3
REMARK    3  A    between atoms: C_3  and  C_4
REMARK    4  A    between atoms: C_4  and  N_5
REMARK    5  A    between atoms: C_4  and  C_15
REMARK    6  A    between atoms: C_9  and  C_10
REMARK                            x       y       z     vdW  Elec       q    Type
REMARK                         _______ _______ _______ _____ _____    ______ ____
ROOT
ATOM      1  N   UNL     1      45.436   4.879  12.803  0.00  0.00    +0.000 N 
ATOM      2  C   UNL     1      46.473   5.175  13.700  0.00  0.00    +0.000 A 
ATOM      3  C   UNL     1      46.699   4.295  14.757  0.00  0.00    +0.000 A 
ATOM      4  C   UNL     1      47.691   4.576  15.700  0.00  0.00    +0.000 A 
ATOM      5  C   UNL     1      48.420   5.758  15.603  0.00  0.00    +0.000 A 
ATOM      6  C   UNL     1      48.103   6.601  14.550  0.00  0.00    +0.000 A 
ATOM      7  N   UNL     1      47.159   6.333  13.606  0.00  0.00    +0.000 NA
ATOM      8  H   UNL     1      45.354   3.876  12.687  0.00  0.00    +0.000 HD
ENDROOT
BRANCH   5   9
ATOM      9  C   UNL     1      49.467   6.042  16.615  0.00  0.00    +0.000 C 
ATOM     10  N   UNL     1      49.323   7.119  17.444  0.00  0.00    +0.000 N 
ATOM     11  O   UNL     1      50.462   5.331  16.711  0.00  0.00    +0.000 OA
ATOM     12  H   UNL     1      48.559   7.776  17.443  0.00  0.00    +0.000 HD
ATOM     13  H   UNL     1      50.072   7.277  18.108  0.00  0.00    +0.000 HD
ENDBRANCH   5   9
BRANCH   1  14
ATOM     14  C   UNL     1      45.480   5.566  11.502  0.00  0.00    +0.000 C 
BRANCH  14  15
ATOM     15  C   UNL     1      45.345   4.541  10.377  0.00  0.00    +0.000 A 
ATOM     16  C   UNL     1      45.694   4.900   9.066  0.00  0.00    +0.000 A 
ATOM     17  C   UNL     1      45.533   3.996   8.015  0.00  0.00    +0.000 A 
ATOM     18  C   UNL     1      45.034   2.718   8.260  0.00  0.00    +0.000 A 
ATOM     19  C   UNL     1      44.706   2.337   9.559  0.00  0.00    +0.000 A 
ATOM     20  C   UNL     1      44.860   3.241  10.611  0.00  0.00    +0.000 A 
ENDBRANCH  14  15
BRANCH  14  21
ATOM     21  C   UNL     1      44.338   6.619  11.393  0.00  0.00    +0.000 C 
BRANCH  21  23
ATOM     22  C   UNL     1      42.263   5.574  11.947  0.00  0.00    +0.000 C 
ATOM     23  O   UNL     1      43.076   6.128  10.924  0.00  0.00    +0.000 OA
ENDBRANCH  21  23
ENDBRANCH  14  21
ENDBRANCH   1  14
TORSDOF 5
ENDMDL
MODEL 7
REMARK VINA RESULT:    -5.748      4.920      6.745
REMARK INTER + INTRA:          -7.914
REMARK INTER:                  -7.474
REMARK INTRA:                  -0.440
REMARK UNBOUND:                -0.486
REMARK  Name = 
REMARK  6 active torsions:
REMARK  status: ('A' for Active; 'I' for Inactive)
REMARK    1  A    between atoms: C_1  and  O_2
REMARK    2  A    between atoms: O_2  and  C_3
REMARK    3  A    between atoms: C_3  and  C_4
REMARK    4  A    between atoms: C_4  and  N_5
REMARK    5  A    between atoms: C_4  and  C_15
REMARK    6  A    between atoms: C_9  and  C_10
REMARK                            x       y       z     vdW  Elec       q    Type
REMARK                         _______ _______ _______ _____ _____    ______ ____
ROOT
ATOM      1  N   UNL     1      47.877   5.420  15.694  0.00  0.00    +0.000 N 
ATOM      2  C   UNL     1      47.169   5.284  14.491  0.00  0.00    +0.000 A 
ATOM      3  C   UNL     1      47.552   6.076  13.410  0.00  0.00    +0.000 A 
ATOM      4  C   UNL     1      46.844   6.007  12.207  0.00  0.00    +0.000 A 
ATOM      5  C   UNL     1      45.731   5.176  12.109  0.00  0.00    +0.000 A 
ATOM      6  C   UNL     1      45.390   4.455  13.241  0.00  0.00    +0.000 A 
ATOM      7  N   UNL     1      46.082   4.489  14.413  0.00  0.00    +0.000 NA
ATOM      8  H   UNL     1      48.851   5.624  15.502  0.00  0.00    +0.000 HD
ENDROOT
BRANCH   5   9
ATOM      9  C   UNL     1      44.990   5.116  10.825  0.00  0.00    +0.000 C 
ATOM     10  N   UNL     1      45.607   5.523   9.676  0.00  0.00    +0.000 N 
ATOM     11  O   UNL     1      43.832   4.716  10.782  0.00  0.00    +0.000 OA
ATOM     12  H   UNL     1      46.546   5.883   9.596  0.00  0.00    +0.000 HD
ATOM     13  H   UNL     1      45.054   5.475   8.828  0.00  0.00    +0.000 HD
ENDBRANCH   5   9
BRANCH   1  14
ATOM     14  C   UNL     1      47.742   4.318  16.661  0.00  0.00    +0.000 C 
BRANCH  14  15
ATOM     15  C   UNL     1      49.126   3.772  17.011  0.00  0.00    +0.000 A 
ATOM     16  C   UNL     1      50.171   4.663  17.297  0.00  0.00    +0.000 A 
ATOM     17  C   UNL     1      51.455   4.188  17.572  0.00  0.00    +0.000 A 
ATOM     18  C   UNL     1      51.708   2.818  17.577  0.00  0.00    +0.000 A 
ATOM     19  C   UNL     1      50.676   1.918  17.319  0.00  0.00    +0.000 A 
ATOM     20  C   UNL     1      49.393   2.391  17.038  0.00  0.00    +0.000 A 
ENDBRANCH  14  15
BRANCH  14  21
ATOM     21  C   UNL     1      47.025   4.802  17.955  0.00  0.00    +0.000 C 
BRANCH  21  23
ATOM     22  C   UNL     1      47.440   6.118  19.905  0.00  0.00    +0.000 C 
ATOM     23  O   UNL     1      47.469   6.056  18.487  0.00  0.00    +0.000 OA
ENDBRANCH  21  23
ENDBRANCH  14  21
ENDBRANCH   1  14
TORSDOF 5
ENDMDL
MODEL 8
REMARK VINA RESULT:    -5.505      3.378      5.499
REMARK INTER + INTRA:          -7.601
REMARK INTER:                  -7.025
REMARK INTRA:                  -0.576
REMARK UNBOUND:                -0.486
REMARK  Name = 
REMARK  6 active torsions:
REMARK  status: ('A' for Active; 'I' for Inactive)
REMARK    1  A    between atoms: C_1  and  O_2
REMARK    2  A    between atoms: O_2  and  C_3
REMARK    3  A    between atoms: C_3  and  C_4
REMARK    4  A    between atoms: C_4  and  N_5
REMARK    5  A    between atoms: C_4  and  C_15
REMARK    6  A    between atoms: C_9  and  C_10
REMARK                            x       y       z     vdW  Elec       q    Type
REMARK                         _______ _______ _______ _____ _____    ______ ____
ROOT
ATOM      1  N   UNL     1      47.255   7.303  13.956  0.00  0.00    +0.000 N 
ATOM      2  C   UNL     1      46.439   6.561  13.090  0.00  0.00    +0.000 A 
ATOM      3  C   UNL     1      45.368   7.210  12.477  0.00  0.00    +0.000 A 
ATOM      4  C   UNL     1      44.503   6.497  11.645  0.00  0.00    +0.000 A 
ATOM      5  C   UNL     1      44.689   5.130  11.464  0.00  0.00    +0.000 A 
ATOM      6  C   UNL     1      45.749   4.551  12.142  0.00  0.00    +0.000 A 
ATOM      7  N   UNL     1      46.619   5.232  12.937  0.00  0.00    +0.000 NA
ATOM      8  H   UNL     1      47.330   8.258  13.628  0.00  0.00    +0.000 HD
ENDROOT
BRANCH   5   9
ATOM      9  C   UNL     1      43.759   4.388  10.577  0.00  0.00    +0.000 C 
ATOM     10  N   UNL     1      43.848   4.554   9.224  0.00  0.00    +0.000 N 
ATOM     11  O   UNL     1      42.908   3.637  11.042  0.00  0.00    +0.000 OA
ATOM     12  H   UNL     1      44.495   5.154   8.737  0.00  0.00    +0.000 HD
ATOM     13  H   UNL     1      43.181   4.035   8.664  0.00  0.00    +0.000 HD
ENDBRANCH   5   9
BRANCH   1  14
ATOM     14  C   UNL     1      48.580   6.735  14.253  0.00  0.00    +0.000 C 
BRANCH  14  15
ATOM     15  C   UNL     1      49.656   7.529  13.513  0.00  0.00    +0.000 A 
ATOM     16  C   UNL     1      50.668   8.172  14.241  0.00  0.00    +0.000 A 
ATOM     17  C   UNL     1      51.633   8.942  13.589  0.00  0.00    +0.000 A 
ATOM     18  C   UNL     1      51.606   9.071  12.202  0.00  0.00    +0.000 A 
ATOM     19  C   UNL     1      50.622   8.419  11.461  0.00  0.00    +0.000 A 
ATOM     20  C   UNL     1      49.654   7.653  12.112  0.00  0.00    +0.000 A 
ENDBRANCH  14  15
BRANCH  14  21
ATOM     21  C   UNL     1      48.865   6.766  15.783  0.00  0.00    +0.000 C 
BRANCH  21  23
ATOM     22  C   UNL     1      47.980   4.754  16.720  0.00  0.00    +0.000 C 
ATOM     23  O   UNL     1      49.143   5.500  16.395  0.00  0.00    +0.000 OA
ENDBRANCH  21  23
ENDBRANCH  14  21
ENDBRANCH   1  14
TORSDOF 5
ENDMDL
MODEL 9
REMARK VINA RESULT:    -5.280      4.653      7.408
REMARK INTER + INTRA:          -7.310
REMARK INTER:                  -6.725
REMARK INTRA:                  -0.585
REMARK UNBOUND:                -0.486
REMARK  Name = 
REMARK  6 active torsions:
REMARK  status: ('A' for Active; 'I' for Inactive)
REMARK    1  A    between atoms: C_1  and  O_2
REMARK    2  A    between atoms: O_2  and  C_3
REMARK    3  A    between atoms: C_3  and  C_4
REMARK    4  A    between atoms: C_4  and  N_5
REMARK    5  A    between atoms: C_4  and  C_15
REMARK    6  A    between atoms: C_9  and  C_10
REMARK                            x       y       z     vdW  Elec       q    Type
REMARK                         _______ _______ _______ _____ _____    ______ ____
ROOT
ATOM      1  N   UNL     1      46.059   4.966  14.116  0.00  0.00    +0.000 N 
ATOM      2  C   UNL     1      47.135   4.970  15.016  0.00  0.00    +0.000 A 
ATOM      3  C   UNL     1      47.166   3.992  16.009  0.00  0.00    +0.000 A 
ATOM      4  C   UNL     1      48.194   3.989  16.955  0.00  0.00    +0.000 A 
ATOM      5  C   UNL     1      49.162   4.989  16.925  0.00  0.00    +0.000 A 
ATOM      6  C   UNL     1      49.036   5.949  15.935  0.00  0.00    +0.000 A 
ATOM      7  N   UNL     1      48.057   5.955  14.988  0.00  0.00    +0.000 NA
ATOM      8  H   UNL     1      45.763   4.014  13.935  0.00  0.00    +0.000 HD
ENDROOT
BRANCH   5   9
ATOM      9  C   UNL     1      50.246   4.971  17.939  0.00  0.00    +0.000 C 
ATOM     10  N   UNL     1      50.210   4.043  18.941  0.00  0.00    +0.000 N 
ATOM     11  O   UNL     1      51.165   5.781  17.894  0.00  0.00    +0.000 OA
ATOM     12  H   UNL     1      49.498   3.344  19.083  0.00  0.00    +0.000 HD
ATOM     13  H   UNL     1      50.966   4.082  19.615  0.00  0.00    +0.000 HD
ENDBRANCH   5   9
BRANCH   1  14
ATOM     14  C   UNL     1      46.252   5.712  12.863  0.00  0.00    +0.000 C 
BRANCH  14  15
ATOM     15  C   UNL     1      45.674   4.913  11.696  0.00  0.00    +0.000 A 
ATOM     16  C   UNL     1      45.697   5.457  10.403  0.00  0.00    +0.000 A 
ATOM     17  C   UNL     1      45.131   4.765   9.330  0.00  0.00    +0.000 A 
ATOM     18  C   UNL     1      44.546   3.517   9.532  0.00  0.00    +0.000 A 
ATOM     19  C   UNL     1      44.537   2.951  10.805  0.00  0.00    +0.000 A 
ATOM     20  C   UNL     1      45.096   3.643  11.880  0.00  0.00    +0.000 A 
ENDBRANCH  14  15
BRANCH  14  21
ATOM     21  C   UNL     1      45.562   7.106  12.937  0.00  0.00    +0.000 C 
BRANCH  21  23
ATOM     22  C   UNL     1      47.594   8.131  12.210  0.00  0.00    +0.000 C 
ATOM     23  O   UNL     1      46.439   8.236  13.029  0.00  0.00    +0.000 OA
ENDBRANCH  21  23
ENDBRANCH  14  21
ENDBRANCH   1  14
TORSDOF 5
ENDMDL
