MODEL 1
REMARK VINA RESULT:    -8.399      0.000      0.000
REMARK INTER + INTRA:          -9.276
REMARK INTER:                  -9.872
REMARK INTRA:                   0.596
REMARK UNBOUND:                 0.596
REMARK  Name = 
REMARK  3 active torsions:
REMARK  status: ('A' for Active; 'I' for Inactive)
REMARK    1  A    between atoms: C_2  and  C_4
REMARK    2  A    between atoms: N_8  and  C_9
REMARK    3  A    between atoms: C_9  and  C_10
REMARK                            x       y       z     vdW  Elec       q    Type
REMARK                         _______ _______ _______ _____ _____    ______ ____
ROOT
ATOM      1  C   UNL     1      46.374   2.131   7.885  0.00  0.00    +0.000 A 
ATOM      2  C   UNL     1      46.429   3.426   7.391  0.00  0.00    +0.000 A 
ATOM      3  C   UNL     1      45.729   4.429   8.056  0.00  0.00    +0.000 A 
ATOM      4  C   UNL     1      45.016   4.131   9.221  0.00  0.00    +0.000 A 
ATOM      5  N   UNL     1      44.293   5.201   9.799  0.00  0.00    +0.000 N 
ATOM      6  N   UNL     1      44.951   2.878   9.706  0.00  0.00    +0.000 NA
ATOM      7  C   UNL     1      45.607   1.904   9.020  0.00  0.00    +0.000 A 
ATOM      8  H   UNL     1      43.535   5.401   9.149  0.00  0.00    +0.000 HD
ENDROOT
BRANCH   1  10
ATOM      9  N   UNL     1      46.723  -0.257   7.643  0.00  0.00    +0.000 N 
ATOM     10  C   UNL     1      47.070   1.006   7.232  0.00  0.00    +0.000 C 
ATOM     11  O   UNL     1      47.888   1.186   6.338  0.00  0.00    +0.000 OA
ATOM     12  H   UNL     1      47.143  -1.026   7.130  0.00  0.00    +0.000 HD
ATOM     13  H   UNL     1      45.900  -0.450   8.186  0.00  0.00    +0.000 HD
ENDBRANCH   1  10
BRANCH   5  14
ATOM     14  C   UNL     1      43.869   5.199  11.223  0.00  0.00    +0.000 C 
ATOM     15  C   UNL     1      42.957   4.036  11.592  0.00  0.00    +0.000 C 
ATOM     16  C   UNL     1      42.426   5.429  11.634  0.00  0.00    +0.000 C 
BRANCH  14  17
ATOM     17  C   UNL     1      44.947   5.589  12.240  0.00  0.00    +0.000 C 
ATOM     18  C   UNL     1      45.918   6.621  11.649  0.00  0.00    +0.000 C 
ATOM     19  C   UNL     1      46.937   7.070  12.690  0.00  0.00    +0.000 C 
ATOM     20  C   UNL     1      47.706   5.881  13.260  0.00  0.00    +0.000 C 
ATOM     21  C   UNL     1      46.768   4.808  13.811  0.00  0.00    +0.000 C 
ATOM     22  C   UNL     1      45.727   4.374  12.776  0.00  0.00    +0.000 C 
ENDBRANCH  14  17
ENDBRANCH   5  14
TORSDOF 3
ENDMDL
MODEL 2
REMARK VINA RESULT:    -7.772      3.387      6.273
REMARK INTER + INTRA:          -8.539
REMARK INTER:                  -8.109
REMARK INTRA:                  -0.430
REMARK UNBOUND:                 0.596
REMARK  Name = 
REMARK  3 active torsions:
REMARK  status: ('A' for Active; 'I' for Inactive)
REMARK    1  A    between atoms: C_2  and  C_4
REMARK    2  A    between atoms: N_8  and  C_9
REMARK    3  A    between atoms: C_9  and  C_10
REMARK                            x       y       z     vdW  Elec       q    Type
REMARK                         _______ _______ _______ _____ _____    ______ ____
ROOT
ATOM      1  C   UNL     1      47.898   6.636  14.319  0.00  0.00    +0.000 A 
ATOM      2  C   UNL     1      47.492   7.775  13.638  0.00  0.00    +0.000 A 
ATOM      3  C   UNL     1      46.550   7.650  12.621  0.00  0.00    +0.000 A 
ATOM      4  C   UNL     1      46.001   6.398  12.325  0.00  0.00    +0.000 A 
ATOM      5  N   UNL     1      45.091   6.359  11.243  0.00  0.00    +0.000 N 
ATOM      6  N   UNL     1      46.391   5.286  12.975  0.00  0.00    +0.000 NA
ATOM      7  C   UNL     1      47.343   5.422  13.936  0.00  0.00    +0.000 A 
ATOM      8  H   UNL     1      45.650   6.532  10.409  0.00  0.00    +0.000 HD
ENDROOT
BRANCH   1  10
ATOM      9  N   UNL     1      48.433   6.653  16.685  0.00  0.00    +0.000 N 
ATOM     10  C   UNL     1      48.905   6.676  15.396  0.00  0.00    +0.000 C 
ATOM     11  O   UNL     1      50.106   6.688  15.154  0.00  0.00    +0.000 OA
ATOM     12  H   UNL     1      49.134   6.596  17.417  0.00  0.00    +0.000 HD
ATOM     13  H   UNL     1      47.489   6.402  16.918  0.00  0.00    +0.000 HD
ENDBRANCH   1  10
BRANCH   5  14
ATOM     14  C   UNL     1      44.099   5.266  11.075  0.00  0.00    +0.000 C 
ATOM     15  C   UNL     1      42.662   5.691  11.352  0.00  0.00    +0.000 C 
ATOM     16  C   UNL     1      43.321   4.698  12.248  0.00  0.00    +0.000 C 
BRANCH  14  17
ATOM     17  C   UNL     1      44.331   4.331   9.883  0.00  0.00    +0.000 C 
ATOM     18  C   UNL     1      44.481   2.874  10.343  0.00  0.00    +0.000 C 
ATOM     19  C   UNL     1      44.627   1.937   9.150  0.00  0.00    +0.000 C 
ATOM     20  C   UNL     1      45.806   2.341   8.270  0.00  0.00    +0.000 C 
ATOM     21  C   UNL     1      45.718   3.803   7.836  0.00  0.00    +0.000 C 
ATOM     22  C   UNL     1      45.546   4.744   9.031  0.00  0.00    +0.000 C 
ENDBRANCH  14  17
ENDBRANCH   5  14
TORSDOF 3
ENDMDL
MODEL 3
REMARK VINA RESULT:    -6.382      3.641      5.551
REMARK INTER + INTRA:          -6.905
REMARK INTER:                  -6.253
REMARK INTRA:                  -0.652
REMARK UNBOUND:                 0.596
REMARK  Name = 
REMARK  3 active torsions:
REMARK  status: ('A' for Active; 'I' for Inactive)
REMARK    1  A    between atoms: C_2  and  C_4
REMARK    2  A    between atoms: N_8  and  C_9
REMARK    3  A    between atoms: C_9  and  C_10
REMARK                            x       y       z     vdW  Elec       q    Type
REMARK                         _______ _______ _______ _____ _____    ______ ____
ROOT
ATOM      1  C   UNL     1      44.743   4.842  11.907  0.00  0.00    +0.000 A 
ATOM      2  C   UNL     1      44.279   6.047  11.401  0.00  0.00    +0.000 A 
ATOM      3  C   UNL     1      45.067   7.186  11.547  0.00  0.00    +0.000 A 
ATOM      4  C   UNL     1      46.319   7.096  12.163  0.00  0.00    +0.000 A 
ATOM      5  N   UNL     1      47.026   8.312  12.315  0.00  0.00    +0.000 N 
ATOM      6  N   UNL     1      46.777   5.934  12.663  0.00  0.00    +0.000 NA
ATOM      7  C   UNL     1      45.975   4.841  12.547  0.00  0.00    +0.000 A 
ATOM      8  H   UNL     1      46.503   8.848  13.006  0.00  0.00    +0.000 HD
ENDROOT
BRANCH   1  10
ATOM      9  N   UNL     1      44.391   2.539  12.583  0.00  0.00    +0.000 N 
ATOM     10  C   UNL     1      43.965   3.592  11.812  0.00  0.00    +0.000 C 
ATOM     11  O   UNL     1      42.964   3.509  11.112  0.00  0.00    +0.000 OA
ATOM     12  H   UNL     1      43.802   1.713  12.576  0.00  0.00    +0.000 HD
ATOM     13  H   UNL     1      45.046   2.642  13.337  0.00  0.00    +0.000 HD
ENDBRANCH   1  10
BRANCH   5  14
ATOM     14  C   UNL     1      48.497   8.359  12.516  0.00  0.00    +0.000 C 
ATOM     15  C   UNL     1      49.233   9.202  11.482  0.00  0.00    +0.000 C 
ATOM     16  C   UNL     1      49.465   7.730  11.531  0.00  0.00    +0.000 C 
BRANCH  14  17
ATOM     17  C   UNL     1      48.968   8.474  13.970  0.00  0.00    +0.000 C 
ATOM     18  C   UNL     1      49.539   7.141  14.473  0.00  0.00    +0.000 C 
ATOM     19  C   UNL     1      50.084   7.281  15.890  0.00  0.00    +0.000 C 
ATOM     20  C   UNL     1      49.012   7.795  16.846  0.00  0.00    +0.000 C 
ATOM     21  C   UNL     1      48.383   9.095  16.350  0.00  0.00    +0.000 C 
ATOM     22  C   UNL     1      47.858   8.966  14.918  0.00  0.00    +0.000 C 
ENDBRANCH  14  17
ENDBRANCH   5  14
TORSDOF 3
ENDMDL
MODEL 4
REMARK VINA RESULT:    -6.143      3.292      5.302
REMARK INTER + INTRA:          -6.624
REMARK INTER:                  -6.809
REMARK INTRA:                   0.185
REMARK UNBOUND:                 0.596
REMARK  Name = 
REMARK  3 active torsions:
REMARK  status: ('A' for Active; 'I' for Inactive)
REMARK    1  A    between atoms: C_2  and  C_4
REMARK    2  A    between atoms: N_8  and  C_9
REMARK    3  A    between atoms: C_9  and  C_10
REMARK                            x       y       z     vdW  Elec       q    Type
REMARK                         _______ _______ _______ _____ _____    ______ ____
ROOT
ATOM      1  C   UNL     1      44.993   3.791  11.590  0.00  0.00    +0.000 A 
ATOM      2  C   UNL     1      45.634   3.466  12.776  0.00  0.00    +0.000 A 
ATOM      3  C   UNL     1      46.530   4.379  13.327  0.00  0.00    +0.000 A 
ATOM      4  C   UNL     1      46.744   5.613  12.705  0.00  0.00    +0.000 A 
ATOM      5  N   UNL     1      47.709   6.454  13.307  0.00  0.00    +0.000 N 
ATOM      6  N   UNL     1      46.131   5.936  11.551  0.00  0.00    +0.000 NA
ATOM      7  C   UNL     1      45.292   5.015  11.007  0.00  0.00    +0.000 A 
ATOM      8  H   UNL     1      48.605   5.997  13.150  0.00  0.00    +0.000 HD
ENDROOT
BRANCH   1  10
ATOM      9  N   UNL     1      44.498   2.217   9.812  0.00  0.00    +0.000 N 
ATOM     10  C   UNL     1      44.044   2.874  10.928  0.00  0.00    +0.000 C 
ATOM     11  O   UNL     1      42.922   2.678  11.376  0.00  0.00    +0.000 OA
ATOM     12  H   UNL     1      43.869   1.527   9.413  0.00  0.00    +0.000 HD
ATOM     13  H   UNL     1      45.469   2.167   9.562  0.00  0.00    +0.000 HD
ENDBRANCH   1  10
BRANCH   5  14
ATOM     14  C   UNL     1      47.743   7.921  13.075  0.00  0.00    +0.000 C 
ATOM     15  C   UNL     1      47.638   8.749  14.350  0.00  0.00    +0.000 C 
ATOM     16  C   UNL     1      46.540   8.808  13.342  0.00  0.00    +0.000 C 
BRANCH  14  17
ATOM     17  C   UNL     1      48.734   8.405  12.011  0.00  0.00    +0.000 C 
ATOM     18  C   UNL     1      50.071   7.659  12.120  0.00  0.00    +0.000 C 
ATOM     19  C   UNL     1      51.025   8.082  11.008  0.00  0.00    +0.000 C 
ATOM     20  C   UNL     1      51.255   9.590  11.021  0.00  0.00    +0.000 C 
ATOM     21  C   UNL     1      49.940  10.366  10.966  0.00  0.00    +0.000 C 
ATOM     22  C   UNL     1      48.971   9.927  12.066  0.00  0.00    +0.000 C 
ENDBRANCH  14  17
ENDBRANCH   5  14
TORSDOF 3
ENDMDL
MODEL 5
REMARK VINA RESULT:    -6.026      4.274      6.793
REMARK INTER + INTRA:          -6.486
REMARK INTER:                  -6.662
REMARK INTRA:                   0.176
REMARK UNBOUND:                 0.596
REMARK  Name = 
REMARK  3 active torsions:
REMARK  status: ('A' for Active; 'I' for Inactive)
REMARK    1  A    between atoms: C_2  and  C_4
REMARK    2  A    between atoms: N_8  and  C_9
REMARK    3  A    between atoms: C_9  and  C_10
REMARK                            x       y       z     vdW  Elec       q    Type
REMARK                         _______ _______ _______ _____ _____    ______ ____
ROOT
ATOM      1  C   UNL     1      49.985   7.744  13.738  0.00  0.00    +0.000 A 
ATOM      2  C   UNL     1      50.072   8.141  12.411  0.00  0.00    +0.000 A 
ATOM      3  C   UNL     1      49.052   7.784  11.534  0.00  0.00    +0.000 A 
ATOM      4  C   UNL     1      47.944   7.069  12.002  0.00  0.00    +0.000 A 
ATOM      5  N   UNL     1      46.983   6.706  11.030  0.00  0.00    +0.000 N 
ATOM      6  N   UNL     1      47.851   6.675  13.285  0.00  0.00    +0.000 NA
ATOM      7  C   UNL     1      48.878   6.997  14.117  0.00  0.00    +0.000 A 
ATOM      8  H   UNL     1      47.437   6.006  10.445  0.00  0.00    +0.000 HD
ENDROOT
BRANCH   1  10
ATOM      9  N   UNL     1      52.317   7.710  14.404  0.00  0.00    +0.000 N 
ATOM     10  C   UNL     1      51.031   8.063  14.728  0.00  0.00    +0.000 C 
ATOM     11  O   UNL     1      50.771   8.649  15.771  0.00  0.00    +0.000 OA
ATOM     12  H   UNL     1      53.039   8.007  15.051  0.00  0.00    +0.000 HD
ATOM     13  H   UNL     1      52.597   7.454  13.474  0.00  0.00    +0.000 HD
ENDBRANCH   1  10
BRANCH   5  14
ATOM     14  C   UNL     1      45.581   6.364  11.385  0.00  0.00    +0.000 C 
ATOM     15  C   UNL     1      44.720   7.573  11.725  0.00  0.00    +0.000 C 
ATOM     16  C   UNL     1      45.031   6.571  12.784  0.00  0.00    +0.000 C 
BRANCH  14  17
ATOM     17  C   UNL     1      44.931   5.260  10.543  0.00  0.00    +0.000 C 
ATOM     18  C   UNL     1      44.850   3.943  11.326  0.00  0.00    +0.000 C 
ATOM     19  C   UNL     1      44.126   2.871  10.518  0.00  0.00    +0.000 C 
ATOM     20  C   UNL     1      44.801   2.647   9.168  0.00  0.00    +0.000 C 
ATOM     21  C   UNL     1      44.946   3.949   8.382  0.00  0.00    +0.000 C 
ATOM     22  C   UNL     1      45.650   5.035   9.199  0.00  0.00    +0.000 C 
ENDBRANCH  14  17
ENDBRANCH   5  14
TORSDOF 3
ENDMDL
MODEL 6
REMARK VINA RESULT:    -5.931      5.422      7.965
REMARK INTER + INTRA:          -6.375
REMARK INTER:                  -5.795
REMARK INTRA:                  -0.580
REMARK UNBOUND:                 0.596
REMARK  Name = 
REMARK  3 active torsions:
REMARK  status: ('A' for Active; 'I' for Inactive)
REMARK    1  A    between atoms: C_2  and  C_4
REMARK    2  A    between atoms: N_8  and  C_9
REMARK    3  A    between atoms: C_9  and  C_10
REMARK                            x       y       z     vdW  Elec       q    Type
REMARK                         _______ _______ _______ _____ _____    ______ ____
ROOT
ATOM      1  C   UNL     1      46.837   4.966  13.772  0.00  0.00    +0.000 A 
ATOM      2  C   UNL     1      47.490   6.157  13.492  0.00  0.00    +0.000 A 
ATOM      3  C   UNL     1      48.345   6.697  14.450  0.00  0.00    +0.000 A 
ATOM      4  C   UNL     1      48.561   6.021  15.655  0.00  0.00    +0.000 A 
ATOM      5  N   UNL     1      49.403   6.670  16.589  0.00  0.00    +0.000 N 
ATOM      6  N   UNL     1      47.929   4.868  15.940  0.00  0.00    +0.000 NA
ATOM      7  C   UNL     1      47.066   4.378  15.009  0.00  0.00    +0.000 A 
ATOM      8  H   UNL     1      48.880   7.483  16.909  0.00  0.00    +0.000 HD
ENDROOT
BRANCH   1  10
ATOM      9  N   UNL     1      45.491   5.101  11.759  0.00  0.00    +0.000 N 
ATOM     10  C   UNL     1      45.901   4.336  12.822  0.00  0.00    +0.000 C 
ATOM     11  O   UNL     1      45.538   3.173  12.952  0.00  0.00    +0.000 OA
ATOM     12  H   UNL     1      44.915   4.634  11.067  0.00  0.00    +0.000 HD
ATOM     13  H   UNL     1      45.947   5.955  11.491  0.00  0.00    +0.000 HD
ENDBRANCH   1  10
BRANCH   5  14
ATOM     14  C   UNL     1      50.092   5.938  17.683  0.00  0.00    +0.000 C 
ATOM     15  C   UNL     1      51.611   5.954  17.574  0.00  0.00    +0.000 C 
ATOM     16  C   UNL     1      50.877   4.664  17.431  0.00  0.00    +0.000 C 
BRANCH  14  17
ATOM     17  C   UNL     1      49.492   6.113  19.083  0.00  0.00    +0.000 C 
ATOM     18  C   UNL     1      48.944   4.785  19.620  0.00  0.00    +0.000 C 
ATOM     19  C   UNL     1      48.426   4.945  21.045  0.00  0.00    +0.000 C 
ATOM     20  C   UNL     1      47.359   6.033  21.128  0.00  0.00    +0.000 C 
ATOM     21  C   UNL     1      47.854   7.359  20.552  0.00  0.00    +0.000 C 
ATOM     22  C   UNL     1      48.398   7.197  19.130  0.00  0.00    +0.000 C 
ENDBRANCH  14  17
ENDBRANCH   5  14
TORSDOF 3
ENDMDL
MODEL 7
REMARK VINA RESULT:    -5.916      4.368      6.442
REMARK INTER + INTRA:          -6.357
REMARK INTER:                  -5.730
REMARK INTRA:                  -0.627
REMARK UNBOUND:                 0.596
REMARK  Name = 
REMARK  3 active torsions:
REMARK  status: ('A' for Active; 'I' for Inactive)
REMARK    1  A    between atoms: C_2  and  C_4
REMARK    2  A    between atoms: N_8  and  C_9
REMARK    3  A    between atoms: C_9  and  C_10
REMARK                            x       y       z     vdW  Elec       q    Type
REMARK                         _______ _______ _______ _____ _____    ______ ____
ROOT
ATOM      1  C   UNL     1      44.523   6.014  12.257  0.00  0.00    +0.000 A 
ATOM      2  C   UNL     1      45.194   4.850  12.602  0.00  0.00    +0.000 A 
ATOM      3  C   UNL     1      46.489   4.945  13.104  0.00  0.00    +0.000 A 
ATOM      4  C   UNL     1      47.079   6.200  13.288  0.00  0.00    +0.000 A 
ATOM      5  N   UNL     1      48.414   6.197  13.754  0.00  0.00    +0.000 N 
ATOM      6  N   UNL     1      46.439   7.335  12.952  0.00  0.00    +0.000 NA
ATOM      7  C   UNL     1      45.191   7.219  12.423  0.00  0.00    +0.000 A 
ATOM      8  H   UNL     1      48.971   5.828  12.985  0.00  0.00    +0.000 HD
ENDROOT
BRANCH   1  10
ATOM      9  N   UNL     1      42.707   7.174  11.144  0.00  0.00    +0.000 N 
ATOM     10  C   UNL     1      43.157   6.002  11.699  0.00  0.00    +0.000 C 
ATOM     11  O   UNL     1      42.472   4.988  11.695  0.00  0.00    +0.000 OA
ATOM     12  H   UNL     1      41.801   7.134  10.688  0.00  0.00    +0.000 HD
ATOM     13  H   UNL     1      43.314   7.940  10.913  0.00  0.00    +0.000 HD
ENDBRANCH   1  10
BRANCH   5  14
ATOM     14  C   UNL     1      49.029   7.375  14.419  0.00  0.00    +0.000 C 
ATOM     15  C   UNL     1      49.671   7.057  15.763  0.00  0.00    +0.000 C 
ATOM     16  C   UNL     1      48.477   7.949  15.712  0.00  0.00    +0.000 C 
BRANCH  14  17
ATOM     17  C   UNL     1      49.781   8.343  13.500  0.00  0.00    +0.000 C 
ATOM     18  C   UNL     1      49.052   9.689  13.399  0.00  0.00    +0.000 C 
ATOM     19  C   UNL     1      49.846  10.678  12.553  0.00  0.00    +0.000 C 
ATOM     20  C   UNL     1      50.123  10.117  11.161  0.00  0.00    +0.000 C 
ATOM     21  C   UNL     1      50.802   8.750  11.223  0.00  0.00    +0.000 C 
ATOM     22  C   UNL     1      50.020   7.763  12.092  0.00  0.00    +0.000 C 
ENDBRANCH  14  17
ENDBRANCH   5  14
TORSDOF 3
ENDMDL
MODEL 8
REMARK VINA RESULT:    -5.885      6.619      8.870
REMARK INTER + INTRA:          -6.321
REMARK INTER:                  -5.948
REMARK INTRA:                  -0.374
REMARK UNBOUND:                 0.596
REMARK  Name = 
REMARK  3 active torsions:
REMARK  status: ('A' for Active; 'I' for Inactive)
REMARK    1  A    between atoms: C_2  and  C_4
REMARK    2  A    between atoms: N_8  and  C_9
REMARK    3  A    between atoms: C_9  and  C_10
REMARK                            x       y       z     vdW  Elec       q    Type
REMARK                         _______ _______ _______ _____ _____    ______ ____
ROOT
ATOM      1  C   UNL     1      52.251   1.748  17.699  0.00  0.00    +0.000 A 
ATOM      2  C   UNL     1      52.586   2.970  18.262  0.00  0.00    +0.000 A 
ATOM      3  C   UNL     1      51.693   4.032  18.146  0.00  0.00    +0.000 A 
ATOM      4  C   UNL     1      50.465   3.846  17.503  0.00  0.00    +0.000 A 
ATOM      5  N   UNL     1      49.644   4.992  17.387  0.00  0.00    +0.000 N 
ATOM      6  N   UNL     1      50.130   2.666  16.949  0.00  0.00    +0.000 NA
ATOM      7  C   UNL     1      51.034   1.654  17.036  0.00  0.00    +0.000 A 
ATOM      8  H   UNL     1      50.121   5.605  16.728  0.00  0.00    +0.000 HD
ENDROOT
BRANCH   1  10
ATOM      9  N   UNL     1      52.715  -0.494  18.500  0.00  0.00    +0.000 N 
ATOM     10  C   UNL     1      53.147   0.577  17.758  0.00  0.00    +0.000 C 
ATOM     11  O   UNL     1      54.206   0.546  17.144  0.00  0.00    +0.000 OA
ATOM     12  H   UNL     1      53.298  -1.325  18.466  0.00  0.00    +0.000 HD
ATOM     13  H   UNL     1      51.766  -0.599  18.810  0.00  0.00    +0.000 HD
ENDBRANCH   1  10
BRANCH   5  14
ATOM     14  C   UNL     1      48.178   4.904  17.160  0.00  0.00    +0.000 C 
ATOM     15  C   UNL     1      47.345   5.159  18.410  0.00  0.00    +0.000 C 
ATOM     16  C   UNL     1      47.332   3.807  17.781  0.00  0.00    +0.000 C 
BRANCH  14  17
ATOM     17  C   UNL     1      47.669   5.510  15.848  0.00  0.00    +0.000 C 
ATOM     18  C   UNL     1      47.196   4.417  14.881  0.00  0.00    +0.000 C 
ATOM     19  C   UNL     1      46.611   5.027  13.611  0.00  0.00    +0.000 C 
ATOM     20  C   UNL     1      47.618   5.946  12.925  0.00  0.00    +0.000 C 
ATOM     21  C   UNL     1      48.151   7.016  13.876  0.00  0.00    +0.000 C 
ATOM     22  C   UNL     1      48.715   6.409  15.162  0.00  0.00    +0.000 C 
ENDBRANCH  14  17
ENDBRANCH   5  14
TORSDOF 3
ENDMDL
