MODEL 1
REMARK VINA RESULT:    -7.771      0.000      0.000
REMARK INTER + INTRA:         -11.725
REMARK INTER:                 -10.497
REMARK INTRA:                  -1.228
REMARK UNBOUND:                -1.228
REMARK  Name = 
REMARK  6 active torsions:
REMARK  status: ('A' for Active; 'I' for Inactive)
REMARK    1  A    between atoms: C_2  and  C_3
REMARK    2  A    between atoms: C_3  and  N_4
REMARK    3  A    between atoms: C_3  and  C_17
REMARK    4  A    between atoms: C_5  and  C_7
REMARK    5  A    between atoms: C_20  and  C_21
REMARK    6  A    between atoms: C_21  and  N_22
REMARK                            x       y       z     vdW  Elec       q    Type
REMARK                         _______ _______ _______ _____ _____    ______ ____
ROOT
ATOM      1  C   UNL     1      47.774   4.865  15.451  0.00  0.00    +0.000 C 
ENDROOT
BRANCH   1   2
ATOM      2  C   UNL     1      46.962   4.743  14.160  0.00  0.00    +0.000 A 
ATOM      3  C   UNL     1      46.652   3.464  13.667  0.00  0.00    +0.000 A 
ATOM      4  C   UNL     1      45.830   3.302  12.545  0.00  0.00    +0.000 A 
ATOM      5  C   UNL     1      45.319   4.415  11.864  0.00  0.00    +0.000 A 
ATOM      6  C   UNL     1      45.679   5.692  12.311  0.00  0.00    +0.000 A 
ATOM      7  C   UNL     1      46.506   5.855  13.432  0.00  0.00    +0.000 A 
BRANCH   5   8
ATOM      8  C   UNL     1      44.388   4.239  10.687  0.00  0.00    +0.000 C 
BRANCH   8   9
ATOM      9  N   UNL     1      44.947   3.357   9.683  0.00  0.00    +0.000 N 
ATOM     10  C   UNL     1      45.606   3.893   8.605  0.00  0.00    +0.000 C 
ATOM     11  O   UNL     1      45.671   5.105   8.413  0.00  0.00    +0.000 OA
ATOM     12  N   UNL     1      46.190   2.980   7.761  0.00  0.00    +0.000 N 
ATOM     13  C   UNL     1      46.062   1.535   7.761  0.00  0.00    +0.000 C 
ATOM     14  C   UNL     1      47.310   1.079   7.025  0.00  0.00    +0.000 C 
ATOM     15  C   UNL     1      47.497   2.150   5.956  0.00  0.00    +0.000 C 
ATOM     16  C   UNL     1      46.924   3.421   6.583  0.00  0.00    +0.000 C 
ATOM     17  H   UNL     1      45.326   2.493  10.030  0.00  0.00    +0.000 HD
ENDBRANCH   8   9
ENDBRANCH   5   8
ENDBRANCH   1   2
BRANCH   1  18
ATOM     18  N   UNL     1      47.865   6.260  15.836  0.00  0.00    +0.000 N 
ATOM     19  C   UNL     1      49.069   6.860  16.100  0.00  0.00    +0.000 C 
ATOM     20  O   UNL     1      50.140   6.303  15.875  0.00  0.00    +0.000 OA
ATOM     21  H   UNL     1      47.024   6.651  16.242  0.00  0.00    +0.000 HD
BRANCH  19  22
ATOM     22  C   UNL     1      49.003   8.236  16.603  0.00  0.00    +0.000 A 
ATOM     23  C   UNL     1      49.602   9.273  15.902  0.00  0.00    +0.000 A 
ATOM     24  S   UNL     1      49.358  10.806  16.614  0.00  0.00    +0.000 S 
ATOM     25  C   UNL     1      48.500  10.127  17.917  0.00  0.00    +0.000 A 
ATOM     26  N   UNL     1      48.017  10.903  18.925  0.00  0.00    +0.000 NA
ATOM     27  C   UNL     1      47.427  10.245  19.869  0.00  0.00    +0.000 A 
ATOM     28  N   UNL     1      47.270   8.885  19.894  0.00  0.00    +0.000 N 
ATOM     29  C   UNL     1      47.687   8.069  18.870  0.00  0.00    +0.000 A 
ATOM     30  O   UNL     1      47.444   6.866  18.867  0.00  0.00    +0.000 OA
ATOM     31  C   UNL     1      48.385   8.755  17.799  0.00  0.00    +0.000 A 
ATOM     32  H   UNL     1      46.780   8.433  20.651  0.00  0.00    +0.000 HD
ENDBRANCH  19  22
ENDBRANCH   1  18
BRANCH   1  34
ATOM     33  N   UNL     1      46.796   3.369  17.408  0.00  0.00    +0.000 NA
ATOM     34  C   UNL     1      47.235   4.030  16.562  0.00  0.00    +0.000 C 
ENDBRANCH   1  34
TORSDOF 6
ENDMDL
MODEL 2
REMARK VINA RESULT:    -7.607      2.618      3.658
REMARK INTER + INTRA:         -11.503
REMARK INTER:                 -10.559
REMARK INTRA:                  -0.945
REMARK UNBOUND:                -1.228
REMARK  Name = 
REMARK  6 active torsions:
REMARK  status: ('A' for Active; 'I' for Inactive)
REMARK    1  A    between atoms: C_2  and  C_3
REMARK    2  A    between atoms: C_3  and  N_4
REMARK    3  A    between atoms: C_3  and  C_17
REMARK    4  A    between atoms: C_5  and  C_7
REMARK    5  A    between atoms: C_20  and  C_21
REMARK    6  A    between atoms: C_21  and  N_22
REMARK                            x       y       z     vdW  Elec       q    Type
REMARK                         _______ _______ _______ _____ _____    ______ ____
ROOT
ATOM      1  C   UNL     1      46.988   7.472  13.618  0.00  0.00    +0.000 C 
ENDROOT
BRANCH   1   2
ATOM      2  C   UNL     1      46.154   6.331  13.032  0.00  0.00    +0.000 A 
ATOM      3  C   UNL     1      45.015   6.640  12.269  0.00  0.00    +0.000 A 
ATOM      4  C   UNL     1      44.278   5.634  11.632  0.00  0.00    +0.000 A 
ATOM      5  C   UNL     1      44.639   4.287  11.765  0.00  0.00    +0.000 A 
ATOM      6  C   UNL     1      45.733   3.968  12.579  0.00  0.00    +0.000 A 
ATOM      7  C   UNL     1      46.470   4.974  13.221  0.00  0.00    +0.000 A 
BRANCH   5   8
ATOM      8  C   UNL     1      43.877   3.207  11.034  0.00  0.00    +0.000 C 
BRANCH   8   9
ATOM      9  N   UNL     1      44.680   2.581  10.004  0.00  0.00    +0.000 N 
ATOM     10  C   UNL     1      44.926   3.259   8.835  0.00  0.00    +0.000 C 
ATOM     11  O   UNL     1      44.420   4.351   8.592  0.00  0.00    +0.000 OA
ATOM     12  N   UNL     1      45.781   2.631   7.962  0.00  0.00    +0.000 N 
ATOM     13  C   UNL     1      46.319   1.285   8.030  0.00  0.00    +0.000 C 
ATOM     14  C   UNL     1      47.566   1.368   7.168  0.00  0.00    +0.000 C 
ATOM     15  C   UNL     1      47.153   2.315   6.046  0.00  0.00    +0.000 C 
ATOM     16  C   UNL     1      46.127   3.247   6.689  0.00  0.00    +0.000 C 
ATOM     17  H   UNL     1      45.438   2.009  10.334  0.00  0.00    +0.000 HD
ENDBRANCH   8   9
ENDBRANCH   5   8
ENDBRANCH   1   2
BRANCH   1  18
ATOM     18  N   UNL     1      48.085   6.923  14.391  0.00  0.00    +0.000 N 
ATOM     19  C   UNL     1      48.729   7.657  15.353  0.00  0.00    +0.000 C 
ATOM     20  O   UNL     1      48.318   8.753  15.723  0.00  0.00    +0.000 OA
ATOM     21  H   UNL     1      48.572   6.148  13.959  0.00  0.00    +0.000 HD
BRANCH  19  22
ATOM     22  C   UNL     1      49.901   7.023  15.967  0.00  0.00    +0.000 A 
ATOM     23  C   UNL     1      51.154   7.610  15.870  0.00  0.00    +0.000 A 
ATOM     24  S   UNL     1      52.374   6.754  16.705  0.00  0.00    +0.000 S 
ATOM     25  C   UNL     1      51.280   5.535  17.166  0.00  0.00    +0.000 A 
ATOM     26  N   UNL     1      51.687   4.461  17.897  0.00  0.00    +0.000 NA
ATOM     27  C   UNL     1      50.759   3.595  18.135  0.00  0.00    +0.000 A 
ATOM     28  N   UNL     1      49.459   3.706  17.716  0.00  0.00    +0.000 N 
ATOM     29  C   UNL     1      48.990   4.800  17.029  0.00  0.00    +0.000 A 
ATOM     30  O   UNL     1      47.801   4.924  16.754  0.00  0.00    +0.000 OA
ATOM     31  C   UNL     1      50.002   5.789  16.709  0.00  0.00    +0.000 A 
ATOM     32  H   UNL     1      48.776   3.003  17.953  0.00  0.00    +0.000 HD
ENDBRANCH  19  22
ENDBRANCH   1  18
BRANCH   1  34
ATOM     33  N   UNL     1      47.886   9.158  11.781  0.00  0.00    +0.000 NA
ATOM     34  C   UNL     1      47.478   8.428  12.585  0.00  0.00    +0.000 C 
ENDBRANCH   1  34
TORSDOF 6
ENDMDL
MODEL 3
REMARK VINA RESULT:    -6.810      2.054      2.749
REMARK INTER + INTRA:         -10.427
REMARK INTER:                  -9.276
REMARK INTRA:                  -1.150
REMARK UNBOUND:                -1.228
REMARK  Name = 
REMARK  6 active torsions:
REMARK  status: ('A' for Active; 'I' for Inactive)
REMARK    1  A    between atoms: C_2  and  C_3
REMARK    2  A    between atoms: C_3  and  N_4
REMARK    3  A    between atoms: C_3  and  C_17
REMARK    4  A    between atoms: C_5  and  C_7
REMARK    5  A    between atoms: C_20  and  C_21
REMARK    6  A    between atoms: C_21  and  N_22
REMARK                            x       y       z     vdW  Elec       q    Type
REMARK                         _______ _______ _______ _____ _____    ______ ____
ROOT
ATOM      1  C   UNL     1      48.112   4.888  15.724  0.00  0.00    +0.000 C 
ENDROOT
BRANCH   1   2
ATOM      2  C   UNL     1      47.240   4.808  14.470  0.00  0.00    +0.000 A 
ATOM      3  C   UNL     1      46.928   3.546  13.936  0.00  0.00    +0.000 A 
ATOM      4  C   UNL     1      46.054   3.418  12.849  0.00  0.00    +0.000 A 
ATOM      5  C   UNL     1      45.491   4.550  12.245  0.00  0.00    +0.000 A 
ATOM      6  C   UNL     1      45.850   5.813  12.731  0.00  0.00    +0.000 A 
ATOM      7  C   UNL     1      46.728   5.942  13.817  0.00  0.00    +0.000 A 
BRANCH   5   8
ATOM      8  C   UNL     1      44.506   4.409  11.108  0.00  0.00    +0.000 C 
BRANCH   8   9
ATOM      9  N   UNL     1      44.958   3.455  10.117  0.00  0.00    +0.000 N 
ATOM     10  C   UNL     1      45.519   3.910   8.949  0.00  0.00    +0.000 C 
ATOM     11  O   UNL     1      45.578   5.105   8.673  0.00  0.00    +0.000 OA
ATOM     12  N   UNL     1      46.012   2.935   8.116  0.00  0.00    +0.000 N 
ATOM     13  C   UNL     1      45.869   1.495   8.222  0.00  0.00    +0.000 C 
ATOM     14  C   UNL     1      47.037   0.972   7.405  0.00  0.00    +0.000 C 
ATOM     15  C   UNL     1      47.135   1.969   6.256  0.00  0.00    +0.000 C 
ATOM     16  C   UNL     1      46.636   3.287   6.848  0.00  0.00    +0.000 C 
ATOM     17  H   UNL     1      45.359   2.608  10.482  0.00  0.00    +0.000 HD
ENDBRANCH   8   9
ENDBRANCH   5   8
ENDBRANCH   1   2
BRANCH   1  18
ATOM     18  N   UNL     1      48.742   6.193  15.794  0.00  0.00    +0.000 N 
ATOM     19  C   UNL     1      49.979   6.369  16.357  0.00  0.00    +0.000 C 
ATOM     20  O   UNL     1      50.687   5.422  16.687  0.00  0.00    +0.000 OA
ATOM     21  H   UNL     1      48.108   6.981  15.750  0.00  0.00    +0.000 HD
BRANCH  19  22
ATOM     22  C   UNL     1      50.439   7.757  16.475  0.00  0.00    +0.000 A 
ATOM     23  C   UNL     1      50.832   8.269  17.704  0.00  0.00    +0.000 A 
ATOM     24  S   UNL     1      51.395   9.878  17.622  0.00  0.00    +0.000 S 
ATOM     25  C   UNL     1      51.069   9.967  15.954  0.00  0.00    +0.000 A 
ATOM     26  N   UNL     1      51.304  11.107  15.248  0.00  0.00    +0.000 NA
ATOM     27  C   UNL     1      50.967  11.042  14.003  0.00  0.00    +0.000 A 
ATOM     28  N   UNL     1      50.423   9.941  13.396  0.00  0.00    +0.000 N 
ATOM     29  C   UNL     1      50.225   8.751  14.053  0.00  0.00    +0.000 A 
ATOM     30  O   UNL     1      49.834   7.748  13.464  0.00  0.00    +0.000 OA
ATOM     31  C   UNL     1      50.559   8.780  15.465  0.00  0.00    +0.000 A 
ATOM     32  H   UNL     1      50.201   9.948  12.412  0.00  0.00    +0.000 HD
ENDBRANCH  19  22
ENDBRANCH   1  18
BRANCH   1  34
ATOM     33  N   UNL     1      46.795   4.364  17.964  0.00  0.00    +0.000 NA
ATOM     34  C   UNL     1      47.366   4.580  16.977  0.00  0.00    +0.000 C 
ENDBRANCH   1  34
TORSDOF 6
ENDMDL
MODEL 4
REMARK VINA RESULT:    -6.647      2.854      4.151
REMARK INTER + INTRA:         -10.206
REMARK INTER:                  -9.079
REMARK INTRA:                  -1.128
REMARK UNBOUND:                -1.228
REMARK  Name = 
REMARK  6 active torsions:
REMARK  status: ('A' for Active; 'I' for Inactive)
REMARK    1  A    between atoms: C_2  and  C_3
REMARK    2  A    between atoms: C_3  and  N_4
REMARK    3  A    between atoms: C_3  and  C_17
REMARK    4  A    between atoms: C_5  and  C_7
REMARK    5  A    between atoms: C_20  and  C_21
REMARK    6  A    between atoms: C_21  and  N_22
REMARK                            x       y       z     vdW  Elec       q    Type
REMARK                         _______ _______ _______ _____ _____    ______ ____
ROOT
ATOM      1  C   UNL     1      47.558   8.704  13.784  0.00  0.00    +0.000 C 
ENDROOT
BRANCH   1   2
ATOM      2  C   UNL     1      46.690   7.886  12.827  0.00  0.00    +0.000 A 
ATOM      3  C   UNL     1      47.313   7.092  11.849  0.00  0.00    +0.000 A 
ATOM      4  C   UNL     1      46.565   6.252  11.016  0.00  0.00    +0.000 A 
ATOM      5  C   UNL     1      45.168   6.204  11.114  0.00  0.00    +0.000 A 
ATOM      6  C   UNL     1      44.537   7.043  12.041  0.00  0.00    +0.000 A 
ATOM      7  C   UNL     1      45.285   7.888  12.873  0.00  0.00    +0.000 A 
BRANCH   5   8
ATOM      8  C   UNL     1      44.365   5.258  10.253  0.00  0.00    +0.000 C 
BRANCH   8   9
ATOM      9  N   UNL     1      45.164   4.687   9.188  0.00  0.00    +0.000 N 
ATOM     10  C   UNL     1      45.417   3.338   9.183  0.00  0.00    +0.000 C 
ATOM     11  O   UNL     1      45.059   2.601  10.098  0.00  0.00    +0.000 OA
ATOM     12  N   UNL     1      46.094   2.872   8.083  0.00  0.00    +0.000 N 
ATOM     13  C   UNL     1      46.721   3.630   7.016  0.00  0.00    +0.000 C 
ATOM     14  C   UNL     1      46.787   2.630   5.875  0.00  0.00    +0.000 C 
ATOM     15  C   UNL     1      47.077   1.310   6.582  0.00  0.00    +0.000 C 
ATOM     16  C   UNL     1      46.419   1.458   7.954  0.00  0.00    +0.000 C 
ATOM     17  H   UNL     1      45.035   5.101   8.281  0.00  0.00    +0.000 HD
ENDBRANCH   8   9
ENDBRANCH   5   8
ENDBRANCH   1   2
BRANCH   1  18
ATOM     18  N   UNL     1      48.146   7.826  14.777  0.00  0.00    +0.000 N 
ATOM     19  C   UNL     1      48.385   8.242  16.060  0.00  0.00    +0.000 C 
ATOM     20  O   UNL     1      47.975   9.320  16.484  0.00  0.00    +0.000 OA
ATOM     21  H   UNL     1      48.686   7.054  14.405  0.00  0.00    +0.000 HD
BRANCH  19  22
ATOM     22  C   UNL     1      49.099   7.293  16.921  0.00  0.00    +0.000 A 
ATOM     23  C   UNL     1      48.493   6.773  18.056  0.00  0.00    +0.000 A 
ATOM     24  S   UNL     1      49.461   5.637  18.885  0.00  0.00    +0.000 S 
ATOM     25  C   UNL     1      50.748   5.853  17.793  0.00  0.00    +0.000 A 
ATOM     26  N   UNL     1      51.922   5.180  17.943  0.00  0.00    +0.000 NA
ATOM     27  C   UNL     1      52.823   5.477  17.067  0.00  0.00    +0.000 A 
ATOM     28  N   UNL     1      52.658   6.380  16.050  0.00  0.00    +0.000 N 
ATOM     29  C   UNL     1      51.472   7.037  15.823  0.00  0.00    +0.000 A 
ATOM     30  O   UNL     1      51.315   7.762  14.846  0.00  0.00    +0.000 OA
ATOM     31  C   UNL     1      50.435   6.761  16.800  0.00  0.00    +0.000 A 
ATOM     32  H   UNL     1      53.395   6.552  15.384  0.00  0.00    +0.000 HD
ENDBRANCH  19  22
ENDBRANCH   1  18
BRANCH   1  34
ATOM     33  N   UNL     1      49.420  10.147  12.568  0.00  0.00    +0.000 NA
ATOM     34  C   UNL     1      48.602   9.507  13.086  0.00  0.00    +0.000 C 
ENDBRANCH   1  34
TORSDOF 6
ENDMDL
MODEL 5
REMARK VINA RESULT:    -6.392      5.311      8.093
REMARK INTER + INTRA:          -9.862
REMARK INTER:                  -8.779
REMARK INTRA:                  -1.084
REMARK UNBOUND:                -1.228
REMARK  Name = 
REMARK  6 active torsions:
REMARK  status: ('A' for Active; 'I' for Inactive)
REMARK    1  A    between atoms: C_2  and  C_3
REMARK    2  A    between atoms: C_3  and  N_4
REMARK    3  A    between atoms: C_3  and  C_17
REMARK    4  A    between atoms: C_5  and  C_7
REMARK    5  A    between atoms: C_20  and  C_21
REMARK    6  A    between atoms: C_21  and  N_22
REMARK                            x       y       z     vdW  Elec       q    Type
REMARK                         _______ _______ _______ _____ _____    ______ ____
ROOT
ATOM      1  C   UNL     1      48.124   7.017  13.575  0.00  0.00    +0.000 C 
ENDROOT
BRANCH   1   2
ATOM      2  C   UNL     1      49.413   7.550  12.947  0.00  0.00    +0.000 A 
ATOM      3  C   UNL     1      50.410   8.082  13.782  0.00  0.00    +0.000 A 
ATOM      4  C   UNL     1      51.644   8.491  13.263  0.00  0.00    +0.000 A 
ATOM      5  C   UNL     1      51.907   8.408  11.889  0.00  0.00    +0.000 A 
ATOM      6  C   UNL     1      50.894   7.941  11.044  0.00  0.00    +0.000 A 
ATOM      7  C   UNL     1      49.655   7.535  11.562  0.00  0.00    +0.000 A 
BRANCH   5   8
ATOM      8  C   UNL     1      53.258   8.798  11.337  0.00  0.00    +0.000 C 
BRANCH   8   9
ATOM      9  N   UNL     1      53.658   7.946  10.236  0.00  0.00    +0.000 N 
ATOM     10  C   UNL     1      54.430   6.839  10.486  0.00  0.00    +0.000 C 
ATOM     11  O   UNL     1      54.868   6.584  11.605  0.00  0.00    +0.000 OA
ATOM     12  N   UNL     1      54.674   6.035   9.399  0.00  0.00    +0.000 N 
ATOM     13  C   UNL     1      54.372   6.285   8.002  0.00  0.00    +0.000 C 
ATOM     14  C   UNL     1      54.343   4.891   7.401  0.00  0.00    +0.000 C 
ATOM     15  C   UNL     1      55.447   4.160   8.157  0.00  0.00    +0.000 C 
ATOM     16  C   UNL     1      55.476   4.827   9.532  0.00  0.00    +0.000 C 
ATOM     17  H   UNL     1      52.978   7.836   9.504  0.00  0.00    +0.000 HD
ENDBRANCH   8   9
ENDBRANCH   5   8
ENDBRANCH   1   2
BRANCH   1  18
ATOM     18  N   UNL     1      47.446   6.150  12.631  0.00  0.00    +0.000 N 
ATOM     19  C   UNL     1      46.390   6.589  11.875  0.00  0.00    +0.000 C 
ATOM     20  O   UNL     1      46.061   7.771  11.838  0.00  0.00    +0.000 OA
ATOM     21  H   UNL     1      47.540   5.158  12.812  0.00  0.00    +0.000 HD
BRANCH  19  22
ATOM     22  C   UNL     1      45.720   5.572  11.058  0.00  0.00    +0.000 A 
ATOM     23  C   UNL     1      45.764   5.637   9.672  0.00  0.00    +0.000 A 
ATOM     24  S   UNL     1      44.982   4.328   8.904  0.00  0.00    +0.000 S 
ATOM     25  C   UNL     1      44.500   3.667  10.396  0.00  0.00    +0.000 A 
ATOM     26  N   UNL     1      43.758   2.528  10.456  0.00  0.00    +0.000 NA
ATOM     27  C   UNL     1      43.428   2.169  11.653  0.00  0.00    +0.000 A 
ATOM     28  N   UNL     1      43.777   2.841  12.795  0.00  0.00    +0.000 N 
ATOM     29  C   UNL     1      44.575   3.959  12.786  0.00  0.00    +0.000 A 
ATOM     30  O   UNL     1      44.959   4.483  13.827  0.00  0.00    +0.000 OA
ATOM     31  C   UNL     1      44.948   4.422  11.462  0.00  0.00    +0.000 A 
ATOM     32  H   UNL     1      43.505   2.496  13.703  0.00  0.00    +0.000 HD
ENDBRANCH  19  22
ENDBRANCH   1  18
BRANCH   1  34
ATOM     33  N   UNL     1      48.520   5.765  15.878  0.00  0.00    +0.000 NA
ATOM     34  C   UNL     1      48.349   6.327  14.877  0.00  0.00    +0.000 C 
ENDBRANCH   1  34
TORSDOF 6
ENDMDL
MODEL 6
REMARK VINA RESULT:    -6.109      4.741      8.158
REMARK INTER + INTRA:          -9.480
REMARK INTER:                  -8.350
REMARK INTRA:                  -1.131
REMARK UNBOUND:                -1.228
REMARK  Name = 
REMARK  6 active torsions:
REMARK  status: ('A' for Active; 'I' for Inactive)
REMARK    1  A    between atoms: C_2  and  C_3
REMARK    2  A    between atoms: C_3  and  N_4
REMARK    3  A    between atoms: C_3  and  C_17
REMARK    4  A    between atoms: C_5  and  C_7
REMARK    5  A    between atoms: C_20  and  C_21
REMARK    6  A    between atoms: C_21  and  N_22
REMARK                            x       y       z     vdW  Elec       q    Type
REMARK                         _______ _______ _______ _____ _____    ______ ____
ROOT
ATOM      1  C   UNL     1      47.324   6.086  14.176  0.00  0.00    +0.000 C 
ENDROOT
BRANCH   1   2
ATOM      2  C   UNL     1      48.379   6.919  13.448  0.00  0.00    +0.000 A 
ATOM      3  C   UNL     1      49.425   7.495  14.188  0.00  0.00    +0.000 A 
ATOM      4  C   UNL     1      50.467   8.183  13.553  0.00  0.00    +0.000 A 
ATOM      5  C   UNL     1      50.477   8.341  12.161  0.00  0.00    +0.000 A 
ATOM      6  C   UNL     1      49.404   7.827  11.424  0.00  0.00    +0.000 A 
ATOM      7  C   UNL     1      48.358   7.142  12.060  0.00  0.00    +0.000 A 
BRANCH   5   8
ATOM      8  C   UNL     1      51.629   9.035  11.471  0.00  0.00    +0.000 C 
BRANCH   8   9
ATOM      9  N   UNL     1      52.043   8.334  10.274  0.00  0.00    +0.000 N 
ATOM     10  C   UNL     1      53.125   7.491  10.325  0.00  0.00    +0.000 C 
ATOM     11  O   UNL     1      53.813   7.369  11.335  0.00  0.00    +0.000 OA
ATOM     12  N   UNL     1      53.380   6.793   9.170  0.00  0.00    +0.000 N 
ATOM     13  C   UNL     1      52.771   6.949   7.863  0.00  0.00    +0.000 C 
ATOM     14  C   UNL     1      53.023   5.606   7.202  0.00  0.00    +0.000 C 
ATOM     15  C   UNL     1      54.405   5.217   7.713  0.00  0.00    +0.000 C 
ATOM     16  C   UNL     1      54.497   5.861   9.096  0.00  0.00    +0.000 C 
ATOM     17  H   UNL     1      51.298   8.038   9.667  0.00  0.00    +0.000 HD
ENDBRANCH   8   9
ENDBRANCH   5   8
ENDBRANCH   1   2
BRANCH   1  18
ATOM     18  N   UNL     1      46.670   5.199  13.234  0.00  0.00    +0.000 N 
ATOM     19  C   UNL     1      45.340   5.323  12.927  0.00  0.00    +0.000 C 
ATOM     20  O   UNL     1      44.669   6.279  13.305  0.00  0.00    +0.000 OA
ATOM     21  H   UNL     1      47.121   4.302  13.101  0.00  0.00    +0.000 HD
BRANCH  19  22
ATOM     22  C   UNL     1      44.782   4.281  12.058  0.00  0.00    +0.000 A 
ATOM     23  C   UNL     1      44.019   3.252  12.590  0.00  0.00    +0.000 A 
ATOM     24  S   UNL     1      43.406   2.180  11.411  0.00  0.00    +0.000 S 
ATOM     25  C   UNL     1      44.196   3.017  10.158  0.00  0.00    +0.000 A 
ATOM     26  N   UNL     1      44.106   2.601   8.865  0.00  0.00    +0.000 NA
ATOM     27  C   UNL     1      44.793   3.307   8.029  0.00  0.00    +0.000 A 
ATOM     28  N   UNL     1      45.556   4.394   8.365  0.00  0.00    +0.000 N 
ATOM     29  C   UNL     1      45.628   4.886   9.645  0.00  0.00    +0.000 A 
ATOM     30  O   UNL     1      46.234   5.921   9.904  0.00  0.00    +0.000 OA
ATOM     31  C   UNL     1      44.897   4.109  10.630  0.00  0.00    +0.000 A 
ATOM     32  H   UNL     1      46.054   4.916   7.660  0.00  0.00    +0.000 HD
ENDBRANCH  19  22
ENDBRANCH   1  18
BRANCH   1  34
ATOM     33  N   UNL     1      48.306   4.769  16.256  0.00  0.00    +0.000 NA
ATOM     34  C   UNL     1      47.874   5.332  15.338  0.00  0.00    +0.000 C 
ENDBRANCH   1  34
TORSDOF 6
ENDMDL
MODEL 7
REMARK VINA RESULT:    -6.056      4.551      6.035
REMARK INTER + INTRA:          -9.409
REMARK INTER:                  -8.621
REMARK INTRA:                  -0.788
REMARK UNBOUND:                -1.228
REMARK  Name = 
REMARK  6 active torsions:
REMARK  status: ('A' for Active; 'I' for Inactive)
REMARK    1  A    between atoms: C_2  and  C_3
REMARK    2  A    between atoms: C_3  and  N_4
REMARK    3  A    between atoms: C_3  and  C_17
REMARK    4  A    between atoms: C_5  and  C_7
REMARK    5  A    between atoms: C_20  and  C_21
REMARK    6  A    between atoms: C_21  and  N_22
REMARK                            x       y       z     vdW  Elec       q    Type
REMARK                         _______ _______ _______ _____ _____    ______ ____
ROOT
ATOM      1  C   UNL     1      48.880   3.616  18.320  0.00  0.00    +0.000 C 
ENDROOT
BRANCH   1   2
ATOM      2  C   UNL     1      48.469   4.325  17.029  0.00  0.00    +0.000 A 
ATOM      3  C   UNL     1      47.548   3.701  16.171  0.00  0.00    +0.000 A 
ATOM      4  C   UNL     1      47.068   4.353  15.029  0.00  0.00    +0.000 A 
ATOM      5  C   UNL     1      47.518   5.637  14.694  0.00  0.00    +0.000 A 
ATOM      6  C   UNL     1      48.485   6.237  15.508  0.00  0.00    +0.000 A 
ATOM      7  C   UNL     1      48.970   5.583  16.650  0.00  0.00    +0.000 A 
BRANCH   5   8
ATOM      8  C   UNL     1      46.959   6.363  13.492  0.00  0.00    +0.000 C 
BRANCH   8   9
ATOM      9  N   UNL     1      46.146   5.493  12.666  0.00  0.00    +0.000 N 
ATOM     10  C   UNL     1      46.114   5.689  11.308  0.00  0.00    +0.000 C 
ATOM     11  O   UNL     1      46.688   6.631  10.768  0.00  0.00    +0.000 OA
ATOM     12  N   UNL     1      45.401   4.755  10.597  0.00  0.00    +0.000 N 
ATOM     13  C   UNL     1      44.543   3.697  11.097  0.00  0.00    +0.000 C 
ATOM     14  C   UNL     1      44.509   2.707   9.946  0.00  0.00    +0.000 C 
ATOM     15  C   UNL     1      44.517   3.604   8.713  0.00  0.00    +0.000 C 
ATOM     16  C   UNL     1      45.294   4.846   9.147  0.00  0.00    +0.000 C 
ATOM     17  H   UNL     1      46.103   4.533  12.961  0.00  0.00    +0.000 HD
ENDBRANCH   8   9
ENDBRANCH   5   8
ENDBRANCH   1   2
BRANCH   1  18
ATOM     18  N   UNL     1      50.295   3.301  18.271  0.00  0.00    +0.000 N 
ATOM     19  C   UNL     1      50.778   2.258  17.525  0.00  0.00    +0.000 C 
ATOM     20  O   UNL     1      50.071   1.635  16.738  0.00  0.00    +0.000 OA
ATOM     21  H   UNL     1      50.839   3.632  19.059  0.00  0.00    +0.000 HD
BRANCH  19  22
ATOM     22  C   UNL     1      52.210   1.975  17.669  0.00  0.00    +0.000 A 
ATOM     23  C   UNL     1      52.666   0.668  17.771  0.00  0.00    +0.000 A 
ATOM     24  S   UNL     1      54.367   0.546  17.863  0.00  0.00    +0.000 S 
ATOM     25  C   UNL     1      54.546   2.238  17.838  0.00  0.00    +0.000 A 
ATOM     26  N   UNL     1      55.775   2.818  17.915  0.00  0.00    +0.000 NA
ATOM     27  C   UNL     1      55.754   4.110  17.931  0.00  0.00    +0.000 A 
ATOM     28  N   UNL     1      54.620   4.875  17.869  0.00  0.00    +0.000 N 
ATOM     29  C   UNL     1      53.364   4.334  17.730  0.00  0.00    +0.000 A 
ATOM     30  O   UNL     1      52.374   5.041  17.574  0.00  0.00    +0.000 OA
ATOM     31  C   UNL     1      53.329   2.883  17.739  0.00  0.00    +0.000 A 
ATOM     32  H   UNL     1      54.673   5.882  17.865  0.00  0.00    +0.000 HD
ENDBRANCH  19  22
ENDBRANCH   1  18
BRANCH   1  34
ATOM     33  N   UNL     1      48.278   5.020  20.487  0.00  0.00    +0.000 NA
ATOM     34  C   UNL     1      48.541   4.392  19.547  0.00  0.00    +0.000 C 
ENDBRANCH   1  34
TORSDOF 6
ENDMDL
MODEL 8
REMARK VINA RESULT:    -6.013      3.656      5.343
REMARK INTER + INTRA:          -9.350
REMARK INTER:                  -8.232
REMARK INTRA:                  -1.118
REMARK UNBOUND:                -1.228
REMARK  Name = 
REMARK  6 active torsions:
REMARK  status: ('A' for Active; 'I' for Inactive)
REMARK    1  A    between atoms: C_2  and  C_3
REMARK    2  A    between atoms: C_3  and  N_4
REMARK    3  A    between atoms: C_3  and  C_17
REMARK    4  A    between atoms: C_5  and  C_7
REMARK    5  A    between atoms: C_20  and  C_21
REMARK    6  A    between atoms: C_21  and  N_22
REMARK                            x       y       z     vdW  Elec       q    Type
REMARK                         _______ _______ _______ _____ _____    ______ ____
ROOT
ATOM      1  C   UNL     1      50.365   8.610  14.085  0.00  0.00    +0.000 C 
ENDROOT
BRANCH   1   2
ATOM      2  C   UNL     1      49.015   8.383  13.406  0.00  0.00    +0.000 A 
ATOM      3  C   UNL     1      48.883   7.331  12.483  0.00  0.00    +0.000 A 
ATOM      4  C   UNL     1      47.644   7.023  11.910  0.00  0.00    +0.000 A 
ATOM      5  C   UNL     1      46.504   7.778  12.219  0.00  0.00    +0.000 A 
ATOM      6  C   UNL     1      46.642   8.867  13.087  0.00  0.00    +0.000 A 
ATOM      7  C   UNL     1      47.884   9.179  13.658  0.00  0.00    +0.000 A 
BRANCH   5   8
ATOM      8  C   UNL     1      45.155   7.411  11.643  0.00  0.00    +0.000 C 
BRANCH   8   9
ATOM      9  N   UNL     1      45.256   6.343  10.671  0.00  0.00    +0.000 N 
ATOM     10  C   UNL     1      44.840   5.080  11.011  0.00  0.00    +0.000 C 
ATOM     11  O   UNL     1      44.459   4.798  12.145  0.00  0.00    +0.000 OA
ATOM     12  N   UNL     1      44.876   4.156   9.995  0.00  0.00    +0.000 N 
ATOM     13  C   UNL     1      45.449   4.290   8.669  0.00  0.00    +0.000 C 
ATOM     14  C   UNL     1      44.714   3.231   7.867  0.00  0.00    +0.000 C 
ATOM     15  C   UNL     1      44.546   2.090   8.864  0.00  0.00    +0.000 C 
ATOM     16  C   UNL     1      44.456   2.781  10.225  0.00  0.00    +0.000 C 
ATOM     17  H   UNL     1      45.081   6.608   9.717  0.00  0.00    +0.000 HD
ENDBRANCH   8   9
ENDBRANCH   5   8
ENDBRANCH   1   2
BRANCH   1  18
ATOM     18  N   UNL     1      50.734   7.428  14.841  0.00  0.00    +0.000 N 
ATOM     19  C   UNL     1      50.401   7.282  16.162  0.00  0.00    +0.000 C 
ATOM     20  O   UNL     1      49.645   8.061  16.736  0.00  0.00    +0.000 OA
ATOM     21  H   UNL     1      51.524   6.911  14.475  0.00  0.00    +0.000 HD
BRANCH  19  22
ATOM     22  C   UNL     1      50.947   6.098  16.834  0.00  0.00    +0.000 A 
ATOM     23  C   UNL     1      50.110   5.216  17.502  0.00  0.00    +0.000 A 
ATOM     24  S   UNL     1      50.927   3.868  18.160  0.00  0.00    +0.000 S 
ATOM     25  C   UNL     1      52.435   4.453  17.632  0.00  0.00    +0.000 A 
ATOM     26  N   UNL     1      53.586   3.775  17.893  0.00  0.00    +0.000 NA
ATOM     27  C   UNL     1      54.658   4.361  17.471  0.00  0.00    +0.000 A 
ATOM     28  N   UNL     1      54.684   5.559  16.806  0.00  0.00    +0.000 N 
ATOM     29  C   UNL     1      53.544   6.247  16.467  0.00  0.00    +0.000 A 
ATOM     30  O   UNL     1      53.587   7.264  15.782  0.00  0.00    +0.000 OA
ATOM     31  C   UNL     1      52.313   5.646  16.946  0.00  0.00    +0.000 A 
ATOM     32  H   UNL     1      55.554   5.954  16.483  0.00  0.00    +0.000 HD
ENDBRANCH  19  22
ENDBRANCH   1  18
BRANCH   1  34
ATOM     33  N   UNL     1      52.270   9.284  12.370  0.00  0.00    +0.000 NA
ATOM     34  C   UNL     1      51.442   9.000  13.132  0.00  0.00    +0.000 C 
ENDBRANCH   1  34
TORSDOF 6
ENDMDL
MODEL 9
REMARK VINA RESULT:    -5.875      3.615      5.177
REMARK INTER + INTRA:          -9.164
REMARK INTER:                  -8.153
REMARK INTRA:                  -1.010
REMARK UNBOUND:                -1.228
REMARK  Name = 
REMARK  6 active torsions:
REMARK  status: ('A' for Active; 'I' for Inactive)
REMARK    1  A    between atoms: C_2  and  C_3
REMARK    2  A    between atoms: C_3  and  N_4
REMARK    3  A    between atoms: C_3  and  C_17
REMARK    4  A    between atoms: C_5  and  C_7
REMARK    5  A    between atoms: C_20  and  C_21
REMARK    6  A    between atoms: C_21  and  N_22
REMARK                            x       y       z     vdW  Elec       q    Type
REMARK                         _______ _______ _______ _____ _____    ______ ____
ROOT
ATOM      1  C   UNL     1      50.581   9.093  13.618  0.00  0.00    +0.000 C 
ENDROOT
BRANCH   1   2
ATOM      2  C   UNL     1      49.219   8.579  13.152  0.00  0.00    +0.000 A 
ATOM      3  C   UNL     1      48.054   9.099  13.742  0.00  0.00    +0.000 A 
ATOM      4  C   UNL     1      46.785   8.733  13.280  0.00  0.00    +0.000 A 
ATOM      5  C   UNL     1      46.640   7.811  12.234  0.00  0.00    +0.000 A 
ATOM      6  C   UNL     1      47.795   7.239  11.687  0.00  0.00    +0.000 A 
ATOM      7  C   UNL     1      49.067   7.602  12.152  0.00  0.00    +0.000 A 
BRANCH   5   8
ATOM      8  C   UNL     1      45.272   7.457  11.700  0.00  0.00    +0.000 C 
BRANCH   8   9
ATOM      9  N   UNL     1      45.332   6.382  10.731  0.00  0.00    +0.000 N 
ATOM     10  C   UNL     1      44.929   5.122  11.095  0.00  0.00    +0.000 C 
ATOM     11  O   UNL     1      44.593   4.847  12.244  0.00  0.00    +0.000 OA
ATOM     12  N   UNL     1      44.924   4.192  10.083  0.00  0.00    +0.000 N 
ATOM     13  C   UNL     1      45.443   4.317   8.735  0.00  0.00    +0.000 C 
ATOM     14  C   UNL     1      44.676   3.254   7.969  0.00  0.00    +0.000 C 
ATOM     15  C   UNL     1      44.547   2.120   8.979  0.00  0.00    +0.000 C 
ATOM     16  C   UNL     1      44.512   2.819  10.338  0.00  0.00    +0.000 C 
ATOM     17  H   UNL     1      45.120   6.642   9.783  0.00  0.00    +0.000 HD
ENDBRANCH   8   9
ENDBRANCH   5   8
ENDBRANCH   1   2
BRANCH   1  18
ATOM     18  N   UNL     1      51.279   8.040  14.331  0.00  0.00    +0.000 N 
ATOM     19  C   UNL     1      51.290   7.979  15.701  0.00  0.00    +0.000 C 
ATOM     20  O   UNL     1      50.589   8.711  16.393  0.00  0.00    +0.000 OA
ATOM     21  H   UNL     1      52.025   7.590  13.815  0.00  0.00    +0.000 HD
BRANCH  19  22
ATOM     22  C   UNL     1      52.139   6.937  16.289  0.00  0.00    +0.000 A 
ATOM     23  C   UNL     1      53.517   7.093  16.339  0.00  0.00    +0.000 A 
ATOM     24  S   UNL     1      54.319   5.804  17.121  0.00  0.00    +0.000 S 
ATOM     25  C   UNL     1      52.859   4.964  17.358  0.00  0.00    +0.000 A 
ATOM     26  N   UNL     1      52.836   3.745  17.964  0.00  0.00    +0.000 NA
ATOM     27  C   UNL     1      51.663   3.207  18.035  0.00  0.00    +0.000 A 
ATOM     28  N   UNL     1      50.511   3.778  17.562  0.00  0.00    +0.000 N 
ATOM     29  C   UNL     1      50.477   5.031  17.000  0.00  0.00    +0.000 A 
ATOM     30  O   UNL     1      49.420   5.563  16.678  0.00  0.00    +0.000 OA
ATOM     31  C   UNL     1      51.775   5.667  16.868  0.00  0.00    +0.000 A 
ATOM     32  H   UNL     1      49.622   3.314  17.668  0.00  0.00    +0.000 HD
ENDBRANCH  19  22
ENDBRANCH   1  18
BRANCH   1  34
ATOM     33  N   UNL     1      52.083  10.042  11.651  0.00  0.00    +0.000 NA
ATOM     34  C   UNL     1      51.414   9.637  12.508  0.00  0.00    +0.000 C 
ENDBRANCH   1  34
TORSDOF 6
ENDMDL
