MODEL 1
REMARK VINA RESULT:    -7.395      0.000      0.000
REMARK INTER + INTRA:         -10.496
REMARK INTER:                  -9.556
REMARK INTRA:                  -0.940
REMARK UNBOUND:                -0.940
REMARK  Name = 
REMARK  5 active torsions:
REMARK  status: ('A' for Active; 'I' for Inactive)
REMARK    1  A    between atoms: C_7  and  C_8
REMARK    2  A    between atoms: N_10  and  C_11
REMARK    3  A    between atoms: C_11  and  C_12
REMARK    4  A    between atoms: C_15  and  C_16
REMARK    5  A    between atoms: C_16  and  N_17
REMARK                            x       y       z     vdW  Elec       q    Type
REMARK                         _______ _______ _______ _____ _____    ______ ____
ROOT
ATOM      1  C   UNL     1      48.388   6.257  14.832  0.00  0.00    +0.000 C 
ATOM      2  O   UNL     1      49.461   6.810  14.599  0.00  0.00    +0.000 OA
ATOM      3  N   UNL     1      48.096   5.748  16.076  0.00  0.00    +0.000 N 
ATOM      4  H   UNL     1      47.201   5.298  16.251  0.00  0.00    +0.000 HD
ENDROOT
BRANCH   1  11
ATOM      5  N   UNL     1      44.183   2.580  11.059  0.00  0.00    +0.000 N 
ATOM      6  C   UNL     1      44.987   3.427  11.751  0.00  0.00    +0.000 A 
ATOM      7  N   UNL     1      44.993   4.699  11.471  0.00  0.00    +0.000 NA
ATOM      8  C   UNL     1      45.836   5.423  12.243  0.00  0.00    +0.000 A 
ATOM      9  N   UNL     1      45.993   6.769  12.116  0.00  0.00    +0.000 N 
ATOM     10  C   UNL     1      46.916   7.194  13.035  0.00  0.00    +0.000 A 
ATOM     11  C   UNL     1      47.377   6.106  13.777  0.00  0.00    +0.000 A 
ATOM     12  C   UNL     1      46.667   4.985  13.253  0.00  0.00    +0.000 A 
ATOM     13  C   UNL     1      46.645   3.573  13.539  0.00  0.00    +0.000 A 
ATOM     14  O   UNL     1      47.326   3.041  14.404  0.00  0.00    +0.000 OA
ATOM     15  N   UNL     1      45.772   2.862  12.732  0.00  0.00    +0.000 N 
ATOM     16  H   UNL     1      43.795   3.022  10.230  0.00  0.00    +0.000 HD
ATOM     17  H   UNL     1      44.543   1.655  10.875  0.00  0.00    +0.000 HD
ATOM     18  H   UNL     1      45.509   7.347  11.442  0.00  0.00    +0.000 HD
ATOM     19  H   UNL     1      45.689   1.880  12.934  0.00  0.00    +0.000 HD
ENDBRANCH   1  11
BRANCH   3  20
ATOM     20  C   UNL     1      49.045   5.830  17.178  0.00  0.00    +0.000 C 
BRANCH  20  21
ATOM     21  C   UNL     1      49.899   4.583  17.359  0.00  0.00    +0.000 A 
ATOM     22  C   UNL     1      49.316   3.325  17.229  0.00  0.00    +0.000 A 
ATOM     23  C   UNL     1      50.115   2.184  17.320  0.00  0.00    +0.000 A 
ATOM     24  C   UNL     1      51.487   2.300  17.549  0.00  0.00    +0.000 A 
ATOM     25  C   UNL     1      51.975   3.593  17.727  0.00  0.00    +0.000 A 
ATOM     26  N   UNL     1      51.224   4.727  17.632  0.00  0.00    +0.000 NA
BRANCH  24  27
ATOM     27  C   UNL     1      52.376   1.072  17.587  0.00  0.00    +0.000 C 
BRANCH  27  28
ATOM     28  N   UNL     1      53.806   1.381  17.776  0.00  0.00    +0.000 NA
ATOM     29  C   UNL     1      54.623   1.038  16.597  0.00  0.00    +0.000 C 
ATOM     30  C   UNL     1      54.909  -0.469  16.407  0.00  0.00    +0.000 C 
ATOM     31  N   UNL     1      55.480  -1.143  17.580  0.00  0.00    +0.000 NA
ATOM     32  C   UNL     1      54.815  -0.739  18.829  0.00  0.00    +0.000 C 
ATOM     33  C   UNL     1      54.414   0.752  18.962  0.00  0.00    +0.000 C 
ATOM     34  H   UNL     1      56.470  -0.914  17.643  0.00  0.00    +0.000 HD
ENDBRANCH  27  28
ENDBRANCH  24  27
ENDBRANCH  20  21
ENDBRANCH   3  20
TORSDOF 5
ENDMDL
MODEL 2
REMARK VINA RESULT:    -7.268      1.913      9.030
REMARK INTER + INTRA:         -10.332
REMARK INTER:                  -9.747
REMARK INTRA:                  -0.585
REMARK UNBOUND:                -0.940
REMARK  Name = 
REMARK  5 active torsions:
REMARK  status: ('A' for Active; 'I' for Inactive)
REMARK    1  A    between atoms: C_7  and  C_8
REMARK    2  A    between atoms: N_10  and  C_11
REMARK    3  A    between atoms: C_11  and  C_12
REMARK    4  A    between atoms: C_15  and  C_16
REMARK    5  A    between atoms: C_16  and  N_17
REMARK                            x       y       z     vdW  Elec       q    Type
REMARK                         _______ _______ _______ _____ _____    ______ ____
ROOT
ATOM      1  C   UNL     1      50.484   5.017  18.110  0.00  0.00    +0.000 C 
ATOM      2  O   UNL     1      49.512   5.102  18.859  0.00  0.00    +0.000 OA
ATOM      3  N   UNL     1      50.548   5.721  16.930  0.00  0.00    +0.000 N 
ATOM      4  H   UNL     1      51.363   5.642  16.327  0.00  0.00    +0.000 HD
ENDROOT
BRANCH   1  11
ATOM      5  N   UNL     1      53.836  -0.821  17.777  0.00  0.00    +0.000 N 
ATOM      6  C   UNL     1      53.259   0.399  17.923  0.00  0.00    +0.000 A 
ATOM      7  N   UNL     1      53.825   1.305  18.667  0.00  0.00    +0.000 NA
ATOM      8  C   UNL     1      53.143   2.473  18.717  0.00  0.00    +0.000 A 
ATOM      9  N   UNL     1      53.562   3.551  19.435  0.00  0.00    +0.000 N 
ATOM     10  C   UNL     1      52.652   4.564  19.280  0.00  0.00    +0.000 A 
ATOM     11  C   UNL     1      51.616   4.143  18.446  0.00  0.00    +0.000 A 
ATOM     12  C   UNL     1      51.956   2.802  18.097  0.00  0.00    +0.000 A 
ATOM     13  C   UNL     1      51.349   1.780  17.284  0.00  0.00    +0.000 A 
ATOM     14  O   UNL     1      50.297   1.925  16.676  0.00  0.00    +0.000 OA
ATOM     15  N   UNL     1      52.071   0.598  17.255  0.00  0.00    +0.000 N 
ATOM     16  H   UNL     1      54.585  -0.967  18.449  0.00  0.00    +0.000 HD
ATOM     17  H   UNL     1      53.216  -1.615  17.707  0.00  0.00    +0.000 HD
ATOM     18  H   UNL     1      54.403   3.582  19.995  0.00  0.00    +0.000 HD
ATOM     19  H   UNL     1      51.707  -0.124  16.657  0.00  0.00    +0.000 HD
ENDBRANCH   1  11
BRANCH   3  20
ATOM     20  C   UNL     1      49.465   6.596  16.502  0.00  0.00    +0.000 C 
BRANCH  20  21
ATOM     21  C   UNL     1      48.473   5.940  15.550  0.00  0.00    +0.000 A 
ATOM     22  C   UNL     1      48.245   6.507  14.298  0.00  0.00    +0.000 A 
ATOM     23  C   UNL     1      47.394   5.864  13.397  0.00  0.00    +0.000 A 
ATOM     24  C   UNL     1      46.768   4.667  13.750  0.00  0.00    +0.000 A 
ATOM     25  C   UNL     1      47.005   4.206  15.043  0.00  0.00    +0.000 A 
ATOM     26  N   UNL     1      47.840   4.802  15.941  0.00  0.00    +0.000 NA
BRANCH  24  27
ATOM     27  C   UNL     1      45.890   3.927  12.759  0.00  0.00    +0.000 C 
BRANCH  27  28
ATOM     28  N   UNL     1      44.447   4.150  12.964  0.00  0.00    +0.000 NA
ATOM     29  C   UNL     1      43.613   3.422  11.989  0.00  0.00    +0.000 C 
ATOM     30  C   UNL     1      43.571   4.034  10.570  0.00  0.00    +0.000 C 
ATOM     31  N   UNL     1      43.210   5.456  10.520  0.00  0.00    +0.000 NA
ATOM     32  C   UNL     1      43.888   6.237  11.566  0.00  0.00    +0.000 C 
ATOM     33  C   UNL     1      44.042   5.568  12.955  0.00  0.00    +0.000 C 
ATOM     34  H   UNL     1      42.202   5.545  10.640  0.00  0.00    +0.000 HD
ENDBRANCH  27  28
ENDBRANCH  24  27
ENDBRANCH  20  21
ENDBRANCH   3  20
TORSDOF 5
ENDMDL
MODEL 3
REMARK VINA RESULT:    -7.247      4.229      5.207
REMARK INTER + INTRA:         -10.305
REMARK INTER:                  -9.386
REMARK INTRA:                  -0.920
REMARK UNBOUND:                -0.940
REMARK  Name = 
REMARK  5 active torsions:
REMARK  status: ('A' for Active; 'I' for Inactive)
REMARK    1  A    between atoms: C_7  and  C_8
REMARK    2  A    between atoms: N_10  and  C_11
REMARK    3  A    between atoms: C_11  and  C_12
REMARK    4  A    between atoms: C_15  and  C_16
REMARK    5  A    between atoms: C_16  and  N_17
REMARK                            x       y       z     vdW  Elec       q    Type
REMARK                         _______ _______ _______ _____ _____    ______ ____
ROOT
ATOM      1  C   UNL     1      46.114   7.693  12.698  0.00  0.00    +0.000 C 
ATOM      2  O   UNL     1      45.828   8.778  13.203  0.00  0.00    +0.000 OA
ATOM      3  N   UNL     1      47.412   7.244  12.644  0.00  0.00    +0.000 N 
ATOM      4  H   UNL     1      47.628   6.342  12.227  0.00  0.00    +0.000 HD
ENDROOT
BRANCH   1  11
ATOM      5  N   UNL     1      43.176   1.716  11.659  0.00  0.00    +0.000 N 
ATOM      6  C   UNL     1      43.672   2.972  11.793  0.00  0.00    +0.000 A 
ATOM      7  N   UNL     1      43.088   3.973  11.196  0.00  0.00    +0.000 NA
ATOM      8  C   UNL     1      43.686   5.165  11.422  0.00  0.00    +0.000 A 
ATOM      9  N   UNL     1      43.235   6.337  10.895  0.00  0.00    +0.000 N 
ATOM     10  C   UNL     1      44.058   7.351  11.307  0.00  0.00    +0.000 A 
ATOM     11  C   UNL     1      45.070   6.837  12.118  0.00  0.00    +0.000 A 
ATOM     12  C   UNL     1      44.806   5.435  12.179  0.00  0.00    +0.000 A 
ATOM     13  C   UNL     1      45.436   4.311  12.823  0.00  0.00    +0.000 A 
ATOM     14  O   UNL     1      46.435   4.397  13.522  0.00  0.00    +0.000 OA
ATOM     15  N   UNL     1      44.800   3.106  12.572  0.00  0.00    +0.000 N 
ATOM     16  H   UNL     1      42.482   1.661  10.919  0.00  0.00    +0.000 HD
ATOM     17  H   UNL     1      43.846   0.962  11.620  0.00  0.00    +0.000 HD
ATOM     18  H   UNL     1      42.429   6.427  10.291  0.00  0.00    +0.000 HD
ATOM     19  H   UNL     1      45.178   2.304  13.045  0.00  0.00    +0.000 HD
ENDBRANCH   1  11
BRANCH   3  20
ATOM     20  C   UNL     1      48.517   8.033  13.172  0.00  0.00    +0.000 C 
BRANCH  20  21
ATOM     21  C   UNL     1      48.805   7.793  14.648  0.00  0.00    +0.000 A 
ATOM     22  C   UNL     1      48.379   8.725  15.591  0.00  0.00    +0.000 A 
ATOM     23  C   UNL     1      48.576   8.467  16.949  0.00  0.00    +0.000 A 
ATOM     24  C   UNL     1      49.203   7.290  17.360  0.00  0.00    +0.000 A 
ATOM     25  C   UNL     1      49.651   6.445  16.347  0.00  0.00    +0.000 A 
ATOM     26  N   UNL     1      49.463   6.661  15.014  0.00  0.00    +0.000 NA
BRANCH  24  27
ATOM     27  C   UNL     1      49.367   6.970  18.834  0.00  0.00    +0.000 C 
BRANCH  27  28
ATOM     28  N   UNL     1      48.140   6.452  19.467  0.00  0.00    +0.000 NA
ATOM     29  C   UNL     1      48.339   6.088  20.882  0.00  0.00    +0.000 C 
ATOM     30  C   UNL     1      49.098   4.764  21.122  0.00  0.00    +0.000 C 
ATOM     31  N   UNL     1      48.550   3.599  20.416  0.00  0.00    +0.000 NA
ATOM     32  C   UNL     1      48.180   3.917  19.028  0.00  0.00    +0.000 C 
ATOM     33  C   UNL     1      47.534   5.302  18.772  0.00  0.00    +0.000 C 
ATOM     34  H   UNL     1      47.723   3.271  20.913  0.00  0.00    +0.000 HD
ENDBRANCH  27  28
ENDBRANCH  24  27
ENDBRANCH  20  21
ENDBRANCH   3  20
TORSDOF 5
ENDMDL
MODEL 4
REMARK VINA RESULT:    -6.774      2.586      3.511
REMARK INTER + INTRA:          -9.694
REMARK INTER:                  -8.999
REMARK INTRA:                  -0.695
REMARK UNBOUND:                -0.940
REMARK  Name = 
REMARK  5 active torsions:
REMARK  status: ('A' for Active; 'I' for Inactive)
REMARK    1  A    between atoms: C_7  and  C_8
REMARK    2  A    between atoms: N_10  and  C_11
REMARK    3  A    between atoms: C_11  and  C_12
REMARK    4  A    between atoms: C_15  and  C_16
REMARK    5  A    between atoms: C_16  and  N_17
REMARK                            x       y       z     vdW  Elec       q    Type
REMARK                         _______ _______ _______ _____ _____    ______ ____
ROOT
ATOM      1  C   UNL     1      47.102   4.083  14.718  0.00  0.00    +0.000 C 
ATOM      2  O   UNL     1      47.449   3.000  14.250  0.00  0.00    +0.000 OA
ATOM      3  N   UNL     1      47.041   4.296  16.075  0.00  0.00    +0.000 N 
ATOM      4  H   UNL     1      46.757   5.201  16.442  0.00  0.00    +0.000 HD
ENDROOT
BRANCH   1  11
ATOM      5  N   UNL     1      42.693   7.450  10.888  0.00  0.00    +0.000 N 
ATOM      6  C   UNL     1      43.670   6.865  11.627  0.00  0.00    +0.000 A 
ATOM      7  N   UNL     1      44.862   7.389  11.667  0.00  0.00    +0.000 NA
ATOM      8  C   UNL     1      45.731   6.706  12.447  0.00  0.00    +0.000 A 
ATOM      9  N   UNL     1      47.027   7.085  12.628  0.00  0.00    +0.000 N 
ATOM     10  C   UNL     1      47.636   6.185  13.462  0.00  0.00    +0.000 A 
ATOM     11  C   UNL     1      46.725   5.196  13.834  0.00  0.00    +0.000 A 
ATOM     12  C   UNL     1      45.512   5.555  13.173  0.00  0.00    +0.000 A 
ATOM     13  C   UNL     1      44.188   4.993  13.107  0.00  0.00    +0.000 A 
ATOM     14  O   UNL     1      43.847   3.976  13.695  0.00  0.00    +0.000 OA
ATOM     15  N   UNL     1      43.323   5.716  12.302  0.00  0.00    +0.000 N 
ATOM     16  H   UNL     1      43.065   8.160  10.264  0.00  0.00    +0.000 HD
ATOM     17  H   UNL     1      42.037   6.834  10.429  0.00  0.00    +0.000 HD
ATOM     18  H   UNL     1      47.457   7.894  12.202  0.00  0.00    +0.000 HD
ATOM     19  H   UNL     1      42.374   5.384  12.270  0.00  0.00    +0.000 HD
ENDBRANCH   1  11
BRANCH   3  20
ATOM     20  C   UNL     1      47.374   3.247  17.029  0.00  0.00    +0.000 C 
BRANCH  20  21
ATOM     21  C   UNL     1      48.819   3.275  17.507  0.00  0.00    +0.000 A 
ATOM     22  C   UNL     1      49.714   2.312  17.046  0.00  0.00    +0.000 A 
ATOM     23  C   UNL     1      51.056   2.383  17.424  0.00  0.00    +0.000 A 
ATOM     24  C   UNL     1      51.498   3.405  18.267  0.00  0.00    +0.000 A 
ATOM     25  C   UNL     1      50.523   4.287  18.728  0.00  0.00    +0.000 A 
ATOM     26  N   UNL     1      49.209   4.253  18.367  0.00  0.00    +0.000 NA
BRANCH  24  27
ATOM     27  C   UNL     1      52.964   3.529  18.635  0.00  0.00    +0.000 C 
BRANCH  27  28
ATOM     28  N   UNL     1      53.802   4.077  17.552  0.00  0.00    +0.000 NA
ATOM     29  C   UNL     1      55.244   3.991  17.849  0.00  0.00    +0.000 C 
ATOM     30  C   UNL     1      55.771   5.027  18.867  0.00  0.00    +0.000 C 
ATOM     31  N   UNL     1      55.444   6.424  18.555  0.00  0.00    +0.000 NA
ATOM     32  C   UNL     1      54.053   6.579  18.101  0.00  0.00    +0.000 C 
ATOM     33  C   UNL     1      53.486   5.468  17.181  0.00  0.00    +0.000 C 
ATOM     34  H   UNL     1      56.070   6.754  17.823  0.00  0.00    +0.000 HD
ENDBRANCH  27  28
ENDBRANCH  24  27
ENDBRANCH  20  21
ENDBRANCH   3  20
TORSDOF 5
ENDMDL
MODEL 5
REMARK VINA RESULT:    -6.743      2.013      8.626
REMARK INTER + INTRA:          -9.654
REMARK INTER:                  -9.092
REMARK INTRA:                  -0.562
REMARK UNBOUND:                -0.940
REMARK  Name = 
REMARK  5 active torsions:
REMARK  status: ('A' for Active; 'I' for Inactive)
REMARK    1  A    between atoms: C_7  and  C_8
REMARK    2  A    between atoms: N_10  and  C_11
REMARK    3  A    between atoms: C_11  and  C_12
REMARK    4  A    between atoms: C_15  and  C_16
REMARK    5  A    between atoms: C_16  and  N_17
REMARK                            x       y       z     vdW  Elec       q    Type
REMARK                         _______ _______ _______ _____ _____    ______ ____
ROOT
ATOM      1  C   UNL     1      49.812   6.332  16.949  0.00  0.00    +0.000 C 
ATOM      2  O   UNL     1      48.732   6.377  17.535  0.00  0.00    +0.000 OA
ATOM      3  N   UNL     1      50.078   7.136  15.866  0.00  0.00    +0.000 N 
ATOM      4  H   UNL     1      50.980   7.088  15.398  0.00  0.00    +0.000 HD
ENDROOT
BRANCH   1  11
ATOM      5  N   UNL     1      52.247   0.134  17.997  0.00  0.00    +0.000 N 
ATOM      6  C   UNL     1      51.872   1.429  17.833  0.00  0.00    +0.000 A 
ATOM      7  N   UNL     1      52.682   2.392  18.171  0.00  0.00    +0.000 NA
ATOM      8  C   UNL     1      52.181   3.628  17.947  0.00  0.00    +0.000 A 
ATOM      9  N   UNL     1      52.864   4.772  18.227  0.00  0.00    +0.000 N 
ATOM     10  C   UNL     1      52.082   5.846  17.891  0.00  0.00    +0.000 A 
ATOM     11  C   UNL     1      50.863   5.400  17.382  0.00  0.00    +0.000 A 
ATOM     12  C   UNL     1      50.952   3.976  17.425  0.00  0.00    +0.000 A 
ATOM     13  C   UNL     1      50.075   2.892  17.064  0.00  0.00    +0.000 A 
ATOM     14  O   UNL     1      48.957   3.047  16.593  0.00  0.00    +0.000 OA
ATOM     15  N   UNL     1      50.618   1.641  17.306  0.00  0.00    +0.000 N 
ATOM     16  H   UNL     1      53.082   0.053  18.571  0.00  0.00    +0.000 HD
ATOM     17  H   UNL     1      51.526  -0.520  18.265  0.00  0.00    +0.000 HD
ATOM     18  H   UNL     1      53.791   4.808  18.628  0.00  0.00    +0.000 HD
ATOM     19  H   UNL     1      50.056   0.857  17.020  0.00  0.00    +0.000 HD
ENDBRANCH   1  11
BRANCH   3  20
ATOM     20  C   UNL     1      49.092   8.076  15.350  0.00  0.00    +0.000 C 
BRANCH  20  21
ATOM     21  C   UNL     1      48.183   7.498  14.274  0.00  0.00    +0.000 A 
ATOM     22  C   UNL     1      47.183   8.293  13.719  0.00  0.00    +0.000 A 
ATOM     23  C   UNL     1      46.401   7.787  12.679  0.00  0.00    +0.000 A 
ATOM     24  C   UNL     1      46.611   6.492  12.204  0.00  0.00    +0.000 A 
ATOM     25  C   UNL     1      47.590   5.747  12.858  0.00  0.00    +0.000 A 
ATOM     26  N   UNL     1      48.379   6.216  13.867  0.00  0.00    +0.000 NA
BRANCH  24  27
ATOM     27  C   UNL     1      45.810   5.953  11.034  0.00  0.00    +0.000 C 
BRANCH  27  28
ATOM     28  N   UNL     1      44.451   5.510  11.401  0.00  0.00    +0.000 NA
ATOM     29  C   UNL     1      44.435   4.663  12.608  0.00  0.00    +0.000 C 
ATOM     30  C   UNL     1      44.921   3.210  12.401  0.00  0.00    +0.000 C 
ATOM     31  N   UNL     1      44.254   2.483  11.314  0.00  0.00    +0.000 NA
ATOM     32  C   UNL     1      44.092   3.313  10.110  0.00  0.00    +0.000 C 
ATOM     33  C   UNL     1      43.729   4.804  10.327  0.00  0.00    +0.000 C 
ATOM     34  H   UNL     1      43.335   2.181  11.633  0.00  0.00    +0.000 HD
ENDBRANCH  27  28
ENDBRANCH  24  27
ENDBRANCH  20  21
ENDBRANCH   3  20
TORSDOF 5
ENDMDL
MODEL 6
REMARK VINA RESULT:    -6.693      2.094      3.404
REMARK INTER + INTRA:          -9.589
REMARK INTER:                  -8.717
REMARK INTRA:                  -0.872
REMARK UNBOUND:                -0.940
REMARK  Name = 
REMARK  5 active torsions:
REMARK  status: ('A' for Active; 'I' for Inactive)
REMARK    1  A    between atoms: C_7  and  C_8
REMARK    2  A    between atoms: N_10  and  C_11
REMARK    3  A    between atoms: C_11  and  C_12
REMARK    4  A    between atoms: C_15  and  C_16
REMARK    5  A    between atoms: C_16  and  N_17
REMARK                            x       y       z     vdW  Elec       q    Type
REMARK                         _______ _______ _______ _____ _____    ______ ____
ROOT
ATOM      1  C   UNL     1      46.590   8.158  12.737  0.00  0.00    +0.000 C 
ATOM      2  O   UNL     1      47.034   9.089  12.068  0.00  0.00    +0.000 OA
ATOM      3  N   UNL     1      47.098   7.857  13.979  0.00  0.00    +0.000 N 
ATOM      4  H   UNL     1      46.714   7.086  14.519  0.00  0.00    +0.000 HD
ENDROOT
BRANCH   1  11
ATOM      5  N   UNL     1      43.463   2.238  11.952  0.00  0.00    +0.000 N 
ATOM      6  C   UNL     1      43.995   3.484  12.038  0.00  0.00    +0.000 A 
ATOM      7  N   UNL     1      43.409   4.487  11.449  0.00  0.00    +0.000 NA
ATOM      8  C   UNL     1      44.045   5.668  11.624  0.00  0.00    +0.000 A 
ATOM      9  N   UNL     1      43.599   6.841  11.096  0.00  0.00    +0.000 N 
ATOM     10  C   UNL     1      44.465   7.842  11.450  0.00  0.00    +0.000 A 
ATOM     11  C   UNL     1      45.500   7.317  12.223  0.00  0.00    +0.000 A 
ATOM     12  C   UNL     1      45.206   5.924  12.323  0.00  0.00    +0.000 A 
ATOM     13  C   UNL     1      45.837   4.796  12.959  0.00  0.00    +0.000 A 
ATOM     14  O   UNL     1      46.870   4.869  13.610  0.00  0.00    +0.000 OA
ATOM     15  N   UNL     1      45.161   3.604  12.761  0.00  0.00    +0.000 N 
ATOM     16  H   UNL     1      42.734   2.187  11.246  0.00  0.00    +0.000 HD
ATOM     17  H   UNL     1      44.112   1.466  11.897  0.00  0.00    +0.000 HD
ATOM     18  H   UNL     1      42.768   6.940  10.528  0.00  0.00    +0.000 HD
ATOM     19  H   UNL     1      45.541   2.800  13.232  0.00  0.00    +0.000 HD
ENDBRANCH   1  11
BRANCH   3  20
ATOM     20  C   UNL     1      48.194   8.619  14.562  0.00  0.00    +0.000 C 
BRANCH  20  21
ATOM     21  C   UNL     1      49.193   7.777  15.344  0.00  0.00    +0.000 A 
ATOM     22  C   UNL     1      48.734   6.736  16.147  0.00  0.00    +0.000 A 
ATOM     23  C   UNL     1      49.655   5.916  16.802  0.00  0.00    +0.000 A 
ATOM     24  C   UNL     1      51.025   6.143  16.664  0.00  0.00    +0.000 A 
ATOM     25  C   UNL     1      51.392   7.243  15.891  0.00  0.00    +0.000 A 
ATOM     26  N   UNL     1      50.519   8.054  15.228  0.00  0.00    +0.000 NA
BRANCH  24  27
ATOM     27  C   UNL     1      52.036   5.223  17.321  0.00  0.00    +0.000 C 
BRANCH  27  28
ATOM     28  N   UNL     1      51.436   4.263  18.267  0.00  0.00    +0.000 NA
ATOM     29  C   UNL     1      52.035   4.339  19.612  0.00  0.00    +0.000 C 
ATOM     30  C   UNL     1      53.434   3.696  19.749  0.00  0.00    +0.000 C 
ATOM     31  N   UNL     1      53.527   2.309  19.277  0.00  0.00    +0.000 NA
ATOM     32  C   UNL     1      52.820   2.110  18.002  0.00  0.00    +0.000 C 
ATOM     33  C   UNL     1      51.476   2.859  17.819  0.00  0.00    +0.000 C 
ATOM     34  H   UNL     1      53.123   1.694  19.980  0.00  0.00    +0.000 HD
ENDBRANCH  27  28
ENDBRANCH  24  27
ENDBRANCH  20  21
ENDBRANCH   3  20
TORSDOF 5
ENDMDL
MODEL 7
REMARK VINA RESULT:    -6.149      6.220      9.840
REMARK INTER + INTRA:          -8.886
REMARK INTER:                  -8.230
REMARK INTRA:                  -0.656
REMARK UNBOUND:                -0.940
REMARK  Name = 
REMARK  5 active torsions:
REMARK  status: ('A' for Active; 'I' for Inactive)
REMARK    1  A    between atoms: C_7  and  C_8
REMARK    2  A    between atoms: N_10  and  C_11
REMARK    3  A    between atoms: C_11  and  C_12
REMARK    4  A    between atoms: C_15  and  C_16
REMARK    5  A    between atoms: C_16  and  N_17
REMARK                            x       y       z     vdW  Elec       q    Type
REMARK                         _______ _______ _______ _____ _____    ______ ____
ROOT
ATOM      1  C   UNL     1      52.476   7.521  10.223  0.00  0.00    +0.000 C 
ATOM      2  O   UNL     1      52.426   8.582   9.604  0.00  0.00    +0.000 OA
ATOM      3  N   UNL     1      51.721   7.310  11.354  0.00  0.00    +0.000 N 
ATOM      4  H   UNL     1      51.772   6.423  11.849  0.00  0.00    +0.000 HD
ENDROOT
BRANCH   1  11
ATOM      5  N   UNL     1      54.939   3.346   5.539  0.00  0.00    +0.000 N 
ATOM      6  C   UNL     1      54.525   4.128   6.568  0.00  0.00    +0.000 A 
ATOM      7  N   UNL     1      55.026   3.961   7.759  0.00  0.00    +0.000 NA
ATOM      8  C   UNL     1      54.527   4.812   8.685  0.00  0.00    +0.000 A 
ATOM      9  N   UNL     1      54.917   4.808   9.989  0.00  0.00    +0.000 N 
ATOM     10  C   UNL     1      54.224   5.781  10.659  0.00  0.00    +0.000 A 
ATOM     11  C   UNL     1      53.361   6.435   9.781  0.00  0.00    +0.000 A 
ATOM     12  C   UNL     1      53.577   5.798   8.522  0.00  0.00    +0.000 A 
ATOM     13  C   UNL     1      53.034   5.958   7.197  0.00  0.00    +0.000 A 
ATOM     14  O   UNL     1      52.185   6.788   6.902  0.00  0.00    +0.000 OA
ATOM     15  N   UNL     1      53.566   5.072   6.274  0.00  0.00    +0.000 N 
ATOM     16  H   UNL     1      55.481   2.551   5.863  0.00  0.00    +0.000 HD
ATOM     17  H   UNL     1      54.244   3.090   4.852  0.00  0.00    +0.000 HD
ATOM     18  H   UNL     1      55.601   4.177  10.386  0.00  0.00    +0.000 HD
ATOM     19  H   UNL     1      53.251   5.186   5.325  0.00  0.00    +0.000 HD
ENDBRANCH   1  11
BRANCH   3  20
ATOM     20  C   UNL     1      50.831   8.336  11.882  0.00  0.00    +0.000 C 
BRANCH  20  21
ATOM     21  C   UNL     1      49.409   7.857  12.135  0.00  0.00    +0.000 A 
ATOM     22  C   UNL     1      48.335   8.657  11.751  0.00  0.00    +0.000 A 
ATOM     23  C   UNL     1      47.032   8.184  11.915  0.00  0.00    +0.000 A 
ATOM     24  C   UNL     1      46.804   6.923  12.467  0.00  0.00    +0.000 A 
ATOM     25  C   UNL     1      47.932   6.217  12.879  0.00  0.00    +0.000 A 
ATOM     26  N   UNL     1      49.218   6.645  12.722  0.00  0.00    +0.000 NA
BRANCH  24  27
ATOM     27  C   UNL     1      45.396   6.372  12.593  0.00  0.00    +0.000 C 
BRANCH  27  28
ATOM     28  N   UNL     1      44.724   6.165  11.297  0.00  0.00    +0.000 NA
ATOM     29  C   UNL     1      43.253   6.207  11.404  0.00  0.00    +0.000 C 
ATOM     30  C   UNL     1      42.600   4.947  12.016  0.00  0.00    +0.000 C 
ATOM     31  N   UNL     1      42.983   3.680  11.380  0.00  0.00    +0.000 NA
ATOM     32  C   UNL     1      44.426   3.617  11.097  0.00  0.00    +0.000 C 
ATOM     33  C   UNL     1      45.104   4.920  10.604  0.00  0.00    +0.000 C 
ATOM     34  H   UNL     1      42.469   3.581  10.507  0.00  0.00    +0.000 HD
ENDBRANCH  27  28
ENDBRANCH  24  27
ENDBRANCH  20  21
ENDBRANCH   3  20
TORSDOF 5
ENDMDL
MODEL 8
REMARK VINA RESULT:    -5.648      2.782      9.077
REMARK INTER + INTRA:          -8.238
REMARK INTER:                  -7.596
REMARK INTRA:                  -0.642
REMARK UNBOUND:                -0.940
REMARK  Name = 
REMARK  5 active torsions:
REMARK  status: ('A' for Active; 'I' for Inactive)
REMARK    1  A    between atoms: C_7  and  C_8
REMARK    2  A    between atoms: N_10  and  C_11
REMARK    3  A    between atoms: C_11  and  C_12
REMARK    4  A    between atoms: C_15  and  C_16
REMARK    5  A    between atoms: C_16  and  N_17
REMARK                            x       y       z     vdW  Elec       q    Type
REMARK                         _______ _______ _______ _____ _____    ______ ____
ROOT
ATOM      1  C   UNL     1      49.655   7.085  16.132  0.00  0.00    +0.000 C 
ATOM      2  O   UNL     1      48.691   7.642  16.655  0.00  0.00    +0.000 OA
ATOM      3  N   UNL     1      50.108   7.450  14.886  0.00  0.00    +0.000 N 
ATOM      4  H   UNL     1      50.910   6.982  14.472  0.00  0.00    +0.000 HD
ENDROOT
BRANCH   1  11
ATOM      5  N   UNL     1      55.231   3.767  17.957  0.00  0.00    +0.000 N 
ATOM      6  C   UNL     1      54.039   4.343  17.656  0.00  0.00    +0.000 A 
ATOM      7  N   UNL     1      52.929   3.808  18.077  0.00  0.00    +0.000 NA
ATOM      8  C   UNL     1      51.821   4.490  17.709  0.00  0.00    +0.000 A 
ATOM      9  N   UNL     1      50.560   4.104  18.047  0.00  0.00    +0.000 N 
ATOM     10  C   UNL     1      49.668   4.999  17.519  0.00  0.00    +0.000 A 
ATOM     11  C   UNL     1      50.355   5.992  16.820  0.00  0.00    +0.000 A 
ATOM     12  C   UNL     1      51.732   5.645  16.960  0.00  0.00    +0.000 A 
ATOM     13  C   UNL     1      52.974   6.213  16.502  0.00  0.00    +0.000 A 
ATOM     14  O   UNL     1      53.051   7.231  15.828  0.00  0.00    +0.000 OA
ATOM     15  N   UNL     1      54.088   5.490  16.896  0.00  0.00    +0.000 N 
ATOM     16  H   UNL     1      55.113   2.831  18.335  0.00  0.00    +0.000 HD
ATOM     17  H   UNL     1      55.952   3.814  17.251  0.00  0.00    +0.000 HD
ATOM     18  H   UNL     1      50.333   3.282  18.591  0.00  0.00    +0.000 HD
ATOM     19  H   UNL     1      54.978   5.883  16.639  0.00  0.00    +0.000 HD
ENDBRANCH   1  11
BRANCH   3  20
ATOM     20  C   UNL     1      49.465   8.508  14.117  0.00  0.00    +0.000 C 
BRANCH  20  21
ATOM     21  C   UNL     1      48.223   8.061  13.359  0.00  0.00    +0.000 A 
ATOM     22  C   UNL     1      48.339   7.101  12.355  0.00  0.00    +0.000 A 
ATOM     23  C   UNL     1      47.190   6.636  11.713  0.00  0.00    +0.000 A 
ATOM     24  C   UNL     1      45.934   7.135  12.064  0.00  0.00    +0.000 A 
ATOM     25  C   UNL     1      45.919   8.135  13.034  0.00  0.00    +0.000 A 
ATOM     26  N   UNL     1      47.020   8.601  13.689  0.00  0.00    +0.000 NA
BRANCH  24  27
ATOM     27  C   UNL     1      44.674   6.594  11.417  0.00  0.00    +0.000 C 
BRANCH  27  28
ATOM     28  N   UNL     1      43.868   5.742  12.312  0.00  0.00    +0.000 NA
ATOM     29  C   UNL     1      44.696   4.876  13.173  0.00  0.00    +0.000 C 
ATOM     30  C   UNL     1      45.323   3.652  12.468  0.00  0.00    +0.000 C 
ATOM     31  N   UNL     1      44.373   2.806  11.734  0.00  0.00    +0.000 NA
ATOM     32  C   UNL     1      43.406   3.601  10.961  0.00  0.00    +0.000 C 
ATOM     33  C   UNL     1      42.876   4.899  11.621  0.00  0.00    +0.000 C 
ATOM     34  H   UNL     1      43.867   2.224  12.399  0.00  0.00    +0.000 HD
ENDBRANCH  27  28
ENDBRANCH  24  27
ENDBRANCH  20  21
ENDBRANCH   3  20
TORSDOF 5
ENDMDL
MODEL 9
REMARK VINA RESULT:    -4.947      6.229      7.856
REMARK INTER + INTRA:          -7.333
REMARK INTER:                  -6.739
REMARK INTRA:                  -0.594
REMARK UNBOUND:                -0.940
REMARK  Name = 
REMARK  5 active torsions:
REMARK  status: ('A' for Active; 'I' for Inactive)
REMARK    1  A    between atoms: C_7  and  C_8
REMARK    2  A    between atoms: N_10  and  C_11
REMARK    3  A    between atoms: C_11  and  C_12
REMARK    4  A    between atoms: C_15  and  C_16
REMARK    5  A    between atoms: C_16  and  N_17
REMARK                            x       y       z     vdW  Elec       q    Type
REMARK                         _______ _______ _______ _____ _____    ______ ____
ROOT
ATOM      1  C   UNL     1      52.370   7.496  10.230  0.00  0.00    +0.000 C 
ATOM      2  O   UNL     1      52.406   8.678   9.893  0.00  0.00    +0.000 OA
ATOM      3  N   UNL     1      51.365   7.004  11.029  0.00  0.00    +0.000 N 
ATOM      4  H   UNL     1      51.351   6.022  11.292  0.00  0.00    +0.000 HD
ENDROOT
BRANCH   1  11
ATOM      5  N   UNL     1      55.238   3.415   5.696  0.00  0.00    +0.000 N 
ATOM      6  C   UNL     1      54.760   4.204   6.691  0.00  0.00    +0.000 A 
ATOM      7  N   UNL     1      55.378   4.259   7.836  0.00  0.00    +0.000 NA
ATOM      8  C   UNL     1      54.794   5.089   8.731  0.00  0.00    +0.000 A 
ATOM      9  N   UNL     1      55.280   5.294   9.986  0.00  0.00    +0.000 N 
ATOM     10  C   UNL     1      54.462   6.178  10.637  0.00  0.00    +0.000 A 
ATOM     11  C   UNL     1      53.417   6.561   9.795  0.00  0.00    +0.000 A 
ATOM     12  C   UNL     1      53.655   5.851   8.580  0.00  0.00    +0.000 A 
ATOM     13  C   UNL     1      52.988   5.768   7.306  0.00  0.00    +0.000 A 
ATOM     14  O   UNL     1      51.969   6.384   7.028  0.00  0.00    +0.000 OA
ATOM     15  N   UNL     1      53.611   4.911   6.414  0.00  0.00    +0.000 N 
ATOM     16  H   UNL     1      55.954   2.776   6.031  0.00  0.00    +0.000 HD
ATOM     17  H   UNL     1      54.557   2.960   5.105  0.00  0.00    +0.000 HD
ATOM     18  H   UNL     1      56.106   4.850  10.366  0.00  0.00    +0.000 HD
ATOM     19  H   UNL     1      53.204   4.864   5.495  0.00  0.00    +0.000 HD
ENDBRANCH   1  11
BRANCH   3  20
ATOM     20  C   UNL     1      50.296   7.859  11.527  0.00  0.00    +0.000 C 
BRANCH  20  21
ATOM     21  C   UNL     1      49.788   7.480  12.911  0.00  0.00    +0.000 A 
ATOM     22  C   UNL     1      48.576   6.804  13.036  0.00  0.00    +0.000 A 
ATOM     23  C   UNL     1      48.148   6.389  14.299  0.00  0.00    +0.000 A 
ATOM     24  C   UNL     1      48.921   6.658  15.430  0.00  0.00    +0.000 A 
ATOM     25  C   UNL     1      50.086   7.392  15.219  0.00  0.00    +0.000 A 
ATOM     26  N   UNL     1      50.539   7.800  13.999  0.00  0.00    +0.000 NA
BRANCH  24  27
ATOM     27  C   UNL     1      48.498   6.159  16.798  0.00  0.00    +0.000 C 
BRANCH  27  28
ATOM     28  N   UNL     1      49.597   5.556  17.575  0.00  0.00    +0.000 NA
ATOM     29  C   UNL     1      49.653   4.089  17.438  0.00  0.00    +0.000 C 
ATOM     30  C   UNL     1      48.580   3.310  18.231  0.00  0.00    +0.000 C 
ATOM     31  N   UNL     1      48.506   3.640  19.660  0.00  0.00    +0.000 NA
ATOM     32  C   UNL     1      48.596   5.089  19.899  0.00  0.00    +0.000 C 
ATOM     33  C   UNL     1      49.583   5.888  19.011  0.00  0.00    +0.000 C 
ATOM     34  H   UNL     1      49.271   3.176  20.146  0.00  0.00    +0.000 HD
ENDBRANCH  27  28
ENDBRANCH  24  27
ENDBRANCH  20  21
ENDBRANCH   3  20
TORSDOF 5
ENDMDL
